@<TRIPOS>MOLECULE
BindingDB_18494
 45 46 0 0 0
SMALL
NO_CHARGES


@<TRIPOS>ATOM
1    C        15.6205   -8.6639   -1.4820  C     
2    C        16.2049  -10.5689   -2.7685  C     
3    C        14.8054   -8.9071   -3.7525  C     
4    C        14.8835   -8.1294   -2.5685  C     
5    N        16.2583   -9.8550   -1.6202  N     
6    N        15.4732  -10.0910   -3.8002  N     
7    N        15.7407   -8.0481   -0.2916  N     
8    N        16.8779  -11.7226   -2.9053  N     
9    C        14.3632   -6.9318   -2.5118  C     
10   C        13.9171   -5.8245   -2.4925  C     
11   C        13.4076   -4.5531   -2.4931  C     
12   C        12.7406   -4.2339   -3.7878  C     
13   C        11.5200   -4.8501   -4.1464  C     
14   C        13.3095   -3.3122   -4.6940  C     
15   C        12.6499   -2.9748   -5.8948  C     
16   C        11.4059   -3.5647   -6.2256  C     
17   C        10.8404   -4.5261   -5.3443  C     
18   O         9.7031   -5.2128   -5.7106  O     
19   C         8.7766   -5.5858   -4.6683  C     
20   O        10.8626   -3.1071   -7.4132  O     
21   C        10.0221   -3.9023   -8.2691  C     
22   O        13.2790   -2.1806   -6.8184  O     
23   C        13.4356   -0.8010   -6.4515  C     
24   O        12.4668   -4.4128   -1.4305  O     
25   C        14.0403   -8.5010   -4.9542  C     
26   H        16.2745   -8.4511    0.4103  H     
27   H        15.2920   -7.2073   -0.1192  H     
28   H        16.8549  -12.2025   -3.7514  H     
29   H        17.4131  -12.0627   -2.1708  H     
30   H        14.2391   -3.8708   -2.2969  H     
31   H        11.1288   -5.5644   -3.5247  H     
32   H        14.2239   -2.8940   -4.4929  H     
33   H         9.1282   -6.4873   -4.1566  H     
34   H         7.8168   -5.8149   -5.1370  H     
35   H         8.6271   -4.7799   -3.9377  H     
36   H        10.5933   -4.7348   -8.6942  H     
37   H         9.6595   -3.2707   -9.0805  H     
38   H         9.1606   -4.2852   -7.7102  H     
39   H        12.4934   -0.3497   -6.1369  H     
40   H        13.7954   -0.2594   -7.3256  H     
41   H        14.1805   -0.6935   -5.6630  H     
42   H        12.9865   -4.5261   -0.6031  H     
43   H        12.9889   -8.3719   -4.6920  H     
44   H        14.1050   -9.2573   -5.7398  H     
45   H        14.4294   -7.5581   -5.3444  H     
@<TRIPOS>BOND
     1    1    4 2
     2    1    5 1
     3    1    7 1
     4    2    5 2
     5    2    6 1
     6    2    8 1
     7    3    4 1
     8    3    6 2
     9    3   25 1
    10    4    9 1
    11    9   10 3
    12   10   11 1
    13   11   12 1
    14   11   24 1
    15   12   13 1
    16   12   14 2
    17   13   17 2
    18   14   15 1
    19   15   16 2
    20   15   22 1
    21   16   17 1
    22   16   20 1
    23   17   18 1
    24   18   19 1
    25   20   21 1
    26   22   23 1
    27    7   26 1
    28    7   27 1
    29    8   28 1
    30    8   29 1
    31   11   30 1
    32   13   31 1
    33   14   32 1
    34   19   33 1
    35   19   34 1
    36   19   35 1
    37   21   36 1
    38   21   37 1
    39   21   38 1
    40   23   39 1
    41   23   40 1
    42   23   41 1
    43   24   42 1
    44   25   43 1
    45   25   44 1
    46   25   45 1
@<TRIPOS>PROPERTY_DATA
  Total_Score	| 8.4094
  Crash		| -0.7957
  Polar		| 2.9398
  FragIndex	| 1
  FragRMSD	| 0.809

