@<TRIPOS>MOLECULE
BindingDB_25820
 55 57 0 0 0
SMALL
NO_CHARGES


@<TRIPOS>ATOM
1    C        15.5432   -8.6893   -1.5441  C     
2    C        16.2627  -10.5730   -2.7929  C     
3    C        14.5615   -9.1870   -3.7106  C     
4    C        14.6235   -8.3425   -2.5677  C     
5    C        13.6667   -8.9445   -4.8679  C     
6    N        15.7118   -7.9996   -0.3974  N     
7    N        17.0638  -11.6383   -2.9287  N     
8    N        16.3286   -9.7873   -1.6918  N     
9    N        15.3869  -10.2620   -3.7703  N     
10   C        13.8631   -7.2862   -2.4811  C     
11   C        13.1358   -6.3384   -2.4067  C     
12   C        12.2522   -5.2885   -2.2860  C     
13   C        12.6731   -4.4205   -1.0769  C     
14   C        11.9968   -4.5627   -3.5827  C     
15   C        11.1689   -5.1895   -4.5545  C     
16   C        12.4548   -3.2511   -3.8745  C     
17   C        12.0651   -2.5798   -5.0523  C     
18   C        11.1763   -3.2022   -5.9495  C     
19   C        10.7382   -4.5276   -5.7258  C     
20   O        12.4723   -1.3047   -5.3308  O     
21   C        13.5240   -1.1995   -6.3159  C     
22   C         9.9465   -5.1976   -6.7078  C     
23   C         9.6399   -5.8989   -9.0437  C     
24   C        10.4549   -5.3243   -8.0421  C     
25   C         8.6511   -5.7230   -6.3894  C     
26   C         7.8871   -6.3216   -7.4178  C     
27   C         8.3608   -6.3943   -8.7349  C     
28   C         7.9792   -5.6836   -5.0524  C     
29   C        11.8651   -4.9881   -8.4075  C     
30   H        12.6277   -8.9208   -4.5409  H     
31   H        13.7717   -9.7255   -5.6221  H     
32   H        13.9198   -7.9862   -5.3213  H     
33   H        16.3949   -8.2747    0.2385  H     
34   H        15.1824   -7.2155   -0.1988  H     
35   H        17.0366  -12.1780   -3.7343  H     
36   H        17.6855  -11.8639   -2.2236  H     
37   H        11.3005   -5.7424   -1.9933  H     
38   H        12.6929   -5.0018   -0.1495  H     
39   H        11.9531   -3.6102   -0.9443  H     
40   H        13.6654   -3.9927   -1.2351  H     
41   H        10.8653   -6.1510   -4.3917  H     
42   H        13.0533   -2.7577   -3.2190  H     
43   H        10.9108   -2.7106   -6.8142  H     
44   H        13.4823   -1.9804   -7.0846  H     
45   H        14.5110   -1.2188   -5.8279  H     
46   H        13.4152   -0.2269   -6.8114  H     
47   H         9.9817   -6.0079  -10.0003  H     
48   H         6.9548   -6.6972   -7.2152  H     
49   H         7.7908   -6.8230   -9.4674  H     
50   H         8.5343   -5.1313   -4.2966  H     
51   H         7.8555   -6.7010   -4.6903  H     
52   H         6.9955   -5.2193   -5.1345  H     
53   H        12.0947   -3.9540   -8.1510  H     
54   H        12.0844   -5.1056   -9.4731  H     
55   H        12.5326   -5.6420   -7.8384  H     
@<TRIPOS>BOND
     1    1    4 1
     2    1    6 1
     3    1    8 2
     4    2    7 1
     5    2    8 1
     6    2    9 2
     7    3    4 2
     8    3    5 1
     9    3    9 1
    10    4   10 1
    11   10   11 3
    12   11   12 1
    13   12   13 1
    14   12   14 1
    15   14   15 2
    16   14   16 1
    17   15   19 1
    18   16   17 2
    19   17   18 1
    20   17   20 1
    21   18   19 2
    22   19   22 1
    23   20   21 1
    24   22   24 2
    25   22   25 1
    26   23   24 1
    27   23   27 2
    28   24   29 1
    29   25   26 2
    30   25   28 1
    31   26   27 1
    32    5   30 1
    33    5   31 1
    34    5   32 1
    35    6   33 1
    36    6   34 1
    37    7   35 1
    38    7   36 1
    39   12   37 1
    40   13   38 1
    41   13   39 1
    42   13   40 1
    43   15   41 1
    44   16   42 1
    45   18   43 1
    46   21   44 1
    47   21   45 1
    48   21   46 1
    49   23   47 1
    50   26   48 1
    51   27   49 1
    52   28   50 1
    53   28   51 1
    54   28   52 1
    55   29   53 1
    56   29   54 1
    57   29   55 1
@<TRIPOS>PROPERTY_DATA
  Total_Score	| 10.7325
  Crash		| -1.6158
  Polar		| 3.1139
  FragIndex	| 1
  FragRMSD	| 0.878

