@<TRIPOS>MOLECULE
BindingDB_25818
 49 51 0 0 0
SMALL
NO_CHARGES


@<TRIPOS>ATOM
1    C        15.5811   -8.7553   -1.4672  C     
2    C        16.3635  -10.6167   -2.7115  C     
3    C        14.7076   -9.2102   -3.6850  C     
4    C        14.7124   -8.3891   -2.5274  C     
5    C        13.8587   -8.9631   -4.8762  C     
6    N        15.6957   -8.0708   -0.3128  N     
7    N        17.1740  -11.6811   -2.8297  N     
8    N        16.3746   -9.8496   -1.5957  N     
9    N        15.5330  -10.2880   -3.7272  N     
10   C        13.9454   -7.3344   -2.4545  C     
11   C        13.2210   -6.3850   -2.4224  C     
12   C        12.3602   -5.3143   -2.3758  C     
13   C        12.6916   -4.4153   -1.1575  C     
14   C        12.2905   -4.6361   -3.7116  C     
15   C        11.4069   -5.1509   -4.6943  C     
16   C        13.0744   -3.5099   -4.0568  C     
17   C        12.9590   -2.8841   -5.3146  C     
18   C        12.0726   -3.4330   -6.2706  C     
19   C        11.2845   -4.5755   -5.9844  C     
20   O        13.7961   -1.8169   -5.5567  O     
21   C        13.3388   -0.7702   -6.4365  C     
22   C        10.4381   -5.1495   -6.9854  C     
23   C         8.3612   -6.3019   -7.6242  C     
24   C         9.1582   -5.6574   -6.6569  C     
25   C        10.8803   -5.2830   -8.3300  C     
26   C        10.0768   -5.9158   -9.3009  C     
27   C         8.8214   -6.4359   -8.9446  C     
28   H        12.8061   -8.9707   -4.5881  H     
29   H        14.0073   -9.7280   -5.6433  H     
30   H        14.1014   -7.9903   -5.3093  H     
31   H        16.3554   -8.3461    0.3451  H     
32   H        15.1679   -7.2746   -0.1369  H     
33   H        17.1794  -12.2019   -3.6540  H     
34   H        17.7681  -11.9230   -2.1003  H     
35   H        11.3714   -5.7337   -2.1598  H     
36   H        12.5538   -4.9605   -0.2204  H     
37   H        12.0204   -3.5539   -1.1495  H     
38   H        13.7260   -4.0636   -1.1952  H     
39   H        10.8608   -5.9856   -4.4793  H     
40   H        13.7443   -3.1257   -3.3835  H     
41   H        12.0026   -2.9860   -7.1864  H     
42   H        13.3237   -1.1159   -7.4716  H     
43   H        14.0397    0.0711   -6.3765  H     
44   H        12.3424   -0.4163   -6.1486  H     
45   H         7.4526   -6.6810   -7.3581  H     
46   H         8.7930   -5.5653   -5.7084  H     
47   H        11.8116   -4.9621   -8.6129  H     
48   H        10.4209   -6.0251  -10.2598  H     
49   H         8.2465   -6.9082   -9.6426  H     
@<TRIPOS>BOND
     1    1    4 1
     2    1    6 1
     3    1    8 2
     4    2    7 1
     5    2    8 1
     6    2    9 2
     7    3    4 2
     8    3    5 1
     9    3    9 1
    10    4   10 1
    11   10   11 3
    12   11   12 1
    13   12   13 1
    14   12   14 1
    15   14   15 2
    16   14   16 1
    17   15   19 1
    18   16   17 2
    19   17   18 1
    20   17   20 1
    21   18   19 2
    22   19   22 1
    23   20   21 1
    24   22   24 2
    25   22   25 1
    26   23   24 1
    27   23   27 2
    28   25   26 2
    29   26   27 1
    30    5   28 1
    31    5   29 1
    32    5   30 1
    33    6   31 1
    34    6   32 1
    35    7   33 1
    36    7   34 1
    37   12   35 1
    38   13   36 1
    39   13   37 1
    40   13   38 1
    41   15   39 1
    42   16   40 1
    43   18   41 1
    44   21   42 1
    45   21   43 1
    46   21   44 1
    47   23   45 1
    48   24   46 1
    49   25   47 1
    50   26   48 1
    51   27   49 1
@<TRIPOS>PROPERTY_DATA
  Total_Score	| 9.5451
  Crash		| -1.1719
  Polar		| 2.9885
  FragIndex	| 1
  FragRMSD	| 0.709

