@<TRIPOS>MOLECULE
BindingDB_50298803
 50 51 0 0 0
SMALL
NO_CHARGES


@<TRIPOS>ATOM
1    N        16.2077   -9.9139   -1.6250  N     
2    C        16.1255  -10.6121   -2.7827  C     
3    N        15.3688  -10.1204   -3.7940  N     
4    C        14.7132   -8.9336   -3.7200  C     
5    C        14.8132   -8.1791   -2.5199  C     
6    C        15.5708   -8.7302   -1.4530  C     
7    N        15.7609   -8.1098   -0.2676  N     
8    C        14.2762   -6.9990   -2.3984  C     
9    C        13.8361   -5.8941   -2.2893  C     
10   C        13.4200   -4.5940   -2.1602  C     
11   C        13.4916   -3.8669   -3.4657  C     
12   C        12.7685   -4.2684   -4.6251  C     
13   C        12.7286   -3.4317   -5.7637  C     
14   C        13.4974   -2.2393   -5.8153  C     
15   C        14.3032   -1.9115   -4.7061  C     
16   C        14.2626   -2.6875   -3.5375  C     
17   O        15.0062   -0.7448   -4.6924  O     
18   C        16.4320   -0.9208   -4.6921  C     
19   O        13.4603   -1.3284   -6.8508  O     
20   C        13.4962   -1.8111   -8.2043  C     
21   O        11.8953   -3.7710   -6.7903  O     
22   C        10.7479   -2.9161   -6.8793  C     
23   C        13.9490   -8.5581   -4.9342  C     
24   C        12.0446   -4.4480   -1.4451  C     
25   C        10.9136   -5.4107   -1.8692  C     
26   N        16.7547  -11.7917   -2.9301  N     
27   H        15.3163   -7.2714   -0.0754  H     
28   H        16.3383   -8.5075    0.4051  H     
29   H        14.1467   -4.1677   -1.4585  H     
30   H        12.1676   -5.1083   -4.6030  H     
31   H        14.7761   -2.3511   -2.7176  H     
32   H        16.7833   -1.3873   -3.7632  H     
33   H        16.8895    0.0692   -4.7724  H     
34   H        16.7733   -1.5139   -5.5406  H     
35   H        14.2121   -2.6223   -8.3434  H     
36   H        13.7763   -0.9698   -8.8422  H     
37   H        12.5083   -2.1486   -8.5137  H     
38   H        10.1144   -2.9975   -5.9801  H     
39   H        10.1563   -3.2372   -7.7469  H     
40   H        11.0295   -1.8643   -7.0240  H     
41   H        14.6390   -8.4902   -5.7797  H     
42   H        13.4289   -7.6040   -4.8295  H     
43   H        13.2118   -9.3371   -5.1451  H     
44   H        12.1916   -4.5765   -0.3682  H     
45   H        11.6871   -3.4239   -1.5989  H     
46   H        10.6398   -5.1914   -2.9041  H     
47   H        10.0430   -5.2720   -1.2172  H     
48   H        11.2362   -6.4511   -1.7905  H     
49   H        16.7234  -12.2614   -3.7825  H     
50   H        17.2916  -12.1430   -2.2018  H     
@<TRIPOS>BOND
     1    1    2 2
     2    1    6 1
     3    2    3 1
     4    2   26 1
     5    3    4 2
     6    4    5 1
     7    4   23 1
     8    5    6 2
     9    5    8 1
    10    6    7 1
    11    8    9 3
    12    9   10 1
    13   10   11 1
    14   10   24 1
    15   11   12 2
    16   11   16 1
    17   12   13 1
    18   13   14 2
    19   13   21 1
    20   14   15 1
    21   14   19 1
    22   15   16 2
    23   15   17 1
    24   17   18 1
    25   19   20 1
    26   21   22 1
    27   24   25 1
    28    7   27 1
    29    7   28 1
    30   10   29 1
    31   12   30 1
    32   16   31 1
    33   18   32 1
    34   18   33 1
    35   18   34 1
    36   20   35 1
    37   20   36 1
    38   20   37 1
    39   22   38 1
    40   22   39 1
    41   22   40 1
    42   23   41 1
    43   23   42 1
    44   23   43 1
    45   24   44 1
    46   24   45 1
    47   25   46 1
    48   25   47 1
    49   25   48 1
    50   26   49 1
    51   26   50 1
@<TRIPOS>PROPERTY_DATA
  Total_Score	| 9.7484
  Crash		| -1.9965
  Polar		| 3.6720
  FragIndex	| 1
  FragRMSD	| 1.423

