@<TRIPOS>MOLECULE
BindingDB_22427
 62 64 0 0 0
SMALL
NO_CHARGES


@<TRIPOS>ATOM
1    C        20.6893   42.7503   30.9816  C     
2    C        20.4321   41.3527   30.9597  C     
3    C        19.8344   40.7394   29.8441  C     
4    C        19.4431   41.4959   28.7050  C     
5    C        19.6914   42.8925   28.7410  C     
6    C        20.3091   43.5014   29.8462  C     
7    O        21.3045   43.4840   31.9677  O     
8    C        21.0509   43.3539   33.4010  C     
9    C        22.1936   44.0718   34.1846  C     
10   N        23.4577   43.2807   34.4265  N     
11   C        23.7277   42.9499   35.8582  C     
12   C        23.6960   42.1177   33.5098  C     
13   C        18.8328   40.8842   27.5818  C     
14   C        17.6763   40.1424   27.6294  C     
15   C        16.8563   40.1369   28.7770  C     
16   C        15.5918   38.9255   30.5253  C     
17   C        16.4343   38.9256   29.3949  C     
18   C        16.4326   41.3493   29.3714  C     
19   C        15.5977   41.3538   30.5063  C     
20   C        15.1630   40.1440   31.0771  C     
21   C        17.1382   39.3826   26.4622  C     
22   C        19.5603   41.0306   26.3951  C     
23   C        19.0143   41.7281   25.2890  C     
24   C        19.7856   41.9665   24.1332  C     
25   C        21.1244   41.5395   24.0777  C     
26   C        21.6892   40.8647   25.1835  C     
27   C        20.9088   40.5996   26.3280  C     
28   O        21.8521   41.7835   22.9558  O     
29   C        15.9251   40.0266   25.7318  C     
30   N        15.2230   40.9760   26.4577  N     
31   N        15.5729   42.0875   26.5789  N     
32   N        15.9018   43.1969   26.6687  N     
33   H        20.6990   40.7555   31.7448  H     
34   H        19.7132   39.7213   29.8586  H     
35   H        19.4136   43.4848   27.9609  H     
36   H        20.4976   44.5039   29.8235  H     
37   H        20.0803   43.8362   33.6112  H     
38   H        20.9988   42.3062   33.7256  H     
39   H        22.4972   44.9700   33.6267  H     
40   H        21.7855   44.4193   35.1418  H     
41   H        24.2159   43.9222   34.1372  H     
42   H        23.6961   43.8602   36.4620  H     
43   H        24.7243   42.5167   35.9580  H     
44   H        22.9844   42.2405   36.2414  H     
45   H        23.0346   41.2739   33.7461  H     
46   H        24.7309   41.7865   33.5905  H     
47   H        23.5143   42.4201   32.4718  H     
48   H        15.3037   38.0423   30.9514  H     
49   H        16.7343   38.0109   29.0242  H     
50   H        16.7238   42.2471   28.9865  H     
51   H        15.3054   42.2460   30.9168  H     
52   H        14.5549   40.1541   31.8971  H     
53   H        17.9384   39.1927   25.7325  H     
54   H        16.8218   38.3824   26.7655  H     
55   H        18.0682   42.1069   25.3325  H     
56   H        19.3682   42.4679   23.3426  H     
57   H        22.6559   40.5582   25.1540  H     
58   H        21.3434   40.1277   27.1133  H     
59   H        22.6704   42.2128   23.2820  H     
60   H        16.2353   40.4380   24.7628  H     
61   H        15.2092   39.2353   25.5157  H     
62   H        16.5502   43.5442   26.0814  H     
@<TRIPOS>BOND
     1    1    2 2
     2    1    6 1
     3    1    7 1
     4    2    3 1
     5    3    4 2
     6    4    5 1
     7    4   13 1
     8    5    6 2
     9    7    8 1
    10    8    9 1
    11    9   10 1
    12   10   11 1
    13   10   12 1
    14   13   14 2
    15   13   22 1
    16   14   15 1
    17   14   21 1
    18   15   17 2
    19   15   18 1
    20   16   17 1
    21   16   20 2
    22   18   19 2
    23   19   20 1
    24   21   29 1
    25   22   23 1
    26   22   27 2
    27   23   24 2
    28   24   25 1
    29   25   26 2
    30   25   28 1
    31   26   27 1
    32   29   30 1
    33   30   31 2
    34   31   32 2
    35    2   33 1
    36    3   34 1
    37    5   35 1
    38    6   36 1
    39    8   37 1
    40    8   38 1
    41    9   39 1
    42    9   40 1
    43   10   41 1
    44   11   42 1
    45   11   43 1
    46   11   44 1
    47   12   45 1
    48   12   46 1
    49   12   47 1
    50   16   48 1
    51   17   49 1
    52   18   50 1
    53   19   51 1
    54   20   52 1
    55   21   53 1
    56   21   54 1
    57   23   55 1
    58   24   56 1
    59   26   57 1
    60   27   58 1
    61   28   59 1
    62   29   60 1
    63   29   61 1
    64   32   62 1
@<TRIPOS>PROPERTY_DATA
  Total_Score	| 12.1704
  Crash		| -1.8286
  Polar		| 4.5857
  FragIndex	| 1
  FragRMSD	| 0.357

