@<TRIPOS>MOLECULE
BindingDB_20608
 59 61 0 0 0
SMALL
NO_CHARGES


@<TRIPOS>ATOM
1    C        17.4918   40.3332   27.4714  C     
2    C        16.7196   40.3310   28.6484  C     
3    C        16.2778   39.1305   29.2581  C     
4    C        15.4777   39.1569   30.4190  C     
5    C        15.1158   40.3819   31.0014  C     
6    C        15.5395   41.5850   30.4132  C     
7    C        16.3319   41.5590   29.2442  C     
8    C        16.9190   39.6081   26.3111  C     
9    C        15.3965   39.3056   26.3468  C     
10   C        18.7258   40.9304   27.4394  C     
11   C        19.3868   41.4074   28.5848  C     
12   C        19.7058   42.7814   28.7315  C     
13   C        19.7394   40.5233   29.6276  C     
14   C        20.3638   40.9991   30.7909  C     
15   C        20.6465   42.3678   30.9519  C     
16   C        20.3286   43.2602   29.9022  C     
17   O        21.0694   42.7378   32.2009  O     
18   C        21.6489   44.0368   32.4280  C     
19   C        22.1377   44.0639   33.9112  C     
20   N        23.4037   43.3309   34.2439  N     
21   C        23.5671   43.1060   35.7164  C     
22   C        23.6833   42.0621   33.5050  C     
23   C        19.4578   41.1256   26.2680  C     
24   C        19.6970   42.1849   24.0696  C     
25   C        18.9188   41.8816   25.2006  C     
26   C        20.7858   40.6401   26.1490  C     
27   C        21.5745   40.9617   25.0325  C     
28   C        21.0247   41.7252   23.9821  C     
29   O        21.7780   42.0442   22.9016  O     
30   H        16.5323   38.2228   28.8597  H     
31   H        15.1685   38.2793   30.8498  H     
32   H        14.5485   40.4054   31.8481  H     
33   H        15.2839   42.4850   30.8260  H     
34   H        16.6182   42.4557   28.8260  H     
35   H        17.0704   40.1759   25.3881  H     
36   H        17.4747   38.6699   26.1936  H     
37   H        15.1868   38.5234   27.0820  H     
38   H        15.0498   38.9557   25.3676  H     
39   H        14.8400   40.2162   26.6111  H     
40   H        19.4638   43.4498   27.9916  H     
41   H        19.5445   39.5266   29.5555  H     
42   H        20.5866   40.3498   31.5447  H     
43   H        20.5137   44.2612   29.9858  H     
44   H        22.5010   44.2442   31.7637  H     
45   H        20.8879   44.8145   32.2902  H     
46   H        22.3108   45.1220   34.1799  H     
47   H        21.2978   43.7189   34.5410  H     
48   H        24.1636   43.9658   33.9916  H     
49   H        23.4137   44.0362   36.2810  H     
50   H        24.5776   42.7475   35.9469  H     
51   H        22.8443   42.3607   36.0762  H     
52   H        22.8873   41.3188   33.6765  H     
53   H        24.6444   41.6328   33.7930  H     
54   H        23.7427   42.2711   32.4277  H     
55   H        19.2975   42.7415   23.3043  H     
56   H        17.9694   42.2589   25.2566  H     
57   H        21.2092   40.0904   26.9036  H     
58   H        22.5337   40.6155   24.9614  H     
59   H        22.6204   42.3938   23.2731  H     
@<TRIPOS>BOND
     1    1    2 1
     2    1    8 1
     3    1   10 2
     4    2    3 2
     5    2    7 1
     6    3    4 1
     7    4    5 2
     8    5    6 1
     9    6    7 2
    10    8    9 1
    11   10   11 1
    12   10   23 1
    13   11   12 2
    14   11   13 1
    15   12   16 1
    16   13   14 2
    17   14   15 1
    18   15   16 2
    19   15   17 1
    20   17   18 1
    21   18   19 1
    22   19   20 1
    23   20   21 1
    24   20   22 1
    25   23   25 2
    26   23   26 1
    27   24   25 1
    28   24   28 2
    29   26   27 2
    30   27   28 1
    31   28   29 1
    32    3   30 1
    33    4   31 1
    34    5   32 1
    35    6   33 1
    36    7   34 1
    37    8   35 1
    38    8   36 1
    39    9   37 1
    40    9   38 1
    41    9   39 1
    42   12   40 1
    43   13   41 1
    44   14   42 1
    45   16   43 1
    46   18   44 1
    47   18   45 1
    48   19   46 1
    49   19   47 1
    50   20   48 1
    51   21   49 1
    52   21   50 1
    53   21   51 1
    54   22   52 1
    55   22   53 1
    56   22   54 1
    57   24   55 1
    58   25   56 1
    59   26   57 1
    60   27   58 1
    61   29   59 1
@<TRIPOS>PROPERTY_DATA
  Total_Score	| 12.3386
  Crash		| -1.5053
  Polar		| 4.6542
  FragIndex	| 1
  FragRMSD	| 0.265

