@<TRIPOS>MOLECULE
BindingDB_22428
 65 67 0 0 0
SMALL
NO_CHARGES


@<TRIPOS>ATOM
1    C        20.6880   42.5087   31.2515  C     
2    C        20.4850   41.1152   31.1770  C     
3    C        20.0074   40.5336   29.9959  C     
4    C        19.6636   41.3277   28.8748  C     
5    C        19.8855   42.7217   28.9537  C     
6    C        20.3866   43.3082   30.1310  C     
7    O        21.0554   43.1155   32.4336  O     
8    C        22.3648   42.7607   32.9230  C     
9    C        22.7594   43.7190   34.0730  C     
10   N        23.0965   45.1173   33.6509  N     
11   C        22.1212   45.7401   32.7049  C     
12   C        23.3599   46.0016   34.8224  C     
13   C        19.0973   40.7415   27.7193  C     
14   C        17.9818   39.9553   27.7890  C     
15   C        17.1123   40.0324   28.9084  C     
16   C        15.8373   38.9763   30.7358  C     
17   C        16.7025   38.8840   29.6210  C     
18   C        16.5748   41.2868   29.3256  C     
19   C        15.6957   41.3773   30.4266  C     
20   C        15.3263   40.2249   31.1322  C     
21   C        17.7542   38.8753   26.8001  C     
22   C        19.7722   40.9962   26.5125  C     
23   C        19.1207   41.6804   25.4502  C     
24   C        19.8089   41.9915   24.2668  C     
25   C        21.1690   41.6426   24.1273  C     
26   C        21.8201   40.9404   25.1625  C     
27   C        21.1282   40.6249   26.3426  C     
28   O        21.8366   41.9659   22.9897  O     
29   C        16.2898   38.3886   26.6201  C     
30   C        15.3483   39.4302   25.9690  C     
31   N        15.1914   40.5318   26.7946  N     
32   N        15.0387   41.6232   26.4125  N     
33   N        14.8942   42.7102   26.0257  N     
34   H        20.6792   40.5332   31.9943  H     
35   H        19.8942   39.5162   29.9689  H     
36   H        19.6545   43.3323   28.1651  H     
37   H        20.5136   44.3223   30.1749  H     
38   H        22.3581   41.7329   33.2991  H     
39   H        23.1176   42.8224   32.1300  H     
40   H        21.9521   43.7356   34.8140  H     
41   H        23.6370   43.2878   34.5615  H     
42   H        23.9890   45.0449   33.1557  H     
43   H        22.1508   45.2149   31.7482  H     
44   H        22.3768   46.7821   32.5030  H     
45   H        21.0973   45.7037   33.0955  H     
46   H        22.4651   46.1266   35.4354  H     
47   H        23.7008   46.9859   34.4962  H     
48   H        24.1544   45.5801   35.4416  H     
49   H        15.5541   38.1294   31.2447  H     
50   H        17.0900   37.9688   29.4053  H     
51   H        16.7833   42.1428   28.8014  H     
52   H        15.3412   42.2936   30.7170  H     
53   H        14.6812   40.2926   31.9230  H     
54   H        18.1161   39.1282   25.7978  H     
55   H        18.3475   38.0153   27.1244  H     
56   H        18.1398   41.9601   25.5420  H     
57   H        19.3282   42.4750   23.5133  H     
58   H        22.7926   40.6665   25.0580  H     
59   H        21.6222   40.1192   27.0840  H     
60   H        22.6776   42.3838   23.2864  H     
61   H        16.3110   37.4968   25.9749  H     
62   H        15.8936   38.0774   27.5960  H     
63   H        15.7625   39.7374   24.9976  H     
64   H        14.3743   38.9669   25.8080  H     
65   H        14.1012   42.9316   25.5692  H     
@<TRIPOS>BOND
     1    1    2 2
     2    1    6 1
     3    1    7 1
     4    2    3 1
     5    3    4 2
     6    4    5 1
     7    4   13 1
     8    5    6 2
     9    7    8 1
    10    8    9 1
    11    9   10 1
    12   10   11 1
    13   10   12 1
    14   13   14 2
    15   13   22 1
    16   14   15 1
    17   14   21 1
    18   15   17 2
    19   15   18 1
    20   16   17 1
    21   16   20 2
    22   18   19 2
    23   19   20 1
    24   21   29 1
    25   22   23 1
    26   22   27 2
    27   23   24 2
    28   24   25 1
    29   25   26 2
    30   25   28 1
    31   26   27 1
    32   29   30 1
    33   30   31 1
    34   31   32 2
    35   32   33 2
    36    2   34 1
    37    3   35 1
    38    5   36 1
    39    6   37 1
    40    8   38 1
    41    8   39 1
    42    9   40 1
    43    9   41 1
    44   10   42 1
    45   11   43 1
    46   11   44 1
    47   11   45 1
    48   12   46 1
    49   12   47 1
    50   12   48 1
    51   16   49 1
    52   17   50 1
    53   18   51 1
    54   19   52 1
    55   20   53 1
    56   21   54 1
    57   21   55 1
    58   23   56 1
    59   24   57 1
    60   26   58 1
    61   27   59 1
    62   28   60 1
    63   29   61 1
    64   29   62 1
    65   30   63 1
    66   30   64 1
    67   33   65 1
@<TRIPOS>PROPERTY_DATA
  Total_Score	| 12.1210
  Crash		| -2.5700
  Polar		| 4.7559
  FragIndex	| 1
  FragRMSD	| 0.356

