@<TRIPOS>MOLECULE
BindingDB_22426
 63 65 0 0 0
SMALL
NO_CHARGES


@<TRIPOS>ATOM
1    C        20.9182   42.5631   31.2176  C     
2    C        20.7266   41.1639   31.1615  C     
3    C        20.1840   40.5628   30.0071  C     
4    C        19.7524   41.3535   28.9135  C     
5    C        19.9592   42.7580   28.9693  C     
6    C        20.5444   43.3487   30.1078  C     
7    O        21.3421   43.2457   32.3415  O     
8    C        22.4684   42.7412   33.0904  C     
9    C        22.7785   43.7474   34.2136  C     
10   N        23.9099   43.3963   35.1247  N     
11   C        24.0289   44.3678   36.2635  C     
12   C        23.8854   41.9869   35.6256  C     
13   C        19.1521   40.7506   27.7879  C     
14   C        18.0814   39.9075   27.8799  C     
15   C        17.3725   39.7794   29.0854  C     
16   C        15.5743   40.5392   30.5841  C     
17   C        16.3271   40.6798   29.4059  C     
18   C        17.6772   38.7539   30.0233  C     
19   C        16.9275   38.6168   31.2041  C     
20   C        15.8729   39.5020   31.4913  C     
21   C        17.7207   38.9613   26.8049  C     
22   C        19.7819   41.0570   26.5742  C     
23   C        19.1376   41.8579   25.6014  C     
24   C        19.7863   42.1940   24.3987  C     
25   C        21.1024   41.7497   24.1553  C     
26   C        21.7567   40.9498   25.1151  C     
27   C        21.1024   40.6025   26.3109  C     
28   O        21.7234   42.0857   22.9919  O     
29   C        16.2285   38.4933   26.6905  C     
30   C        15.2851   39.4535   25.9087  C     
31   C        15.2543   40.7583   26.3165  C     
32   N        15.2263   41.8688   26.6227  N     
33   H        20.9533   40.5640   31.9565  H     
34   H        20.0877   39.5436   29.9899  H     
35   H        19.6658   43.3633   28.2025  H     
36   H        20.6775   44.3635   30.1350  H     
37   H        22.1981   41.7821   33.5476  H     
38   H        23.3462   42.6027   32.4434  H     
39   H        23.0093   44.7064   33.7300  H     
40   H        21.8640   43.9023   34.7929  H     
41   H        24.7720   43.4995   34.5854  H     
42   H        24.0633   45.4002   35.8903  H     
43   H        24.9540   44.1927   36.8103  H     
44   H        23.1857   44.2753   36.9525  H     
45   H        22.9236   41.7554   36.0928  H     
46   H        24.6831   41.8110   36.3503  H     
47   H        24.0530   41.2948   34.7953  H     
48   H        14.8028   41.1831   30.7915  H     
49   H        16.0917   41.4489   28.7701  H     
50   H        18.4256   38.0869   29.8330  H     
51   H        17.1492   37.8671   31.8666  H     
52   H        15.3378   39.4109   32.3508  H     
53   H        17.9923   39.3503   25.8180  H     
54   H        18.3523   38.0728   26.9396  H     
55   H        18.1957   42.2192   25.7711  H     
56   H        19.3075   42.7806   23.7068  H     
57   H        22.7132   40.6215   24.9448  H     
58   H        21.6029   40.0206   26.9946  H     
59   H        22.6108   42.4063   23.2666  H     
60   H        16.2285   37.5348   26.1552  H     
61   H        15.7925   38.3001   27.6797  H     
62   H        15.5777   39.4657   24.8469  H     
63   H        14.2686   39.0576   25.9635  H     
@<TRIPOS>BOND
     1    1    2 2
     2    1    6 1
     3    1    7 1
     4    2    3 1
     5    3    4 2
     6    4    5 1
     7    4   13 1
     8    5    6 2
     9    7    8 1
    10    8    9 1
    11    9   10 1
    12   10   11 1
    13   10   12 1
    14   13   14 2
    15   13   22 1
    16   14   15 1
    17   14   21 1
    18   15   17 2
    19   15   18 1
    20   16   17 1
    21   16   20 2
    22   18   19 2
    23   19   20 1
    24   21   29 1
    25   22   23 1
    26   22   27 2
    27   23   24 2
    28   24   25 1
    29   25   26 2
    30   25   28 1
    31   26   27 1
    32   29   30 1
    33   30   31 1
    34   31   32 3
    35    2   33 1
    36    3   34 1
    37    5   35 1
    38    6   36 1
    39    8   37 1
    40    8   38 1
    41    9   39 1
    42    9   40 1
    43   10   41 1
    44   11   42 1
    45   11   43 1
    46   11   44 1
    47   12   45 1
    48   12   46 1
    49   12   47 1
    50   16   48 1
    51   17   49 1
    52   18   50 1
    53   19   51 1
    54   20   52 1
    55   21   53 1
    56   21   54 1
    57   23   55 1
    58   24   56 1
    59   26   57 1
    60   27   58 1
    61   28   59 1
    62   29   60 1
    63   29   61 1
    64   30   62 1
    65   30   63 1
@<TRIPOS>PROPERTY_DATA
  Total_Score	| 10.3857
  Crash		| -2.3462
  Polar		| 5.4541
  FragIndex	| 1
  FragRMSD	| 0.629

