@<TRIPOS>MOLECULE
BindingDB_22424
 62 64 0 0 0
SMALL
NO_CHARGES


@<TRIPOS>ATOM
1    C        20.4736   42.4114   31.2601  C     
2    C        20.2395   43.2497   30.1447  C     
3    C        19.8109   42.7134   28.9214  C     
4    C        19.5989   41.3256   28.7757  C     
5    C        19.9415   40.4751   29.8573  C     
6    C        20.3705   41.0158   31.0895  C     
7    O        20.6019   42.8696   32.5498  O     
8    C        21.1279   44.1736   32.8648  C     
9    C        22.6752   44.2009   33.0170  C     
10   N        23.2795   43.5168   34.2110  N     
11   C        22.8375   44.0622   35.5355  C     
12   C        23.2113   42.0261   34.1659  C     
13   C        18.9561   40.8272   27.6217  C     
14   C        17.7494   40.1852   27.6597  C     
15   C        17.0005   40.1015   28.8621  C     
16   C        15.9894   38.7589   30.6695  C     
17   C        16.7434   38.8485   29.4811  C     
18   C        16.4950   41.2686   29.4979  C     
19   C        15.7308   41.1785   30.6823  C     
20   C        15.4680   39.9214   31.2646  C     
21   C        17.1610   39.5047   26.4790  C     
22   C        19.6631   41.0490   26.4282  C     
23   C        19.0735   41.7668   25.3596  C     
24   C        19.7979   42.0543   24.1903  C     
25   C        21.1386   41.6447   24.0775  C     
26   C        21.7511   40.9540   25.1414  C     
27   C        21.0178   40.6559   26.3071  C     
28   O        21.8268   41.9418   22.9473  O     
29   C        15.9269   40.1786   25.7902  C     
30   C        15.1811   41.3113   26.5616  C     
31   Cl       15.9730   42.8809   26.3611  Cl    
32   H        20.2999   44.2633   30.2129  H     
33   H        19.5773   43.3563   28.1581  H     
34   H        19.8183   39.4555   29.7760  H     
35   H        20.5211   40.3859   31.8804  H     
36   H        20.8250   44.9321   32.1417  H     
37   H        20.6749   44.4804   33.8086  H     
38   H        23.1320   43.8050   32.0994  H     
39   H        22.9711   45.2530   33.0662  H     
40   H        24.2796   43.7411   34.1419  H     
41   H        22.9042   45.1522   35.5400  H     
42   H        23.5059   43.6830   36.3159  H     
43   H        21.8110   43.7636   35.7724  H     
44   H        22.1766   41.6512   34.1593  H     
45   H        23.7381   41.5879   35.0209  H     
46   H        23.7141   41.6606   33.2633  H     
47   H        15.8184   37.8436   31.0969  H     
48   H        17.1198   37.9822   29.0804  H     
49   H        16.6601   42.1913   29.0981  H     
50   H        15.3680   42.0242   31.1182  H     
51   H        14.9245   39.8567   32.1305  H     
52   H        17.9323   39.3364   25.7234  H     
53   H        16.8595   38.4941   26.7515  H     
54   H        18.1143   42.1111   25.4362  H     
55   H        19.3593   42.5768   23.4310  H     
56   H        22.7270   40.6508   25.0668  H     
57   H        21.4850   40.1584   27.0731  H     
58   H        22.6595   42.3516   23.2407  H     
59   H        16.2210   40.5513   24.8090  H     
60   H        15.1945   39.3849   25.6018  H     
61   H        14.1603   41.4204   26.1815  H     
62   H        15.1044   41.0660   27.6217  H     
@<TRIPOS>BOND
     1    1    2 2
     2    1    6 1
     3    1    7 1
     4    2    3 1
     5    3    4 2
     6    4    5 1
     7    4   13 1
     8    5    6 2
     9    7    8 1
    10    8    9 1
    11    9   10 1
    12   10   11 1
    13   10   12 1
    14   13   14 2
    15   13   22 1
    16   14   15 1
    17   14   21 1
    18   15   17 2
    19   15   18 1
    20   16   17 1
    21   16   20 2
    22   18   19 2
    23   19   20 1
    24   21   29 1
    25   22   23 1
    26   22   27 2
    27   23   24 2
    28   24   25 1
    29   25   26 2
    30   25   28 1
    31   26   27 1
    32   29   30 1
    33   30   31 1
    34    2   32 1
    35    3   33 1
    36    5   34 1
    37    6   35 1
    38    8   36 1
    39    8   37 1
    40    9   38 1
    41    9   39 1
    42   10   40 1
    43   11   41 1
    44   11   42 1
    45   11   43 1
    46   12   44 1
    47   12   45 1
    48   12   46 1
    49   16   47 1
    50   17   48 1
    51   18   49 1
    52   19   50 1
    53   20   51 1
    54   21   52 1
    55   21   53 1
    56   23   54 1
    57   24   55 1
    58   26   56 1
    59   27   57 1
    60   28   58 1
    61   29   59 1
    62   29   60 1
    63   30   61 1
    64   30   62 1
@<TRIPOS>PROPERTY_DATA
  Total_Score	| 10.3994
  Crash		| -2.9035
  Polar		| 4.6853
  FragIndex	| 1
  FragRMSD	| 0.213

