@<TRIPOS>MOLECULE
BindingDB_22435
 63 65 0 0 0
SMALL
NO_CHARGES


@<TRIPOS>ATOM
1    C        20.8403   42.6447   30.9827  C     
2    C        20.4620   43.4412   29.8842  C     
3    C        19.8507   42.8531   28.7590  C     
4    C        19.6018   41.4613   28.7136  C     
5    C        19.9943   40.6714   29.8206  C     
6    C        20.6052   41.2595   30.9431  C     
7    O        21.2661   43.2016   32.1544  O     
8    C        22.3808   44.1016   32.0922  C     
9    C        22.6893   44.5823   33.5318  C     
10   N        23.3886   43.5999   34.4257  N     
11   C        23.2704   43.9711   35.8601  C     
12   C        23.0208   42.1724   34.1818  C     
13   C        19.0167   40.8649   27.5869  C     
14   C        17.8898   40.0910   27.6500  C     
15   C        17.1214   40.0435   28.8171  C     
16   C        16.3382   38.8462   30.8075  C     
17   C        17.1119   38.8865   29.6319  C     
18   C        16.3854   41.1811   29.2374  C     
19   C        15.6066   41.1332   30.4078  C     
20   C        15.5929   39.9721   31.1987  C     
21   C        17.4744   39.2376   26.5136  C     
22   C        19.7055   41.0927   26.3935  C     
23   C        21.0552   40.6905   26.2519  C     
24   C        21.7823   41.0116   25.0889  C     
25   C        21.1705   41.7397   24.0502  C     
26   C        19.8220   42.1264   24.1699  C     
27   C        19.0993   41.8165   25.3388  C     
28   O        21.8672   42.0702   22.9353  O     
29   C        16.2319   38.3153   26.6414  C     
30   C        14.9166   38.9384   26.1172  C     
31   O        13.8123   38.0813   26.3675  O     
32   H        20.6013   44.4539   29.9071  H     
33   H        19.5706   43.4558   27.9780  H     
34   H        19.8392   39.6586   29.8202  H     
35   H        20.8536   40.6737   31.7444  H     
36   H        23.2693   43.6196   31.6752  H     
37   H        22.1307   44.9684   31.4629  H     
38   H        23.3282   45.4696   33.4606  H     
39   H        21.7448   44.9034   33.9971  H     
40   H        24.3831   43.6746   34.1925  H     
41   H        23.5076   45.0275   36.0111  H     
42   H        23.9797   43.3951   36.4598  H     
43   H        22.2605   43.7862   36.2380  H     
44   H        21.9487   42.0046   34.3084  H     
45   H        23.5715   41.5116   34.8584  H     
46   H        23.3077   41.8768   33.1740  H     
47   H        16.3253   37.9994   31.3826  H     
48   H        17.6507   38.0605   29.3664  H     
49   H        16.3899   42.0344   28.6769  H     
50   H        15.0595   41.9494   30.6884  H     
51   H        15.0331   39.9425   32.0582  H     
52   H        17.2804   39.8814   25.6460  H     
53   H        18.3267   38.5996   26.2561  H     
54   H        21.5212   40.1655   26.9963  H     
55   H        22.7566   40.7220   25.0059  H     
56   H        19.3734   42.6540   23.4187  H     
57   H        18.1301   42.1371   25.4164  H     
58   H        22.7142   42.4554   23.2671  H     
59   H        16.4148   37.3918   26.0743  H     
60   H        16.0963   38.0153   27.6825  H     
61   H        14.7329   39.8958   26.6012  H     
62   H        14.9861   39.1072   25.0405  H     
63   H        13.6611   37.6037   25.5253  H     
@<TRIPOS>BOND
     1    1    2 2
     2    1    6 1
     3    1    7 1
     4    2    3 1
     5    3    4 2
     6    4    5 1
     7    4   13 1
     8    5    6 2
     9    7    8 1
    10    8    9 1
    11    9   10 1
    12   10   11 1
    13   10   12 1
    14   13   14 2
    15   13   22 1
    16   14   15 1
    17   14   21 1
    18   15   17 2
    19   15   18 1
    20   16   17 1
    21   16   20 2
    22   18   19 2
    23   19   20 1
    24   21   29 1
    25   22   23 1
    26   22   27 2
    27   23   24 2
    28   24   25 1
    29   25   26 2
    30   25   28 1
    31   26   27 1
    32   29   30 1
    33   30   31 1
    34    2   32 1
    35    3   33 1
    36    5   34 1
    37    6   35 1
    38    8   36 1
    39    8   37 1
    40    9   38 1
    41    9   39 1
    42   10   40 1
    43   11   41 1
    44   11   42 1
    45   11   43 1
    46   12   44 1
    47   12   45 1
    48   12   46 1
    49   16   47 1
    50   17   48 1
    51   18   49 1
    52   19   50 1
    53   20   51 1
    54   21   52 1
    55   21   53 1
    56   23   54 1
    57   24   55 1
    58   26   56 1
    59   27   57 1
    60   28   58 1
    61   29   59 1
    62   29   60 1
    63   30   61 1
    64   30   62 1
    65   31   63 1
@<TRIPOS>PROPERTY_DATA
  Total_Score	| 11.6722
  Crash		| -2.5512
  Polar		| 5.3443
  FragIndex	| 1
  FragRMSD	| 0.522

