@<TRIPOS>MOLECULE
BindingDB_22425
 60 62 0 0 0
SMALL
NO_CHARGES


@<TRIPOS>ATOM
1    C        20.6538   42.7248   30.8126  C     
2    C        20.2600   43.4676   29.6793  C     
3    C        19.6006   42.8330   28.6046  C     
4    C        19.3782   41.4346   28.6181  C     
5    C        19.8528   40.6880   29.7171  C     
6    C        20.4556   41.3245   30.8139  C     
7    O        21.0840   43.2657   32.0145  O     
8    C        21.5826   44.6163   32.1332  C     
9    C        23.0262   44.6189   32.7016  C     
10   N        23.2897   43.8405   33.9500  N     
11   C        22.5897   44.3287   35.1726  C     
12   C        23.1217   42.3629   33.8129  C     
13   C        18.7756   40.7873   27.5241  C     
14   C        17.6258   40.0571   27.6488  C     
15   C        16.7987   40.1658   28.7855  C     
16   C        15.5704   41.5866   30.3757  C     
17   C        16.3899   41.4435   29.2506  C     
18   C        16.2913   39.0215   29.4767  C     
19   C        15.4605   39.1662   30.6041  C     
20   C        15.1103   40.4468   31.0677  C     
21   C        17.1070   39.1727   26.5801  C     
22   C        19.4632   40.9521   26.3098  C     
23   C        18.8817   41.7162   25.2789  C     
24   C        19.6377   42.0860   24.1463  C     
25   C        20.9895   41.6946   24.0410  C     
26   C        21.5610   40.8813   25.0412  C     
27   C        20.8002   40.5131   26.1717  C     
28   O        21.7226   42.0738   22.9688  O     
29   C        15.7545   39.6634   25.9538  C     
30   C        14.7435   38.7460   25.9998  C     
31   N        13.8882   37.9762   26.0387  N     
32   H        20.4161   44.4663   29.6215  H     
33   H        19.2560   43.4131   27.8406  H     
34   H        19.7452   39.6694   29.7247  H     
35   H        20.7296   40.7625   31.6168  H     
36   H        21.5589   45.1695   31.1820  H     
37   H        20.9342   45.1733   32.8234  H     
38   H        23.6928   44.2787   31.9047  H     
39   H        23.2960   45.6511   32.9035  H     
40   H        24.2825   43.9797   34.1078  H     
41   H        22.6943   45.4089   35.2875  H     
42   H        23.0052   43.8654   36.0709  H     
43   H        21.5214   44.0906   35.1381  H     
44   H        22.0717   42.1072   33.6476  H     
45   H        23.4674   41.8525   34.7152  H     
46   H        23.7127   41.9849   32.9791  H     
47   H        15.3059   42.5210   30.6956  H     
48   H        16.6865   42.2849   28.7482  H     
49   H        16.5307   38.0774   29.1805  H     
50   H        15.1133   38.3381   31.1033  H     
51   H        14.5241   40.5571   31.8974  H     
52   H        17.8273   39.0693   25.7661  H     
53   H        17.0155   38.1584   26.9722  H     
54   H        17.9121   42.0373   25.3375  H     
55   H        19.2152   42.6470   23.4105  H     
56   H        22.5254   40.5567   24.9614  H     
57   H        21.2368   39.9351   26.8929  H     
58   H        22.6099   42.3284   23.3150  H     
59   H        15.3880   40.5655   26.4546  H     
60   H        15.9117   39.9291   24.9036  H     
@<TRIPOS>BOND
     1    1    2 2
     2    1    6 1
     3    1    7 1
     4    2    3 1
     5    3    4 2
     6    4    5 1
     7    4   13 1
     8    5    6 2
     9    7    8 1
    10    8    9 1
    11    9   10 1
    12   10   11 1
    13   10   12 1
    14   13   14 2
    15   13   22 1
    16   14   15 1
    17   14   21 1
    18   15   17 2
    19   15   18 1
    20   16   17 1
    21   16   20 2
    22   18   19 2
    23   19   20 1
    24   21   29 1
    25   22   23 1
    26   22   27 2
    27   23   24 2
    28   24   25 1
    29   25   26 2
    30   25   28 1
    31   26   27 1
    32   29   30 1
    33   30   31 3
    34    2   32 1
    35    3   33 1
    36    5   34 1
    37    6   35 1
    38    8   36 1
    39    8   37 1
    40    9   38 1
    41    9   39 1
    42   10   40 1
    43   11   41 1
    44   11   42 1
    45   11   43 1
    46   12   44 1
    47   12   45 1
    48   12   46 1
    49   16   47 1
    50   17   48 1
    51   18   49 1
    52   19   50 1
    53   20   51 1
    54   21   52 1
    55   21   53 1
    56   23   54 1
    57   24   55 1
    58   26   56 1
    59   27   57 1
    60   28   58 1
    61   29   59 1
    62   29   60 1
@<TRIPOS>PROPERTY_DATA
  Total_Score	| 12.3302
  Crash		| -2.0508
  Polar		| 4.1181
  FragIndex	| 1
  FragRMSD	| 0.253

