@<TRIPOS>MOLECULE
BindingDB_22434
 60 62 0 0 0
SMALL
NO_CHARGES


@<TRIPOS>ATOM
1    C        20.6318   42.3785   31.0841  C     
2    C        20.3130   43.2249   30.0018  C     
3    C        19.7214   42.6918   28.8377  C     
4    C        19.4280   41.3081   28.7347  C     
5    C        19.7793   40.4678   29.8173  C     
6    C        20.3776   40.9990   30.9743  C     
7    O        21.0732   42.7970   32.3119  O     
8    C        21.7287   44.0667   32.4637  C     
9    C        22.2049   44.1519   33.9411  C     
10   N        23.4439   43.3787   34.2809  N     
11   C        23.5786   43.1783   35.7575  C     
12   C        23.6396   42.1032   33.5274  C     
13   C        18.8162   40.7661   27.5888  C     
14   C        17.6368   40.0687   27.6432  C     
15   C        16.8276   40.0888   28.8003  C     
16   C        15.6206   41.3625   30.5191  C     
17   C        16.4270   41.3241   29.3673  C     
18   C        16.3799   38.8909   29.4155  C     
19   C        15.5654   38.9311   30.5631  C     
20   C        15.1858   40.1662   31.1161  C     
21   C        17.0806   39.3385   26.4867  C     
22   C        19.5312   40.9988   26.4003  C     
23   C        20.8853   40.5926   26.2854  C     
24   C        21.6336   40.9063   25.1364  C     
25   C        21.0463   41.6275   24.0811  C     
26   C        19.6975   42.0157   24.1740  C     
27   C        18.9498   41.7162   25.3278  C     
28   O        21.7663   41.9434   22.9754  O     
29   C        15.8158   40.0072   25.8729  C     
30   O        14.6625   39.1773   25.9787  O     
31   H        20.4835   44.2298   30.0676  H     
32   H        19.4773   43.3271   28.0724  H     
33   H        19.6030   39.4579   29.7795  H     
34   H        20.6027   40.3747   31.7543  H     
35   H        22.5857   44.1538   31.7909  H     
36   H        21.0125   44.8706   32.2516  H     
37   H        22.4041   45.2112   34.1546  H     
38   H        21.3675   43.8443   34.5889  H     
39   H        24.2297   43.9773   34.0158  H     
40   H        23.4689   44.1305   36.2963  H     
41   H        24.5731   42.7814   36.0014  H     
42   H        22.8211   42.4759   36.1306  H     
43   H        22.7888   41.4241   33.6777  H     
44   H        24.5642   41.6134   33.8507  H     
45   H        23.7483   42.3255   32.4635  H     
46   H        15.3561   42.2617   30.9219  H     
47   H        16.7179   42.2109   28.9455  H     
48   H        16.6575   37.9783   29.0456  H     
49   H        15.2581   38.0620   31.0029  H     
50   H        14.5996   40.1962   31.9526  H     
51   H        17.8275   39.2206   25.7031  H     
52   H        16.8414   38.3136   26.7763  H     
53   H        21.3386   40.0717   27.0413  H     
54   H        22.6129   40.6175   25.0781  H     
55   H        19.2625   42.5421   23.4149  H     
56   H        17.9855   42.0461   25.3923  H     
57   H        22.6104   42.3195   23.3047  H     
58   H        15.5845   40.9552   26.3615  H     
59   H        15.9798   40.2195   24.8175  H     
60   H        14.7321   38.5194   25.2535  H     
@<TRIPOS>BOND
     1    1    2 2
     2    1    6 1
     3    1    7 1
     4    2    3 1
     5    3    4 2
     6    4    5 1
     7    4   13 1
     8    5    6 2
     9    7    8 1
    10    8    9 1
    11    9   10 1
    12   10   11 1
    13   10   12 1
    14   13   14 2
    15   13   22 1
    16   14   15 1
    17   14   21 1
    18   15   17 2
    19   15   18 1
    20   16   17 1
    21   16   20 2
    22   18   19 2
    23   19   20 1
    24   21   29 1
    25   22   23 1
    26   22   27 2
    27   23   24 2
    28   24   25 1
    29   25   26 2
    30   25   28 1
    31   26   27 1
    32   29   30 1
    33    2   31 1
    34    3   32 1
    35    5   33 1
    36    6   34 1
    37    8   35 1
    38    8   36 1
    39    9   37 1
    40    9   38 1
    41   10   39 1
    42   11   40 1
    43   11   41 1
    44   11   42 1
    45   12   43 1
    46   12   44 1
    47   12   45 1
    48   16   46 1
    49   17   47 1
    50   18   48 1
    51   19   49 1
    52   20   50 1
    53   21   51 1
    54   21   52 1
    55   23   53 1
    56   24   54 1
    57   26   55 1
    58   27   56 1
    59   28   57 1
    60   29   58 1
    61   29   59 1
    62   30   60 1
@<TRIPOS>PROPERTY_DATA
  Total_Score	| 12.6488
  Crash		| -1.3974
  Polar		| 5.6239
  FragIndex	| 1
  FragRMSD	| 0.152

