@<TRIPOS>MOLECULE
BindingDB_22423
 59 61 0 0 0
SMALL
NO_CHARGES


@<TRIPOS>ATOM
1    C        20.5840   42.3658   31.2055  C     
2    C        20.3686   40.9860   31.0250  C     
3    C        19.8392   40.4855   29.8224  C     
4    C        19.4979   41.3579   28.7623  C     
5    C        19.7522   42.7384   28.9307  C     
6    C        20.2819   43.2377   30.1339  C     
7    O        21.0092   42.7448   32.4569  O     
8    C        21.5799   44.0436   32.6912  C     
9    C        22.1916   44.1045   34.1138  C     
10   N        23.4776   43.3497   34.2898  N     
11   C        23.7719   43.0782   35.7268  C     
12   C        23.5855   42.1000   33.4789  C     
13   C        18.8826   40.8753   27.5906  C     
14   C        17.6798   40.2234   27.6177  C     
15   C        16.8649   40.2371   28.7684  C     
16   C        15.6299   41.5158   30.4644  C     
17   C        16.4787   41.4729   29.3455  C     
18   C        16.3587   39.0434   29.3424  C     
19   C        15.4993   39.0867   30.4566  C     
20   C        15.1357   40.3229   31.0181  C     
21   C        17.1084   39.5135   26.4504  C     
22   C        19.6085   41.1060   26.4106  C     
23   C        19.0571   41.8874   25.3652  C     
24   C        19.7928   42.1530   24.1953  C     
25   C        21.1054   41.6663   24.0604  C     
26   C        21.6745   40.9035   25.0998  C     
27   C        20.9331   40.6252   26.2633  C     
28   O        21.8074   41.9351   22.9295  O     
29   C        15.9523   40.2448   25.7096  C     
30   Cl       15.5581   41.8276   26.3818  Cl    
31   H        20.5763   40.3344   31.7848  H     
32   H        19.6865   39.4769   29.7331  H     
33   H        19.5137   43.4016   28.1904  H     
34   H        20.4214   44.2450   30.2232  H     
35   H        22.3532   44.2665   31.9492  H     
36   H        20.7923   44.7985   32.6197  H     
37   H        22.3847   45.1638   34.3195  H     
38   H        21.4455   43.7609   34.8420  H     
39   H        24.2222   43.9694   33.9656  H     
40   H        23.7732   44.0069   36.3015  H     
41   H        24.7624   42.6318   35.8419  H     
42   H        23.0317   42.4011   36.1622  H     
43   H        22.7663   41.4075   33.6969  H     
44   H        24.5350   41.5953   33.6790  H     
45   H        23.5778   42.3351   32.4143  H     
46   H        15.3704   42.4171   30.8677  H     
47   H        16.7980   42.3569   28.9400  H     
48   H        16.6167   38.1306   28.9594  H     
49   H        15.1408   38.2176   30.8630  H     
50   H        14.5137   40.3545   31.8304  H     
51   H        17.8604   39.2801   25.7009  H     
52   H        16.7327   38.5435   26.7844  H     
53   H        18.1219   42.2894   25.4556  H     
54   H        19.3744   42.7157   23.4490  H     
55   H        22.6305   40.5515   25.0135  H     
56   H        21.3662   40.0666   27.0037  H     
57   H        22.6371   42.3657   23.2293  H     
58   H        16.2257   40.3795   24.6612  H     
59   H        15.0492   39.6345   25.7383  H     
@<TRIPOS>BOND
     1    1    2 2
     2    1    6 1
     3    1    7 1
     4    2    3 1
     5    3    4 2
     6    4    5 1
     7    4   13 1
     8    5    6 2
     9    7    8 1
    10    8    9 1
    11    9   10 1
    12   10   11 1
    13   10   12 1
    14   13   14 2
    15   13   22 1
    16   14   15 1
    17   14   21 1
    18   15   17 2
    19   15   18 1
    20   16   17 1
    21   16   20 2
    22   18   19 2
    23   19   20 1
    24   21   29 1
    25   22   23 1
    26   22   27 2
    27   23   24 2
    28   24   25 1
    29   25   26 2
    30   25   28 1
    31   26   27 1
    32   29   30 1
    33    2   31 1
    34    3   32 1
    35    5   33 1
    36    6   34 1
    37    8   35 1
    38    8   36 1
    39    9   37 1
    40    9   38 1
    41   10   39 1
    42   11   40 1
    43   11   41 1
    44   11   42 1
    45   12   43 1
    46   12   44 1
    47   12   45 1
    48   16   46 1
    49   17   47 1
    50   18   48 1
    51   19   49 1
    52   20   50 1
    53   21   51 1
    54   21   52 1
    55   23   53 1
    56   24   54 1
    57   26   55 1
    58   27   56 1
    59   28   57 1
    60   29   58 1
    61   29   59 1
@<TRIPOS>PROPERTY_DATA
  Total_Score	| 11.5064
  Crash		| -1.6557
  Polar		| 4.6001
  FragIndex	| 1
  FragRMSD	| 0.103

