@<TRIPOS>MOLECULE
BindingDB_50316309
 50 53 0 0 0
SMALL
NO_CHARGES


@<TRIPOS>ATOM
1    N        17.9439    2.4028   16.4429  N     
2    C        19.2239    2.0778   16.6948  C     
3    N        19.0768    4.2875   16.8275  N     
4    C        19.9385    3.2540   16.9393  C     
5    C        16.8735    1.4905   16.1186  C     
6    N        19.8473    0.8613   16.6970  N     
7    C        17.8788    3.7501   16.5163  C     
8    C        21.2968    3.1415   17.2145  C     
9    N        21.8788    1.9430   17.2066  N     
10   C        16.1439    0.8546   17.3356  C     
11   C        21.1826    0.8011   16.9488  C     
12   O        15.8598    2.1346   15.3279  O     
13   P        12.3835    4.5317   16.9390  P     
14   C        14.7777    2.4763   16.2019  C     
15   C        14.6650    1.2394   17.1108  C     
16   C        19.3127    5.7016   16.9352  C     
17   C        18.7215    6.2538   18.1900  C     
18   C        13.5047    2.8702   15.3911  C     
19   O        13.1032    4.2500   15.5868  O     
20   O        21.9784    4.1147   17.4849  O     
21   O        12.2088    5.9979   17.3693  O     
22   O        11.6060    5.3200   15.8698  O     
23   O        13.6634    5.1396   17.1938  O     
24   C        17.3981    6.7752   18.2703  C     
25   N        21.8241   -0.3771   16.9399  N     
26   O        16.6424    1.3341   18.5857  O     
27   O        13.9350    1.5042   18.3096  O     
28   Cl       16.3604    6.9083   16.9332  Cl    
29   C        19.5092    6.2307   19.3695  C     
30   C        16.8970    7.2435   19.5033  C     
31   C        19.0128    6.7323   20.5852  C     
32   C        17.7023    7.2283   20.6562  C     
33   H        17.2809    0.6931   15.4913  H     
34   H        17.0452    4.3027   16.3219  H     
35   H        22.8290    1.8802   17.3908  H     
36   H        16.2561   -0.2343   17.3256  H     
37   H        15.0810    3.3288   16.8144  H     
38   H        14.1597    0.4324   16.5723  H     
39   H        20.3822    5.9256   16.8994  H     
40   H        18.9002    6.1995   16.0558  H     
41   H        13.7343    2.7901   14.3269  H     
42   H        12.6818    2.1692   15.5696  H     
43   H        21.3383   -1.1961   16.7521  H     
44   H        22.7816   -0.4065   17.1008  H     
45   H        16.1988    0.7910   19.2690  H     
46   H        14.4279    2.2184   18.7616  H     
47   H        20.4664    5.8671   19.3484  H     
48   H        15.9434    7.6076   19.5707  H     
49   H        19.6064    6.7323   21.4198  H     
50   H        17.3383    7.5864   21.5426  H     
@<TRIPOS>BOND
     1    1    2 1
     2    5    1 1
     3    1    7 1
     4    2    4 2
     5    2    6 1
     6    3    7 2
     7    3   16 1
     8    3    4 1
     9    4    8 1
    10    5   10 1
    11    5   12 1
    12    6   11 2
    13    8    9 1
    14    8   20 2
    15    9   11 1
    16   10   15 1
    17   10   26 1
    18   11   25 1
    19   12   14 1
    20   13   19 1
    21   13   21 1
    22   13   22 1
    23   13   23 2
    24   14   18 1
    25   14   15 1
    26   15   27 1
    27   16   17 1
    28   17   24 1
    29   17   29 2
    30   18   19 1
    31   24   28 1
    32   24   30 2
    33   29   31 1
    34   30   32 1
    35   31   32 2
    36    5   33 1
    37    7   34 1
    38    9   35 1
    39   10   36 1
    40   14   37 1
    41   15   38 1
    42   16   39 1
    43   16   40 1
    44   18   41 1
    45   18   42 1
    46   25   43 1
    47   25   44 1
    48   26   45 1
    49   27   46 1
    50   29   47 1
    51   30   48 1
    52   31   49 1
    53   32   50 1
@<TRIPOS>PROPERTY_DATA
  Total_Score	| 11.0169
  Crash		| -0.8508
  Polar		| 8.0666
  FragIndex	| 1
  FragRMSD	| 0.845

