@<TRIPOS>MOLECULE
BindingDB_50316308
 50 53 0 0 0
SMALL
NO_CHARGES


@<TRIPOS>ATOM
1    N        17.9124    2.7213   16.5642  N     
2    C        19.1762    2.2512   16.6574  C     
3    N        19.2661    4.4635   16.8755  N     
4    C        20.0198    3.3441   16.8977  C     
5    C        16.6329    2.0557   16.5472  C     
6    N        19.6903    0.9883   16.6257  N     
7    C        18.0069    4.0664   16.6128  C     
8    C        21.3595    3.0961   17.1790  C     
9    N        21.8300    1.8509   17.1262  N     
10   C        16.6378    0.5137   16.5626  C     
11   C        21.0225    0.7917   16.8362  C     
12   O        15.8079    2.4533   15.4528  O     
13   P        12.3560    4.2285   16.8063  P     
14   C        14.7169    1.5141   15.3999  C     
15   C        15.3521    0.1553   15.7816  C     
16   C        19.6277    5.8200   17.1756  C     
17   C        13.4805    1.9943   16.2286  C     
18   O        13.6407    3.3446   16.7249  O     
19   O        22.1240    3.9882   17.5097  O     
20   O        11.1711    3.4682   17.4260  O     
21   O        12.6529    5.4449   17.6999  O     
22   O        11.9529    4.7825   15.5370  O     
23   N        21.5371   -0.4444   16.7812  N     
24   C        18.9006    6.2941   18.3892  C     
25   O        16.6295   -0.0091   17.8953  O     
26   O        14.4690   -0.7341   16.4780  O     
27   C        17.5062    6.5316   18.3496  C     
28   C        16.8029    6.9039   19.5131  C     
29   Cl       15.1158    7.0070   19.4747  Cl    
30   C        18.8915    6.9425   20.7580  C     
31   C        19.5824    6.4852   19.6160  C     
32   C        17.4983    7.1301   20.7180  C     
33   H        16.1001    2.3688   17.4522  H     
34   H        17.2083    4.7059   16.5546  H     
35   H        22.7733    1.6943   17.3113  H     
36   H        17.5125    0.1028   16.0470  H     
37   H        14.3895    1.4603   14.3537  H     
38   H        15.6489   -0.3716   14.8652  H     
39   H        20.7091    5.8995   17.3048  H     
40   H        19.3818    6.4737   16.3307  H     
41   H        12.6072    1.9219   15.5797  H     
42   H        13.3474    1.3046   17.0715  H     
43   H        20.9611   -1.1991   16.5671  H     
44   H        22.4873   -0.5754   16.9432  H     
45   H        17.4607    0.3137   18.3106  H     
46   H        14.6241   -0.5640   17.4350  H     
47   H        16.9940    6.4256   17.4716  H     
48   H        19.3958    7.0950   21.6341  H     
49   H        20.5857    6.2960   19.6816  H     
50   H        17.0006    7.4065   21.5650  H     
@<TRIPOS>BOND
     1    1    2 1
     2    5    1 1
     3    1    7 1
     4    2    4 2
     5    2    6 1
     6    3    7 2
     7    3   16 1
     8    3    4 1
     9    4    8 1
    10    5   10 1
    11    5   12 1
    12    6   11 2
    13    8    9 1
    14    8   19 2
    15    9   11 1
    16   10   15 1
    17   10   25 1
    18   11   23 1
    19   12   14 1
    20   13   18 1
    21   13   20 1
    22   13   21 1
    23   13   22 2
    24   14   17 1
    25   14   15 1
    26   15   26 1
    27   16   24 1
    28   17   18 1
    29   24   27 1
    30   24   31 2
    31   27   28 2
    32   28   29 1
    33   28   32 1
    34   30   31 1
    35   30   32 2
    36    5   33 1
    37    7   34 1
    38    9   35 1
    39   10   36 1
    40   14   37 1
    41   15   38 1
    42   16   39 1
    43   16   40 1
    44   17   41 1
    45   17   42 1
    46   23   43 1
    47   23   44 1
    48   25   45 1
    49   26   46 1
    50   27   47 1
    51   30   48 1
    52   31   49 1
    53   32   50 1
@<TRIPOS>PROPERTY_DATA
  Total_Score	| 7.8888
  Crash		| -1.6412
  Polar		| 6.3376
  FragIndex	| 1
  FragRMSD	| 1.279

