@<TRIPOS>MOLECULE
BindingDB_50386765
 54 57 0 0 0
SMALL
NO_CHARGES


@<TRIPOS>ATOM
1    N        17.9341    2.2375   16.4434  N     
2    C        19.2235    1.9652   16.6818  C     
3    C        19.8911    3.1723   16.9236  C     
4    N        18.9920    4.1752   16.7796  N     
5    C        16.8912    1.2703   16.2226  C     
6    N        19.8883    0.7725   16.6781  N     
7    C        17.8152    3.5831   16.4641  C     
8    C        21.2615    3.0966   17.1937  C     
9    N        21.8862    1.9150   17.1847  N     
10   C        16.2754    0.7654   17.5577  C     
11   C        21.2243    0.7520   16.9168  C     
12   O        15.8026    1.8165   15.4499  O     
13   P        13.1473    5.4164   16.5928  P     
14   C        14.5892    1.7727   16.2114  C     
15   C        15.0037    1.6200   17.6843  C     
16   C        13.7031    2.9998   15.8794  C     
17   O        13.8459    4.0426   16.8775  O     
18   O        21.9280    4.0906   17.4442  O     
19   O        14.1793    6.3962   15.9955  O     
20   O        11.9378    5.3907   15.6321  O     
21   O        12.6888    6.0234   17.8206  O     
22   C        19.2030    5.6048   16.8418  C     
23   N        21.9003   -0.4052   16.8557  N     
24   O        15.9837   -0.6407   17.4962  O     
25   O        14.0021    1.0348   18.5105  O     
26   C        17.9730    6.4763   16.4400  C     
27   O        16.8726    6.4764   17.3768  O     
28   C        17.0895    7.3178   18.4256  C     
29   C        16.6964    8.6748   18.3663  C     
30   C        17.8019    6.8409   19.5469  C     
31   C        18.2563    7.7479   20.5242  C     
32   C        17.1243    9.5710   19.3638  C     
33   C        17.9438    9.1138   20.4180  C     
34   H        17.3085    0.4323   15.6559  H     
35   H        16.9433    4.0783   16.2798  H     
36   H        22.8403    1.8738   17.3657  H     
37   H        16.9392    0.9250   18.4191  H     
38   H        14.0435    0.8782   15.9014  H     
39   H        15.2823    2.5868   18.1145  H     
40   H        13.9960    3.3554   14.8813  H     
41   H        12.6537    2.6861   15.8310  H     
42   H        19.5049    5.8860   17.8566  H     
43   H        20.0275    5.8561   16.1628  H     
44   H        22.8657   -0.4094   16.9704  H     
45   H        21.4349   -1.2367   16.6547  H     
46   H        15.4513   -0.7555   16.6804  H     
47   H        13.8035    0.1611   18.1123  H     
48   H        18.3138    7.5009   16.2327  H     
49   H        17.5799    6.1028   15.4956  H     
50   H        16.1686    9.0276   17.5590  H     
51   H        18.0393    5.8457   19.6154  H     
52   H        18.8735    7.4219   21.2759  H     
53   H        16.8820   10.5616   19.2967  H     
54   H        18.3585    9.7800   21.0711  H     
@<TRIPOS>BOND
     1    1    2 1
     2    5    1 1
     3    1    7 1
     4    2    3 2
     5    2    6 1
     6    3    4 1
     7    3    8 1
     8    4    7 2
     9    4   22 1
    10    5   10 1
    11    5   12 1
    12    6   11 2
    13    8    9 1
    14    8   18 2
    15    9   11 1
    16   10   15 1
    17   10   24 1
    18   11   23 1
    19   12   14 1
    20   13   17 1
    21   13   19 1
    22   13   20 1
    23   13   21 2
    24   14   15 1
    25   14   16 1
    26   15   25 1
    27   16   17 1
    28   22   26 1
    29   26   27 1
    30   27   28 1
    31   28   29 2
    32   28   30 1
    33   29   32 1
    34   30   31 2
    35   31   33 1
    36   32   33 2
    37    5   34 1
    38    7   35 1
    39    9   36 1
    40   10   37 1
    41   14   38 1
    42   15   39 1
    43   16   40 1
    44   16   41 1
    45   22   42 1
    46   22   43 1
    47   23   44 1
    48   23   45 1
    49   24   46 1
    50   25   47 1
    51   26   48 1
    52   26   49 1
    53   29   50 1
    54   30   51 1
    55   31   52 1
    56   32   53 1
    57   33   54 1
@<TRIPOS>PROPERTY_DATA
  Total_Score	| 10.1975
  Crash		| -1.8354
  Polar		| 7.0683
  FragIndex	| 1
  FragRMSD	| 0.446

