@<TRIPOS>MOLECULE
BindingDB_50386762
 54 57 0 0 0
SMALL
NO_CHARGES


@<TRIPOS>ATOM
1    N        17.7507    2.5776   16.8188  N     
2    C        19.0782    2.4837   17.0002  C     
3    C        19.5129    3.6170   17.6972  C     
4    N        18.4305    4.3996   17.9154  N     
5    C        16.8513    1.5549   16.3593  C     
6    N        19.9512    1.4997   16.6397  N     
7    C        17.3892    3.7676   17.3367  C     
8    C        20.8638    3.6870   18.0357  C     
9    N        21.6968    2.7195   17.6510  N     
10   C        16.2162    0.8069   17.5606  C     
11   C        21.2666    1.6318   16.9543  C     
12   O        15.7694    2.1163   15.5840  O     
13   P        13.0980    5.4289   16.4843  P     
14   C        14.5124    1.7953   16.2087  C     
15   C        14.8405    1.4788   17.6812  C     
16   C        13.4728    2.9294   16.0168  C     
17   O        13.8687    4.1032   16.7639  O     
18   O        21.3109    4.6203   18.6809  O     
19   O        12.8639    6.2614   17.7540  O     
20   O        14.0107    6.2873   15.5937  O     
21   O        11.8484    5.3170   15.7809  O     
22   C        18.2954    5.6474   18.6284  C     
23   N        22.1516    0.6994   16.5740  N     
24   O        16.1095   -0.5934   17.3007  O     
25   O        13.8588    0.6699   18.3290  O     
26   C        13.4928    3.5966   22.4999  C     
27   C        15.4650    4.2290   20.5791  C     
28   Br       12.1998    3.1982   23.7791  Br    
29   C        13.6345    4.9163   22.0410  C     
30   C        14.3274    2.5850   21.9868  C     
31   C        14.6190    5.2324   21.0846  C     
32   C        15.3066    2.9014   21.0244  C     
33   O        16.3276    4.5243   19.5593  O     
34   C        17.2979    5.5615   19.8158  C     
35   H        17.3973    0.8537   15.7193  H     
36   H        16.4367    4.1208   17.3346  H     
37   H        22.6417    2.7774   17.8720  H     
38   H        16.7826    0.9292   18.4881  H     
39   H        14.1162    0.8925   15.7285  H     
40   H        14.9393    2.4077   18.2478  H     
41   H        13.4187    3.1563   14.9420  H     
42   H        12.4871    2.5694   16.3457  H     
43   H        19.2562    5.9839   19.0153  H     
44   H        17.9514    6.4151   17.9301  H     
45   H        23.0889    0.8156   16.7944  H     
46   H        21.8641   -0.0731   16.0609  H     
47   H        15.6657   -0.6741   16.4291  H     
48   H        13.8046   -0.1535   17.7997  H     
49   H        13.0177    5.6499   22.3971  H     
50   H        14.2193    1.6210   22.3059  H     
51   H        14.7001    6.1884   20.7383  H     
52   H        15.8883    2.1596   20.6313  H     
53   H        17.8680    5.3746   20.7334  H     
54   H        16.7779    6.5220   19.9190  H     
@<TRIPOS>BOND
     1    1    2 1
     2    5    1 1
     3    1    7 1
     4    2    3 2
     5    2    6 1
     6    3    4 1
     7    3    8 1
     8    4    7 2
     9    4   22 1
    10    5   10 1
    11    5   12 1
    12    6   11 2
    13    8    9 1
    14    8   18 2
    15    9   11 1
    16   10   15 1
    17   10   24 1
    18   11   23 1
    19   12   14 1
    20   13   17 1
    21   13   19 1
    22   13   20 1
    23   13   21 2
    24   14   15 1
    25   14   16 1
    26   15   25 1
    27   16   17 1
    28   22   34 1
    29   26   28 1
    30   26   29 1
    31   26   30 2
    32   27   31 1
    33   27   32 2
    34   27   33 1
    35   29   31 2
    36   30   32 1
    37   33   34 1
    38    5   35 1
    39    7   36 1
    40    9   37 1
    41   10   38 1
    42   14   39 1
    43   15   40 1
    44   16   41 1
    45   16   42 1
    46   22   43 1
    47   22   44 1
    48   23   45 1
    49   23   46 1
    50   24   47 1
    51   25   48 1
    52   29   49 1
    53   30   50 1
    54   31   51 1
    55   32   52 1
    56   34   53 1
    57   34   54 1
@<TRIPOS>PROPERTY_DATA
  Total_Score	| 9.5599
  Crash		| -0.9656
  Polar		| 6.8210
  FragIndex	| 1
  FragRMSD	| 0.916

