@<TRIPOS>MOLECULE
BindingDB_50316307
 50 53 0 0 0
SMALL
NO_CHARGES


@<TRIPOS>ATOM
1    N        17.8455    2.3647   17.0362  N     
2    C        19.1392    2.0274   17.0258  C     
3    N        19.0088    4.2481   16.9538  N     
4    C        19.8815    3.2127   17.0035  C     
5    C        16.7463    1.4691   17.2248  C     
6    N        19.7537    0.8060   17.0711  N     
7    C        17.7724    3.7087   16.9564  C     
8    C        21.2620    3.1058   17.1299  C     
9    N        21.8366    1.9012   17.1679  N     
10   C        16.1442    0.9897   15.8978  C     
11   C        21.1102    0.7510   17.1279  C     
12   O        15.6618    2.1191   17.9000  O     
13   P        12.2831    4.5095   17.0776  P     
14   C        14.4822    1.3416   17.6585  C     
15   C        14.6809    0.6548   16.2775  C     
16   C        19.2320    5.6607   16.9645  C     
17   C        13.2335    2.2448   17.7721  C     
18   O        13.5068    3.5201   17.1559  O     
19   O        21.9792    4.0809   17.3069  O     
20   O        12.5102    5.8412   17.8418  O     
21   O        12.0684    4.8965   15.6066  O     
22   O        11.0339    3.8973   17.4883  O     
23   N        21.7228   -0.4452   17.1617  N     
24   O        16.8917   -0.0951   15.3441  O     
25   O        14.4654   -0.7550   16.3769  O     
26   C        18.8978    6.2159   18.2952  C     
27   C        18.2853    7.1542   20.9064  C     
28   Cl       17.9528    7.6004   22.4979  Cl    
29   C        17.6077    6.7435   18.5980  C     
30   C        19.8658    6.1924   19.3264  C     
31   C        19.5745    6.6568   20.6178  C     
32   C        17.3061    7.1980   19.9009  C     
33   H        17.0463    0.6130   17.8370  H     
34   H        16.8960    4.2297   16.9302  H     
35   H        22.8032    1.8223   17.2578  H     
36   H        16.1379    1.8092   15.1676  H     
37   H        14.4197    0.5806   18.4391  H     
38   H        14.0044    1.0543   15.5092  H     
39   H        20.2679    5.9037   16.7413  H     
40   H        18.6215    6.1347   16.1954  H     
41   H        12.3941    1.7375   17.2973  H     
42   H        13.0143    2.3927   18.8267  H     
43   H        22.6968   -0.4782   17.1919  H     
44   H        21.2054   -1.2745   17.1534  H     
45   H        16.8135   -0.8253   15.9916  H     
46   H        14.5632   -1.0924   15.4566  H     
47   H        16.8785    6.7781   17.8739  H     
48   H        20.8036    5.8149   19.1443  H     
49   H        20.3031    6.6433   21.3384  H     
50   H        16.3691    7.5848   20.0986  H     
@<TRIPOS>BOND
     1    1    2 1
     2    5    1 1
     3    1    7 1
     4    2    4 2
     5    2    6 1
     6    3    7 2
     7    3   16 1
     8    3    4 1
     9    4    8 1
    10    5   10 1
    11    5   12 1
    12    6   11 2
    13    8    9 1
    14    8   19 2
    15    9   11 1
    16   10   15 1
    17   10   24 1
    18   11   23 1
    19   12   14 1
    20   13   18 1
    21   13   20 1
    22   13   21 1
    23   13   22 2
    24   14   17 1
    25   14   15 1
    26   15   25 1
    27   16   26 1
    28   17   18 1
    29   26   29 1
    30   26   30 2
    31   27   32 1
    32   27   28 1
    33   27   31 2
    34   29   32 2
    35   30   31 1
    36    5   33 1
    37    7   34 1
    38    9   35 1
    39   10   36 1
    40   14   37 1
    41   15   38 1
    42   16   39 1
    43   16   40 1
    44   17   41 1
    45   17   42 1
    46   23   43 1
    47   23   44 1
    48   24   45 1
    49   25   46 1
    50   29   47 1
    51   30   48 1
    52   31   49 1
    53   32   50 1
@<TRIPOS>PROPERTY_DATA
  Total_Score	| 7.6491
  Crash		| -2.1170
  Polar		| 6.9244
  FragIndex	| 1
  FragRMSD	| 1.353

