@<TRIPOS>MOLECULE
BindingDB_50386761
 57 60 0 0 0
SMALL
NO_CHARGES


@<TRIPOS>ATOM
1    N        17.9247    2.3637   16.5273  N     
2    C        19.2227    2.0414   16.6993  C     
3    C        19.9268    3.2217   16.9415  C     
4    N        19.0471    4.2520   16.8919  N     
5    C        16.8589    1.4328   16.2642  C     
6    N        19.8591    0.8235   16.6545  N     
7    C        17.8343    3.7060   16.6394  C     
8    C        21.2902    3.1259   17.1820  C     
9    N        21.8924    1.9380   17.1371  N     
10   C        16.2896    0.7699   17.5499  C     
11   C        21.2016    0.7905   16.8640  C     
12   O        15.7752    2.1001   15.6031  O     
13   P        13.1455    5.3454   16.5209  P     
14   C        14.5449    1.7304   16.2350  C     
15   C        14.8968    1.3979   17.6957  C     
16   C        13.6653    4.2486   21.1013  C     
17   C        13.5033    2.8630   16.0528  C     
18   C        14.7536    4.9253   20.3503  C     
19   O        13.7877    3.9856   16.9191  O     
20   O        21.9541    4.1134   17.4297  O     
21   O        11.9149    5.2571   15.5961  O     
22   O        12.6743    6.1108   17.7741  O     
23   O        14.1425    6.1813   15.9013  O     
24   C        19.4070    5.6385   17.0531  C     
25   N        21.8566   -0.3748   16.8013  N     
26   O        16.2201   -0.6556   17.4010  O     
27   F        13.9546    2.9627   21.4963  F     
28   F        13.3813    4.9576   22.2437  F     
29   F        12.5344    4.1849   20.3235  F     
30   C        14.5654    6.2469   19.8702  C     
31   C        15.9969    4.3024   20.0977  C     
32   O        13.9393    0.5224   18.2982  O     
33   C        16.8188    6.2943   18.9342  C     
34   C        15.5775    6.9179   19.1567  C     
35   C        17.0297    4.9897   19.4315  C     
36   O        17.8404    7.0329   18.4044  O     
37   C        18.2622    6.7034   17.0667  C     
38   H        17.2247    0.6618   15.5754  H     
39   H        16.9646    4.2325   16.5667  H     
40   H        22.8437    1.8901   17.2960  H     
41   H        16.9083    0.9780   18.4291  H     
42   H        14.1687    0.8257   15.7344  H     
43   H        14.9822    2.3068   18.3012  H     
44   H        13.5183    3.1525   14.9922  H     
45   H        12.5053    2.4648   16.2849  H     
46   H        19.9741    5.7471   17.9909  H     
47   H        20.1002    5.8809   16.2320  H     
48   H        22.8158   -0.4009   16.9392  H     
49   H        21.3804   -1.1940   16.5954  H     
50   H        15.6488   -0.8061   16.6149  H     
51   H        13.6743    6.7296   20.0384  H     
52   H        16.1730    3.3464   20.4118  H     
53   H        13.1227    1.0731   18.3897  H     
54   H        15.4154    7.8679   18.8181  H     
55   H        17.9430    4.5438   19.3202  H     
56   H        18.7014    7.6232   16.6629  H     
57   H        17.4609    6.4064   16.3831  H     
@<TRIPOS>BOND
     1    1    2 1
     2    5    1 1
     3    1    7 1
     4    2    3 2
     5    2    6 1
     6    3    4 1
     7    3    8 1
     8    4    7 2
     9    4   24 1
    10    5   10 1
    11    5   12 1
    12    6   11 2
    13    8    9 1
    14    8   20 2
    15    9   11 1
    16   10   15 1
    17   10   26 1
    18   11   25 1
    19   12   14 1
    20   13   19 1
    21   13   21 1
    22   13   22 1
    23   13   23 2
    24   14   15 1
    25   14   17 1
    26   15   32 1
    27   16   18 1
    28   16   27 1
    29   16   28 1
    30   16   29 1
    31   17   19 1
    32   18   30 2
    33   18   31 1
    34   24   37 1
    35   30   34 1
    36   31   35 2
    37   33   34 2
    38   33   35 1
    39   33   36 1
    40   36   37 1
    41    5   38 1
    42    7   39 1
    43    9   40 1
    44   10   41 1
    45   14   42 1
    46   15   43 1
    47   17   44 1
    48   17   45 1
    49   24   46 1
    50   24   47 1
    51   25   48 1
    52   25   49 1
    53   26   50 1
    54   30   51 1
    55   31   52 1
    56   32   53 1
    57   34   54 1
    58   35   55 1
    59   37   56 1
    60   37   57 1
@<TRIPOS>PROPERTY_DATA
  Total_Score	| 9.5762
  Crash		| -1.0671
  Polar		| 7.0471
  FragIndex	| 1
  FragRMSD	| 0.768

