@<TRIPOS>MOLECULE
BindingDB_50316302
 48 50 0 0 0
SMALL
NO_CHARGES


@<TRIPOS>ATOM
1    N        17.9788    2.4029   16.4617  N     
2    C        19.2568    2.0580   16.6964  C     
3    C        19.9835    3.2267   16.9298  C     
4    N        19.1433    4.2696   16.8005  N     
5    C        16.8698    1.5034   16.2614  C     
6    N        19.8756    0.8370   16.7475  N     
7    C        17.9273    3.7599   16.5079  C     
8    P        13.9022    5.9706   18.3276  P     
9    C        21.3348    3.1186   17.2282  C     
10   N        21.9035    1.9162   17.2712  N     
11   C        16.4139    0.8112   17.5721  C     
12   C        21.2031    0.7695   17.0363  C     
13   O        15.7193    2.1907   15.7620  O     
14   P        12.3017    4.4715   16.8690  P     
15   O        12.4581    5.6726   17.8428  O     
16   O        14.5871    4.8323   19.1356  O     
17   P        13.9756    4.5359   20.5364  P     
18   C        14.5685    1.4026   16.0877  C     
19   C        14.8692    0.7349   17.4605  C     
20   O        14.8346    6.3815   17.1787  O     
21   C        13.3042    2.2912   16.0114  C     
22   O        13.8152    7.1442   19.1554  O     
23   O        13.5012    3.4702   16.8133  O     
24   O        22.0070    4.1095   17.4761  O     
25   O        11.0220    3.7342   17.3369  O     
26   O        12.6686    3.7256   20.4397  O     
27   O        11.9890    5.0055   15.5651  O     
28   O        14.9197    3.7107   21.2591  O     
29   N        21.8454   -0.4009   17.0760  N     
30   C        19.4590    5.6542   16.9609  C     
31   O        16.9973   -0.4824   17.7240  O     
32   O        13.7262    5.7741   21.4191  O     
33   O        14.2473    1.3925   18.5739  O     
34   H        17.1480    0.7487   15.5103  H     
35   H        17.0851    4.3200   16.3758  H     
36   H        22.8512    1.8535   17.4799  H     
37   H        16.6977    1.4116   18.4449  H     
38   H        14.4734    0.6123   15.3310  H     
39   H        14.5226   -0.3097   17.4445  H     
40   H        13.1499    2.5603   14.9563  H     
41   H        12.4406    1.7167   16.3620  H     
42   H        21.3677   -1.2245   16.8987  H     
43   H        22.7943   -0.4210   17.2701  H     
44   H        19.8111    5.8404   17.9769  H     
45   H        20.2485    5.9387   16.2636  H     
46   H        18.5975    6.2966   16.7786  H     
47   H        17.9442   -0.3149   17.9167  H     
48   H        14.4999    0.8404   19.3448  H     
@<TRIPOS>BOND
     1    1    2 1
     2    5    1 1
     3    1    7 1
     4    2    3 2
     5    2    6 1
     6    3    9 1
     7    3    4 1
     8    4    7 2
     9    4   30 1
    10    5   11 1
    11    5   13 1
    12    6   12 2
    13    8   15 1
    14    8   16 1
    15    8   20 1
    16    8   22 2
    17    9   10 1
    18    9   24 2
    19   10   12 1
    20   11   19 1
    21   11   31 1
    22   12   29 1
    23   13   18 1
    24   14   23 1
    25   14   15 1
    26   14   25 1
    27   14   27 2
    28   16   17 1
    29   17   26 1
    30   17   28 2
    31   17   32 1
    32   18   21 1
    33   18   19 1
    34   19   33 1
    35   21   23 1
    36    5   34 1
    37    7   35 1
    38   10   36 1
    39   11   37 1
    40   18   38 1
    41   19   39 1
    42   21   40 1
    43   21   41 1
    44   29   42 1
    45   29   43 1
    46   30   44 1
    47   30   45 1
    48   30   46 1
    49   31   47 1
    50   33   48 1
@<TRIPOS>PROPERTY_DATA
  Total_Score	| 10.1779
  Crash		| -0.7094
  Polar		| 9.7209
  FragIndex	| 1
  FragRMSD	| 1.076

