@<TRIPOS>MOLECULE
BindingDB_50316305
 50 53 0 0 0
SMALL
NO_CHARGES


@<TRIPOS>ATOM
1    N        17.8006    2.3992   17.3646  N     
2    C        19.1070    2.0562   17.3453  C     
3    N        18.9987    4.2580   17.1728  N     
4    C        19.8567    3.2266   17.2454  C     
5    C        16.6716    1.5109   17.4925  C     
6    N        19.7096    0.8349   17.4608  N     
7    C        17.7562    3.7372   17.2578  C     
8    C        21.2417    3.1102   17.3144  C     
9    N        21.8055    1.9106   17.4306  N     
10   C        16.3049    0.8436   16.1544  C     
11   C        21.0651    0.7696   17.4989  C     
12   O        15.4769    2.1848   17.9277  O     
13   P        13.1336    5.2983   16.6848  P     
14   C        14.3231    1.6474   17.2566  C     
15   C        14.8239    0.5080   16.3476  C     
16   C        19.2508    5.6657   17.0717  C     
17   C        13.6026    2.7907   16.4924  C     
18   O        13.5412    3.9467   17.3581  O     
19   O        21.9676    4.0972   17.3695  O     
20   O        11.9137    5.2160   15.7444  O     
21   O        14.3280    5.9754   15.9882  O     
22   O        12.7701    6.2152   17.7612  O     
23   N        21.7047   -0.4047   17.6305  N     
24   O        17.1268   -0.2821   15.8580  O     
25   O        14.6751   -0.7667   16.9889  O     
26   C        18.9560    6.3360   18.3607  C     
27   C        19.8569    6.2016   19.4427  C     
28   C        17.7882    7.1225   18.5410  C     
29   C        17.5687    7.8007   19.7607  C     
30   C        19.6402    6.8893   20.6449  C     
31   C        18.5066    7.6968   20.8053  C     
32   H        16.9012    0.7408   18.2396  H     
33   H        16.9002    4.2964   17.2614  H     
34   H        22.7736    1.8445   17.4988  H     
35   H        16.4114    1.5656   15.3427  H     
36   H        13.6386    1.2513   18.0118  H     
37   H        14.3113    0.4573   15.3804  H     
38   H        18.6384    6.0668   16.2545  H     
39   H        20.2951    5.8718   16.8022  H     
40   H        14.1579    3.0225   15.5697  H     
41   H        12.5810    2.4659   16.2333  H     
42   H        21.2001   -1.2277   17.7143  H     
43   H        22.6750   -0.4213   17.6197  H     
44   H        16.8592   -0.5646   14.9551  H     
45   H        13.7067   -0.9730   16.9374  H     
46   H        20.6820    5.6248   19.3461  H     
47   H        17.0972    7.2185   17.7841  H     
48   H        16.7424    8.3877   19.8764  H     
49   H        20.3257    6.8109   21.4018  H     
50   H        18.3607    8.2090   21.6779  H     
@<TRIPOS>BOND
     1    1    2 1
     2    5    1 1
     3    1    7 1
     4    2    4 2
     5    2    6 1
     6    3    7 2
     7    3   16 1
     8    3    4 1
     9    4    8 1
    10    5   10 1
    11    5   12 1
    12    6   11 2
    13    8    9 1
    14    8   19 2
    15    9   11 1
    16   10   15 1
    17   10   24 1
    18   11   23 1
    19   12   14 1
    20   13   18 1
    21   13   20 1
    22   13   21 1
    23   13   22 2
    24   14   17 1
    25   14   15 1
    26   15   25 1
    27   16   26 1
    28   17   18 1
    29   26   27 2
    30   26   28 1
    31   27   30 1
    32   28   29 2
    33   29   31 1
    34   30   31 2
    35    5   32 1
    36    7   33 1
    37    9   34 1
    38   10   35 1
    39   14   36 1
    40   15   37 1
    41   16   38 1
    42   16   39 1
    43   17   40 1
    44   17   41 1
    45   23   42 1
    46   23   43 1
    47   24   44 1
    48   25   45 1
    49   27   46 1
    50   28   47 1
    51   29   48 1
    52   30   49 1
    53   31   50 1
@<TRIPOS>PROPERTY_DATA
  Total_Score	| 9.1060
  Crash		| -0.9312
  Polar		| 6.5586
  FragIndex	| 1
  FragRMSD	| 1.051

