@<TRIPOS>MOLECULE
BindingDB_50386768
 55 58 0 0 0
SMALL
NO_CHARGES


@<TRIPOS>ATOM
1    N        17.9509    2.4178   16.6162  N     
2    C        19.2436    2.0583   16.7251  C     
3    C        19.9898    3.2053   17.0014  C     
4    N        19.1358    4.2519   17.0360  N     
5    C        16.8242    1.5533   16.4436  C     
6    N        19.8526    0.8335   16.6340  N     
7    C        17.9015    3.7538   16.8111  C     
8    C        21.3596    3.0655   17.1993  C     
9    N        21.9246    1.8612   17.1002  N     
10   C        16.3237    0.9789   17.7863  C     
11   C        21.1977    0.7419   16.8177  C     
12   O        15.6977    2.2488   15.8916  O     
13   P        12.1969    4.5022   16.8671  P     
14   C        14.5438    1.4570   16.1914  C     
15   C        14.8040    0.8120   17.5772  C     
16   N        12.0731    5.8781   20.4003  N     
17   C        13.2689    2.3286   16.1113  C     
18   C        13.1821    6.0711   20.1438  C     
19   O        13.4300    3.5444   16.8855  O     
20   O        22.0587    4.0227   17.4867  O     
21   O        10.9524    3.8509   17.4992  O     
22   O        12.4537    5.8032   17.6289  O     
23   O        11.8329    4.8902   15.5319  O     
24   C        19.4205    5.6295   17.3170  C     
25   N        21.8210   -0.4423   16.7178  N     
26   O        16.9987   -0.2348   18.1053  O     
27   O        14.3740   -0.5513   17.5997  O     
28   C        14.4454    6.2595   19.8795  C     
29   C        17.1931    6.7129   19.3753  C     
30   C        15.4247    5.6408   20.6812  C     
31   C        14.8474    7.1032   18.8190  C     
32   C        16.7902    5.8662   20.4299  C     
33   C        16.2136    7.3287   18.5704  C     
34   O        18.5243    7.0290   19.1945  O     
35   C        19.3921    5.9323   18.8406  C     
36   H        17.0936    0.7432   15.7560  H     
37   H        17.0407    4.3111   16.8316  H     
38   H        22.8811    1.7764   17.2322  H     
39   H        16.4981    1.6943   18.5990  H     
40   H        14.4697    0.6768   15.4281  H     
41   H        14.2632    1.3374   18.3722  H     
42   H        13.1041    2.5718   15.0563  H     
43   H        12.4219    1.7389   16.4739  H     
44   H        20.3930    5.8807   16.8846  H     
45   H        18.6956    6.2672   16.8027  H     
46   H        22.7814   -0.5004   16.8475  H     
47   H        21.3153   -1.2411   16.4971  H     
48   H        17.9040    0.0429   18.3748  H     
49   H        14.9265   -1.0080   16.9268  H     
50   H        15.1557    5.0328   21.4532  H     
51   H        14.1499    7.5713   18.2292  H     
52   H        17.5004    5.4358   21.0356  H     
53   H        16.4926    7.9593   17.8244  H     
54   H        19.1227    5.0430   19.4207  H     
55   H        20.4003    6.2092   19.1562  H     
@<TRIPOS>BOND
     1    1    2 1
     2    5    1 1
     3    1    7 1
     4    2    3 2
     5    2    6 1
     6    3    4 1
     7    3    8 1
     8    4    7 2
     9    4   24 1
    10    5   10 1
    11    5   12 1
    12    6   11 2
    13    8    9 1
    14    8   20 2
    15    9   11 1
    16   10   15 1
    17   10   26 1
    18   11   25 1
    19   12   14 1
    20   13   19 1
    21   13   21 1
    22   13   22 1
    23   13   23 2
    24   14   15 1
    25   14   17 1
    26   15   27 1
    27   16   18 3
    28   17   19 1
    29   18   28 1
    30   24   35 1
    31   28   30 2
    32   28   31 1
    33   29   32 2
    34   29   33 1
    35   29   34 1
    36   30   32 1
    37   31   33 2
    38   34   35 1
    39    5   36 1
    40    7   37 1
    41    9   38 1
    42   10   39 1
    43   14   40 1
    44   15   41 1
    45   17   42 1
    46   17   43 1
    47   24   44 1
    48   24   45 1
    49   25   46 1
    50   25   47 1
    51   26   48 1
    52   27   49 1
    53   30   50 1
    54   31   51 1
    55   32   52 1
    56   33   53 1
    57   35   54 1
    58   35   55 1
@<TRIPOS>PROPERTY_DATA
  Total_Score	| 9.7987
  Crash		| -1.0926
  Polar		| 7.2701
  FragIndex	| 1
  FragRMSD	| 1.157

