@<TRIPOS>MOLECULE
BindingDB_50386764
 56 59 0 0 0
SMALL
NO_CHARGES


@<TRIPOS>ATOM
1    N        17.8419    2.3398   16.4508  N     
2    C        19.1308    2.1340   16.7576  C     
3    C        19.7350    3.3782   16.9510  C     
4    N        18.8029    4.3350   16.7431  N     
5    C        16.8340    1.3309   16.2528  C     
6    N        19.8412    0.9722   16.8732  N     
7    C        17.6694    3.6983   16.4256  C     
8    C        21.0924    3.3992   17.2896  C     
9    N        21.7627    2.2389   17.3753  N     
10   C        16.2781    0.7982   17.6004  C     
11   C        21.1672    1.0379   17.1743  C     
12   O        15.7253    1.8787   15.5158  O     
13   P        13.1186    5.4864   16.4620  P     
14   C        14.5303    1.8060   16.3022  C     
15   C        14.9930    1.6186   17.7666  C     
16   C        13.5768    3.0007   16.0052  C     
17   O        13.8168    4.1361   16.8640  O     
18   O        21.6753    4.4328   17.5226  O     
19   O        12.6932    6.2541   17.7315  O     
20   O        14.0740    6.3709   15.6534  O     
21   O        11.9104    5.3348   15.6937  O     
22   C        19.0434    5.7661   16.8413  C     
23   N        21.8840   -0.0927   17.2819  N     
24   O        16.0271   -0.6063   17.5388  O     
25   O        14.0072    1.0005   18.5962  O     
26   C        17.8997    7.1392   21.4409  C     
27   C        17.0545    7.0849   18.7416  C     
28   Cl       18.4145    7.1413   23.0518  Cl    
29   C        17.4788    5.9330   20.8566  C     
30   C        17.8858    8.3274   20.6822  C     
31   C        17.0568    5.9066   19.5129  C     
32   C        17.4485    8.3021   19.3476  C     
33   C        17.9497    6.7816   16.3797  C     
34   C        16.7221    7.0436   17.2984  C     
35   H        17.2557    0.5178   15.6599  H     
36   H        16.7784    4.1265   16.1815  H     
37   H        22.7107    2.2626   17.5974  H     
38   H        16.9576    0.9762   18.4386  H     
39   H        14.0183    0.8870   15.9821  H     
40   H        15.2578    2.5739   18.2169  H     
41   H        13.7007    3.2746   14.9454  H     
42   H        12.5538    2.6656   16.1511  H     
43   H        19.3125    5.9877   17.8694  H     
44   H        19.9415    5.9788   16.2331  H     
45   H        22.8327   -0.0423   17.4831  H     
46   H        21.4540   -0.9540   17.1623  H     
47   H        15.4413   -0.7407   16.7646  H     
48   H        13.8053    0.1400   18.1764  H     
49   H        17.4921    5.0676   21.3964  H     
50   H        18.2019    9.2107   21.0914  H     
51   H        16.7806    5.0064   19.1033  H     
52   H        17.4396    9.1746   18.8078  H     
53   H        18.4500    7.7638   16.2154  H     
54   H        17.5845    6.4866   15.4042  H     
55   H        15.9695    6.2739   17.1240  H     
56   H        16.2482    7.9925   17.0104  H     
@<TRIPOS>BOND
     1    1    2 1
     2    5    1 1
     3    1    7 1
     4    2    3 2
     5    2    6 1
     6    3    4 1
     7    3    8 1
     8    4    7 2
     9    4   22 1
    10    5   10 1
    11    5   12 1
    12    6   11 2
    13    8    9 1
    14    8   18 2
    15    9   11 1
    16   10   15 1
    17   10   24 1
    18   11   23 1
    19   12   14 1
    20   13   17 1
    21   13   19 1
    22   13   20 1
    23   13   21 2
    24   14   15 1
    25   14   16 1
    26   15   25 1
    27   16   17 1
    28   22   33 1
    29   26   28 1
    30   26   29 1
    31   26   30 2
    32   27   31 1
    33   27   32 2
    34   27   34 1
    35   29   31 2
    36   30   32 1
    37   33   34 1
    38    5   35 1
    39    7   36 1
    40    9   37 1
    41   10   38 1
    42   14   39 1
    43   15   40 1
    44   16   41 1
    45   16   42 1
    46   22   43 1
    47   22   44 1
    48   23   45 1
    49   23   46 1
    50   24   47 1
    51   25   48 1
    52   29   49 1
    53   30   50 1
    54   31   51 1
    55   32   52 1
    56   33   53 1
    57   33   54 1
    58   34   55 1
    59   34   56 1
@<TRIPOS>PROPERTY_DATA
  Total_Score	| 9.2590
  Crash		| -2.4146
  Polar		| 6.9853
  FragIndex	| 1
  FragRMSD	| 0.820

