@<TRIPOS>MOLECULE
BindingDB_50386766
 54 57 0 0 0
SMALL
NO_CHARGES


@<TRIPOS>ATOM
1    N        17.7209    2.8419   16.4817  N     
2    C        19.0074    2.6985   16.8226  C     
3    C        19.5733    3.9653   16.9786  C     
4    N        18.6174    4.8785   16.6640  N     
5    C        16.7232    1.8080   16.4180  C     
6    N        19.7361    1.5600   17.0113  N     
7    C        17.5216    4.1696   16.3186  C     
8    C        20.9224    4.0034   17.3210  C     
9    N        21.6291    2.8809   17.4288  N     
10   C        16.0366    1.5939   17.7793  C     
11   C        21.0677    1.6568   17.2667  C     
12   O        15.6989    2.1587   15.4786  O     
13   P        13.1697    5.4483   16.5917  P     
14   C        14.4128    1.7808   15.9983  C     
15   C        14.5873    1.2298   17.4271  C     
16   C        13.4931    3.0299   15.8705  C     
17   O        13.9035    4.0813   16.7785  O     
18   O        21.4857    5.0643   17.5501  O     
19   O        14.1667    6.4586   15.9872  O     
20   O        11.9619    5.4278   15.6337  O     
21   O        12.7147    6.0004   17.8397  O     
22   C        18.7216    6.3128   16.6264  C     
23   N        21.8222    0.5411   17.3531  N     
24   O        16.6935    0.5946   18.5602  O     
25   O        14.3757   -0.1834   17.4694  O     
26   C        17.3274    7.3586   20.3330  C     
27   C        16.4941    7.5785   17.6595  C     
28   Cl       18.0365    7.1386   21.8569  Cl    
29   C        16.7604    6.2525   19.6863  C     
30   C        17.3573    8.6237   19.6841  C     
31   C        16.2716    6.3665   18.3766  C     
32   C        16.9795    8.7205   18.3303  C     
33   O        16.4509    7.5276   16.2998  O     
34   C        17.7011    7.0789   15.7015  C     
35   H        17.1650    0.8756   16.0614  H     
36   H        16.6181    4.5712   16.0414  H     
37   H        22.5749    2.9247   17.6482  H     
38   H        16.0365    2.5213   18.3567  H     
39   H        14.0107    0.9957   15.3502  H     
40   H        13.8934    1.6942   18.1358  H     
41   H        13.5149    3.3555   14.8237  H     
42   H        12.4737    2.7193   16.1084  H     
43   H        18.6105    6.7149   17.6364  H     
44   H        19.7352    6.5906   16.3091  H     
45   H        22.7919    0.6193   17.4421  H     
46   H        21.4235   -0.3388   17.2142  H     
47   H        17.6313    0.8827   18.6154  H     
48   H        15.0254   -0.5721   16.8381  H     
49   H        16.8082    5.3185   20.1206  H     
50   H        17.7447    9.4391   20.1739  H     
51   H        15.9130    5.5442   17.8842  H     
52   H        17.1168    9.5927   17.8257  H     
53   H        18.2312    7.9409   15.2568  H     
54   H        17.4477    6.4243   14.8542  H     
@<TRIPOS>BOND
     1    1    2 1
     2    5    1 1
     3    1    7 1
     4    2    3 2
     5    2    6 1
     6    3    4 1
     7    3    8 1
     8    4    7 2
     9    4   22 1
    10    5   10 1
    11    5   12 1
    12    6   11 2
    13    8    9 1
    14    8   18 2
    15    9   11 1
    16   10   15 1
    17   10   24 1
    18   11   23 1
    19   12   14 1
    20   13   17 1
    21   13   19 1
    22   13   20 1
    23   13   21 2
    24   14   15 1
    25   14   16 1
    26   15   25 1
    27   16   17 1
    28   22   34 1
    29   26   28 1
    30   26   29 1
    31   26   30 2
    32   27   31 1
    33   27   32 2
    34   27   33 1
    35   29   31 2
    36   30   32 1
    37   33   34 1
    38    5   35 1
    39    7   36 1
    40    9   37 1
    41   10   38 1
    42   14   39 1
    43   15   40 1
    44   16   41 1
    45   16   42 1
    46   22   43 1
    47   22   44 1
    48   23   45 1
    49   23   46 1
    50   24   47 1
    51   25   48 1
    52   29   49 1
    53   30   50 1
    54   31   51 1
    55   32   52 1
    56   34   53 1
    57   34   54 1
@<TRIPOS>PROPERTY_DATA
  Total_Score	| 9.2166
  Crash		| -1.7147
  Polar		| 7.3171
  FragIndex	| 1
  FragRMSD	| 0.747

