@<TRIPOS>MOLECULE
BindingDB_50316304
 40 42 0 0 0
SMALL
NO_CHARGES


@<TRIPOS>ATOM
1    N        17.9157    2.4351   16.4806  N     
2    C        19.2026    2.0937   16.6885  C     
3    C        19.9275    3.2631   16.9280  C     
4    N        19.0755    4.3031   16.8272  N     
5    C        16.8160    1.5292   16.2699  C     
6    N        19.8205    0.8732   16.7098  N     
7    C        17.8605    3.7851   16.5501  C     
8    C        21.2823    3.1501   17.2107  C     
9    N        21.8562    1.9474   17.2285  N     
10   C        16.4228    0.7425   17.5507  C     
11   C        21.1535    0.8071   16.9777  C     
12   O        15.6210    2.1991   15.8165  O     
13   P        12.8943    5.1472   16.7320  P     
14   C        14.7227    2.3011   16.9308  C     
15   C        14.9045    0.9529   17.6505  C     
16   C        13.2636    2.6148   16.4787  C     
17   O        12.6745    3.6925   17.2382  O     
18   O        21.9619    4.1334   17.4529  O     
19   O        11.8861    5.4808   15.6200  O     
20   O        14.3257    5.4328   16.2498  O     
21   O        12.6085    6.0340   17.8283  O     
22   N        21.7858   -0.3764   16.9974  N     
23   C        19.3814    5.6918   16.9901  C     
24   O        16.7707   -0.6418   17.4971  O     
25   O        14.4486    0.9838   19.0014  O     
26   H        17.0991    0.8297   15.4806  H     
27   H        17.0130    4.3451   16.4268  H     
28   H        22.8045    1.8816   17.4233  H     
29   H        16.9062    1.1771   18.4333  H     
30   H        15.0717    3.1050   17.5913  H     
31   H        14.3788    0.1612   17.1079  H     
32   H        13.2151    2.7746   15.3949  H     
33   H        12.6288    1.7500   16.6832  H     
34   H        22.7404   -0.4115   17.1860  H     
35   H        21.2960   -1.1931   16.8220  H     
36   H        18.5015    6.3235   16.8321  H     
37   H        19.7537    5.8716   18.0025  H     
38   H        20.1474    5.9876   16.2699  H     
39   H        16.3452   -0.9902   16.6853  H     
40   H        13.4788    1.1158   18.9427  H     
@<TRIPOS>BOND
     1    1    2 1
     2    5    1 1
     3    1    7 1
     4    2    3 2
     5    2    6 1
     6    3    8 1
     7    3    4 1
     8    4    7 2
     9    4   23 1
    10    5   10 1
    11    5   12 1
    12    6   11 2
    13    8   18 2
    14    8    9 1
    15    9   11 1
    16   10   15 1
    17   10   24 1
    18   11   22 1
    19   12   14 1
    20   13   17 1
    21   13   19 1
    22   13   20 1
    23   13   21 2
    24   14   16 1
    25   14   15 1
    26   15   25 1
    27   16   17 1
    28    5   26 1
    29    7   27 1
    30    9   28 1
    31   10   29 1
    32   14   30 1
    33   15   31 1
    34   16   32 1
    35   16   33 1
    36   22   34 1
    37   22   35 1
    38   23   36 1
    39   23   37 1
    40   23   38 1
    41   24   39 1
    42   25   40 1
@<TRIPOS>PROPERTY_DATA
  Total_Score	| 7.6710
  Crash		| -0.4963
  Polar		| 6.9283
  FragIndex	| 1
  FragRMSD	| 0.544

