@<TRIPOS>MOLECULE
BindingDB_50386767
 54 57 0 0 0
SMALL
NO_CHARGES


@<TRIPOS>ATOM
1    N        17.8061    2.4479   16.4818  N     
2    C        19.0996    2.2251   16.7844  C     
3    C        19.7166    3.4647   16.9723  C     
4    N        18.7906    4.4259   16.7603  N     
5    C        16.7999    1.4468   16.2281  C     
6    N        19.8141    1.0610   16.9045  N     
7    C        17.6411    3.7894   16.4551  C     
8    C        21.0660    3.4761   17.3029  C     
9    N        21.7375    2.3272   17.4030  N     
10   C        16.2346    0.8326   17.5400  C     
11   C        21.1364    1.1204   17.2058  C     
12   O        15.6794    2.0014   15.5094  O     
13   P        13.1566    5.4949   16.5400  P     
14   C        14.4781    1.8217   16.2677  C     
15   C        14.9177    1.5933   17.7261  C     
16   C        13.5086    3.0016   16.0553  C     
17   O        13.9368    4.1676   16.8071  O     
18   O        21.6624    4.5200   17.5006  O     
19   O        11.8805    5.3733   15.6777  O     
20   O        14.0947    6.4738   15.8086  O     
21   O        12.7774    6.1156   17.7861  O     
22   C        19.0267    5.8433   16.8290  C     
23   N        21.8558   -0.0049   17.2935  N     
24   O        15.9989   -0.5757   17.3873  O     
25   O        13.9486    0.8923   18.5026  O     
26   C        17.9430    7.2857   21.4533  C     
27   C        17.0769    6.8987   18.7950  C     
28   F        18.3516    7.4559   22.6822  F     
29   C        17.7902    8.3904   20.5942  C     
30   C        17.6538    5.9899   20.9880  C     
31   C        17.3380    8.1998   19.2767  C     
32   C        17.2360    5.7931   19.6580  C     
33   O        16.7309    6.6795   17.4835  O     
34   C        17.8107    6.7650   16.5326  C     
35   H        17.2382    0.6592   15.5983  H     
36   H        16.7605    4.2573   16.2285  H     
37   H        22.6796    2.3463   17.6185  H     
38   H        16.9053    0.9770   18.4003  H     
39   H        13.9957    0.9168   15.8925  H     
40   H        15.1301    2.5414   18.2221  H     
41   H        13.4740    3.2215   14.9759  H     
42   H        12.5020    2.6987   16.3819  H     
43   H        19.3922    6.0950   17.8244  H     
44   H        19.8190    6.0964   16.1212  H     
45   H        21.4371   -0.8662   17.1480  H     
46   H        22.8042    0.0464   17.4751  H     
47   H        16.8905   -0.9755   17.2813  H     
48   H        13.7961    0.0419   18.0396  H     
49   H        18.0161    9.3344   20.9198  H     
50   H        17.7696    5.1849   21.6098  H     
51   H        17.2130    9.0061   18.6623  H     
52   H        17.0411    4.8448   19.3243  H     
53   H        18.1536    7.8023   16.4546  H     
54   H        17.4033    6.5011   15.5584  H     
@<TRIPOS>BOND
     1    1    2 1
     2    5    1 1
     3    1    7 1
     4    2    3 2
     5    2    6 1
     6    3    4 1
     7    3    8 1
     8    4    7 2
     9    4   22 1
    10    5   10 1
    11    5   12 1
    12    6   11 2
    13    8    9 1
    14    8   18 2
    15    9   11 1
    16   10   15 1
    17   10   24 1
    18   11   23 1
    19   12   14 1
    20   13   17 1
    21   13   19 1
    22   13   20 1
    23   13   21 2
    24   14   15 1
    25   14   16 1
    26   15   25 1
    27   16   17 1
    28   22   34 1
    29   26   28 1
    30   26   29 1
    31   26   30 2
    32   27   31 1
    33   27   32 2
    34   27   33 1
    35   29   31 2
    36   30   32 1
    37   33   34 1
    38    5   35 1
    39    7   36 1
    40    9   37 1
    41   10   38 1
    42   14   39 1
    43   15   40 1
    44   16   41 1
    45   16   42 1
    46   22   43 1
    47   22   44 1
    48   23   45 1
    49   23   46 1
    50   24   47 1
    51   25   48 1
    52   29   49 1
    53   30   50 1
    54   31   51 1
    55   32   52 1
    56   34   53 1
    57   34   54 1
@<TRIPOS>PROPERTY_DATA
  Total_Score	| 10.2079
  Crash		| -1.4747
  Polar		| 6.9250
  FragIndex	| 1
  FragRMSD	| 0.209

