@<TRIPOS>MOLECULE
BindingDB_50386770
 54 57 0 0 0
SMALL
NO_CHARGES


@<TRIPOS>ATOM
1    N        17.8471    2.3605   16.4549  N     
2    C        19.1497    2.1425   16.7052  C     
3    N        18.7503    4.2760   17.1373  N     
4    C        19.7293    3.3480   17.0994  C     
5    C        16.8473    1.3586   16.2068  C     
6    N        19.8822    0.9916   16.6664  N     
7    C        17.6298    3.6683   16.6775  C     
8    C        21.0839    3.3414   17.4237  C     
9    N        21.7785    2.2039   17.3527  N     
10   C        16.3408    0.7332   17.5361  C     
11   C        21.2004    1.0272   16.9848  C     
12   O        15.7154    1.9289   15.5285  O     
13   P        13.1223    5.3240   16.4941  P     
14   C        14.5262    1.6728   16.2930  C     
15   C        14.9914    1.4329   17.7441  C     
16   C        18.8254    5.6114   17.6880  C     
17   C        17.6506    6.0405   18.4351  C     
18   C        13.5031    2.8165   16.1077  C     
19   O        13.9196    4.0210   16.8054  O     
20   O        21.6690    4.3700   17.7201  O     
21   O        11.8351    5.1593   15.6605  O     
22   O        12.7115    6.0754   17.7702  O     
23   N        16.9710    5.1336   19.1366  N     
24   O        13.9865    6.2329   15.7818  O     
25   O        17.3572    7.2333   18.4274  O     
26   N        21.9344   -0.0942   16.9191  N     
27   O        16.2017   -0.6861   17.4135  O     
28   O        14.0603    0.6680   18.5100  O     
29   C        15.7814    5.2046   19.8159  C     
30   C        13.3252    5.1083   21.2588  C     
31   Cl       11.8774    5.0719   22.1403  Cl    
32   C        15.4499    4.0934   20.6306  C     
33   C        14.8300    6.2490   19.7163  C     
34   C        13.6176    6.2051   20.4278  C     
35   C        14.2452    4.0489   21.3571  C     
36   H        17.2712    0.5824   15.5618  H     
37   H        16.7117    4.1156   16.6262  H     
38   H        22.7287    2.2208   17.5618  H     
39   H        17.0073    0.9291   18.3818  H     
40   H        14.0790    0.7506   15.9027  H     
41   H        15.1578    2.3834   18.2578  H     
42   H        19.6632    5.6764   18.3847  H     
43   H        19.0377    6.3073   16.8684  H     
44   H        13.4156    3.0047   15.0237  H     
45   H        12.5285    2.4839   16.4806  H     
46   H        17.3659    4.2460   19.1248  H     
47   H        22.8834   -0.0674   17.1178  H     
48   H        21.5210   -0.9302   16.6548  H     
49   H        15.6591   -0.8313   16.6115  H     
50   H        13.9466   -0.1736   18.0189  H     
51   H        16.0852    3.2984   20.6957  H     
52   H        14.9833    7.0439   19.0966  H     
53   H        12.9361    6.9627   20.3336  H     
54   H        14.0367    3.2317   21.9372  H     
@<TRIPOS>BOND
     1    1    2 1
     2    5    1 1
     3    1    7 1
     4    2    4 2
     5    2    6 1
     6    3    4 1
     7    3    7 2
     8    3   16 1
     9    4    8 1
    10    5   10 1
    11    5   12 1
    12    6   11 2
    13    8    9 1
    14    8   20 2
    15    9   11 1
    16   10   15 1
    17   10   27 1
    18   11   26 1
    19   12   14 1
    20   13   19 1
    21   13   21 1
    22   13   22 1
    23   13   24 2
    24   14   15 1
    25   14   18 1
    26   15   28 1
    27   16   17 1
    28   17   23 am
    29   17   25 2
    30   18   19 1
    31   23   29 1
    32   29   32 2
    33   29   33 1
    34   30   31 1
    35   30   34 1
    36   30   35 2
    37   32   35 1
    38   33   34 2
    39    5   36 1
    40    7   37 1
    41    9   38 1
    42   10   39 1
    43   14   40 1
    44   15   41 1
    45   16   42 1
    46   16   43 1
    47   18   44 1
    48   18   45 1
    49   23   46 1
    50   26   47 1
    51   26   48 1
    52   27   49 1
    53   28   50 1
    54   32   51 1
    55   33   52 1
    56   34   53 1
    57   35   54 1
@<TRIPOS>PROPERTY_DATA
  Total_Score	| 7.6893
  Crash		| -1.3992
  Polar		| 7.0197
  FragIndex	| 1
  FragRMSD	| 0.762

