@<TRIPOS>MOLECULE
BindingDB_50345244
 43 46 0 0 0
SMALL
NO_CHARGES


@<TRIPOS>ATOM
1    C        23.2946  -37.3742   -0.5753  C     
2    C        23.7357  -37.5864   -1.9138  C     
3    C        23.7652  -36.5358   -2.8553  C     
4    C        22.8893  -36.0624   -0.2059  C     
5    C        22.9248  -35.0308   -1.1596  C     
6    C        23.3533  -35.2544   -2.4590  C     
7    O        23.3006  -34.1187   -3.2096  O     
8    C        22.8116  -33.2204   -2.3294  C     
9    C        22.5914  -33.7313   -1.1131  C     
10   C        22.5675  -31.9150   -2.6987  C     
11   O        22.8421  -31.5014   -3.9550  O     
12   O        22.0727  -31.0014   -1.8332  O     
13   C        23.2778  -38.4278    0.3899  C     
14   C        23.1353  -39.7970    0.0650  C     
15   N        23.1569  -40.7283    1.0516  N     
16   C        23.3111  -40.4058    2.3588  C     
17   C        23.4390  -39.0524    2.7212  C     
18   N        23.4102  -38.1369    1.7148  N     
19   N        23.6004  -38.7359    4.0288  N     
20   C        23.7083  -37.4401    4.6397  C     
21   C        24.6819  -36.4593    3.9162  C     
22   C        24.7343  -35.0866    4.6355  C     
23   N        23.3790  -34.5250    4.8384  N     
24   C        22.4617  -35.4114    5.5909  C     
25   C        22.3207  -36.7849    4.8879  C     
26   H        24.0664  -38.5051   -2.2180  H     
27   H        24.0854  -36.7000   -3.8122  H     
28   H        22.5549  -35.8527    0.7378  H     
29   H        22.2330  -33.2548   -0.3185  H     
30   H        22.9967  -40.1086   -0.8959  H     
31   H        23.3227  -41.1477    3.0620  H     
32   H        23.6415  -39.4907    4.6385  H     
33   H        24.1401  -37.6340    5.6272  H     
34   H        25.6859  -36.8949    3.8868  H     
35   H        24.3580  -36.2871    2.8878  H     
36   H        25.2377  -35.1904    5.5990  H     
37   H        25.3065  -34.3834    4.0295  H     
38   H        23.4643  -33.6389    5.3414  H     
39   H        22.9657  -34.3374    3.9216  H     
40   H        22.8332  -35.5461    6.6104  H     
41   H        21.4824  -34.9280    5.6475  H     
42   H        21.8005  -36.6411    3.9417  H     
43   H        21.7159  -37.4402    5.5169  H     
@<TRIPOS>BOND
     1    1    2 2
     2    1    4 1
     3    1   13 1
     4    2    3 1
     5    3    6 2
     6    4    5 2
     7    5    6 1
     8    5    9 1
     9    6    7 1
    10    7    8 1
    11    8    9 2
    12    8   10 1
    13   10   11 1
    14   10   12 2
    15   13   14 2
    16   13   18 1
    17   14   15 1
    18   15   16 2
    19   16   17 1
    20   17   18 2
    21   17   19 1
    22   19   20 1
    23   20   21 1
    24   20   25 1
    25   21   22 1
    26   22   23 1
    27   23   24 1
    28   24   25 1
    29    2   26 1
    30    3   27 1
    31    4   28 1
    32    9   29 1
    33   14   30 1
    34   16   31 1
    35   19   32 1
    36   20   33 1
    37   21   34 1
    38   21   35 1
    39   22   36 1
    40   22   37 1
    41   23   38 1
    42   23   39 1
    43   24   40 1
    44   24   41 1
    45   25   42 1
    46   25   43 1
@<TRIPOS>PROPERTY_DATA
  Total_Score	| 6.7408
  Crash		| -0.4832
  Polar		| 1.6389
  FragIndex	| 1
  FragRMSD	| 0.795

