@<TRIPOS>MOLECULE
BindingDB_50345240
 42 44 0 0 0
SMALL
NO_CHARGES


@<TRIPOS>ATOM
1    C        23.4419  -37.3373   -0.6551  C     
2    C        23.7927  -37.5990   -2.0129  C     
3    C        23.7537  -36.5836   -2.9904  C     
4    C        23.0530  -36.0145   -0.3102  C     
5    C        23.0215  -35.0201   -1.3014  C     
6    C        23.3661  -35.2900   -2.6160  C     
7    O        23.2581  -34.1866   -3.4054  O     
8    C        22.8226  -33.2554   -2.5296  C     
9    C        22.6793  -33.7198   -1.2803  C     
10   C        22.5423  -31.9676   -2.9251  C     
11   O        22.7391  -31.5857   -4.2049  O     
12   O        22.1263  -31.0204   -2.0544  O     
13   C        23.4866  -38.3684    0.3302  C     
14   N        23.7139  -39.6705   -0.0078  N     
15   C        23.7560  -40.6692    0.9092  C     
16   C        23.5741  -40.3741    2.2706  C     
17   C        23.3540  -39.0350    2.6347  C     
18   N        23.3139  -38.0926    1.6542  N     
19   N        23.1789  -38.7418    3.9431  N     
20   C        22.9880  -37.4410    4.5042  C     
21   C        24.2846  -36.5849    4.5704  C     
22   C        24.2041  -35.4074    5.5962  C     
23   C        24.1522  -33.9878    4.9825  C     
24   N        25.4778  -33.5582    4.5238  N     
25   H        24.0892  -38.5350   -2.3077  H     
26   H        23.9981  -36.7855   -3.9623  H     
27   H        22.7824  -35.7702    0.6436  H     
28   H        22.3659  -33.2203   -0.4752  H     
29   H        23.9435  -41.6288    0.6083  H     
30   H        23.6150  -41.1196    2.9687  H     
31   H        23.1801  -39.4836    4.5631  H     
32   H        22.2172  -36.9019    3.9472  H     
33   H        22.6121  -37.5955    5.5184  H     
34   H        25.1092  -37.2373    4.8590  H     
35   H        24.5100  -36.1983    3.5764  H     
36   H        23.3190  -35.5253    6.2220  H     
37   H        25.0699  -35.4567    6.2622  H     
38   H        23.4498  -33.9426    4.1561  H     
39   H        23.8275  -33.2763    5.7419  H     
40   H        26.1161  -33.5568    5.3148  H     
41   H        25.4411  -32.6055    4.1589  H     
42   H        25.8286  -34.1947    3.8033  H     
@<TRIPOS>BOND
     1    1    2 2
     2    1    4 1
     3    1   13 1
     4    2    3 1
     5    3    6 2
     6    4    5 2
     7    5    6 1
     8    5    9 1
     9    6    7 1
    10    7    8 1
    11    8    9 2
    12    8   10 1
    13   10   11 1
    14   10   12 2
    15   13   14 2
    16   13   18 1
    17   14   15 1
    18   15   16 2
    19   16   17 1
    20   17   18 2
    21   17   19 1
    22   19   20 1
    23   20   21 1
    24   21   22 1
    25   22   23 1
    26   23   24 1
    27    2   25 1
    28    3   26 1
    29    4   27 1
    30    9   28 1
    31   15   29 1
    32   16   30 1
    33   19   31 1
    34   20   32 1
    35   20   33 1
    36   21   34 1
    37   21   35 1
    38   22   36 1
    39   22   37 1
    40   23   38 1
    41   23   39 1
    42   24   40 1
    43   24   41 1
    44   24   42 1
@<TRIPOS>PROPERTY_DATA
  Total_Score	| 7.9659
  Crash		| -0.5843
  Polar		| 4.0801
  FragIndex	| 1
  FragRMSD	| 1.049

