@<TRIPOS>MOLECULE
BindingDB_50345235
 26 28 0 0 0
SMALL
NO_CHARGES


@<TRIPOS>ATOM
1    O        22.6952  -31.5564   -4.1147  O     
2    C        22.5272  -31.9646   -2.8382  C     
3    O        22.1118  -31.0456   -1.9374  O     
4    C        22.8119  -33.2654   -2.4828  C     
5    O        23.2501  -34.1688   -3.3852  O     
6    C        23.3810  -35.2939   -2.6256  C     
7    C        23.7987  -36.5730   -3.0245  C     
8    C        23.8634  -37.6030   -2.0621  C     
9    C        23.5068  -37.3740   -0.7022  C     
10   C        23.0848  -36.0687   -0.3310  C     
11   C        23.0345  -35.0579   -1.3042  C     
12   C        22.6823  -33.7649   -1.2503  C     
13   C        23.5650  -38.4272    0.2645  C     
14   C        24.1182  -38.2252    1.5551  C     
15   C        24.1524  -39.2664    2.5006  C     
16   C        23.6352  -40.5229    2.1473  C     
17   N        23.1133  -40.7088    0.9104  N     
18   C        23.0643  -39.7226   -0.0207  C     
19   H        24.0531  -36.7514   -3.9978  H     
20   H        24.1945  -38.5210   -2.3670  H     
21   H        22.7992  -35.8484    0.6259  H     
22   H        22.3760  -33.2804   -0.4392  H     
23   H        24.5187  -37.3213    1.8180  H     
24   H        24.5531  -39.1137    3.4288  H     
25   H        23.6544  -41.2985    2.8115  H     
26   H        22.6395  -39.9398   -0.9238  H     
@<TRIPOS>BOND
     1    1    2 1
     2    2    3 2
     3    2    4 1
     4    4    5 1
     5    4   12 2
     6    5    6 1
     7    6    7 2
     8    6   11 1
     9    7    8 1
    10    8    9 2
    11    9   10 1
    12    9   13 1
    13   10   11 2
    14   11   12 1
    15   13   14 2
    16   13   18 1
    17   14   15 1
    18   15   16 2
    19   16   17 1
    20   17   18 2
    21    7   19 1
    22    8   20 1
    23   10   21 1
    24   12   22 1
    25   14   23 1
    26   15   24 1
    27   16   25 1
    28   18   26 1
@<TRIPOS>PROPERTY_DATA
  Total_Score	| 6.0265
  Crash		| -0.1736
  Polar		| 1.6290
  FragIndex	| 1
  FragRMSD	| 0.844

