@<TRIPOS>MOLECULE
BindingDB_50345242
 46 49 0 0 0
SMALL
NO_CHARGES


@<TRIPOS>ATOM
1    C        23.4583  -37.3587   -0.6953  C     
2    C        23.7393  -37.5916   -2.0848  C     
3    C        23.7147  -36.5472   -3.0275  C     
4    C        23.1821  -36.0225   -0.3098  C     
5    C        23.1500  -34.9980   -1.2612  C     
6    C        23.3832  -35.2434   -2.6091  C     
7    O        23.1951  -34.1280   -3.3701  O     
8    C        22.8198  -33.2174   -2.4339  C     
9    C        22.8310  -33.6959   -1.1863  C     
10   C        22.4140  -31.9471   -2.8013  C     
11   O        22.1438  -31.0007   -1.8771  O     
12   O        22.2610  -31.6267   -4.1114  O     
13   C        23.4079  -38.4146    0.2747  C     
14   C        23.4002  -39.8054   -0.0287  C     
15   N        23.3278  -40.7045    0.9823  N     
16   C        23.2766  -40.3571    2.2894  C     
17   C        23.2620  -38.9856    2.6172  C     
18   N        23.3291  -38.0883    1.5924  N     
19   N        23.1047  -38.6083    3.9019  N     
20   C        23.0264  -37.2624    4.3892  C     
21   C        24.3897  -36.5133    4.3063  C     
22   C        24.3211  -35.1028    4.9411  C     
23   C        23.8422  -35.1734    6.4152  C     
24   C        22.4555  -35.8801    6.4985  C     
25   C        22.5172  -37.2937    5.8624  C     
26   N        23.7876  -33.8284    7.0049  N     
27   H        23.9723  -38.5240   -2.4302  H     
28   H        23.8847  -36.7348   -4.0180  H     
29   H        22.9796  -35.7736    0.6643  H     
30   H        22.5579  -33.2184   -0.3634  H     
31   H        23.4030  -40.1495   -0.9848  H     
32   H        23.2016  -41.0865    3.0093  H     
33   H        22.9874  -39.3172    4.5612  H     
34   H        22.2829  -36.7222    3.7921  H     
35   H        25.1593  -37.0976    4.8108  H     
36   H        24.6885  -36.4177    3.2633  H     
37   H        25.3101  -34.6411    4.9004  H     
38   H        23.6373  -34.4799    4.3621  H     
39   H        24.5679  -35.7466    7.0027  H     
40   H        22.1556  -35.9685    7.5516  H     
41   H        21.6963  -35.2779    5.9789  H     
42   H        21.5150  -37.7403    5.9016  H     
43   H        23.1799  -37.9259    6.4667  H     
44   H        24.7411  -33.4731    7.1071  H     
45   H        23.3462  -33.8729    7.9305  H     
46   H        23.2536  -33.2006    6.4017  H     
@<TRIPOS>BOND
     1    1    2 2
     2    1    4 1
     3    1   13 1
     4    2    3 1
     5    3    6 2
     6    4    5 2
     7    5    6 1
     8    5    9 1
     9    6    7 1
    10    7    8 1
    11    8    9 2
    12    8   10 1
    13   10   11 1
    14   10   12 2
    15   13   14 2
    16   13   18 1
    17   14   15 1
    18   15   16 2
    19   16   17 1
    20   17   18 2
    21   17   19 1
    22   20   19 1
    23   20   21 1
    24   20   25 1
    25   21   22 1
    26   22   23 1
    27   23   24 1
    28   23   26 1
    29   24   25 1
    30    2   27 1
    31    3   28 1
    32    4   29 1
    33    9   30 1
    34   14   31 1
    35   16   32 1
    36   19   33 1
    37   20   34 1
    38   21   35 1
    39   21   36 1
    40   22   37 1
    41   22   38 1
    42   23   39 1
    43   24   40 1
    44   24   41 1
    45   25   42 1
    46   25   43 1
    47   26   44 1
    48   26   45 1
    49   26   46 1
@<TRIPOS>PROPERTY_DATA
  Total_Score	| 8.0526
  Crash		| -0.5884
  Polar		| 3.2009
  FragIndex	| 1
  FragRMSD	| 0.174

