@<TRIPOS>MOLECULE
BindingDB_50345239
 40 43 0 0 0
SMALL
NO_CHARGES


@<TRIPOS>ATOM
1    C        23.4280  -37.3633   -0.9352  C     
2    C        23.7011  -37.5851   -2.3072  C     
3    C        23.7052  -36.5146   -3.2267  C     
4    C        23.1389  -36.0534   -0.4842  C     
5    C        23.1111  -35.0041   -1.4227  C     
6    C        23.4013  -35.2238   -2.7617  C     
7    O        23.3055  -34.0792   -3.4886  O     
8    C        22.8837  -33.1897   -2.5664  C     
9    C        22.7814  -33.7060   -1.3374  C     
10   C        22.5786  -31.8930   -2.9149  C     
11   O        22.0848  -31.0041   -2.0220  O     
12   O        22.8058  -31.4582   -4.1756  O     
13   C        23.4057  -38.4472   -0.0349  C     
14   C        22.9973  -39.7482   -0.2830  C     
15   N        23.1504  -40.4614    0.8395  N     
16   N        23.6278  -39.6980    1.7816  N     
17   C        23.8068  -38.4551    1.2948  C     
18   C        24.0050  -40.1363    3.1024  C     
19   C        23.4419  -39.2305    4.2328  C     
20   C        23.9080  -39.7322    5.6236  C     
21   N        23.5404  -41.1518    5.8276  N     
22   C        24.1024  -42.0664    4.8053  C     
23   C        23.6699  -41.6390    3.3809  C     
24   H        23.9180  -38.5302   -2.6473  H     
25   H        23.8993  -36.6783   -4.2147  H     
26   H        22.9177  -35.8670    0.4987  H     
27   H        22.4643  -33.2405   -0.5212  H     
28   H        22.6216  -40.1062   -1.1624  H     
29   H        24.2002  -37.6519    1.7910  H     
30   H        25.0913  -40.0502    3.1465  H     
31   H        23.7896  -38.2034    4.1023  H     
32   H        22.3482  -39.2223    4.1972  H     
33   H        24.9918  -39.6127    5.7242  H     
34   H        23.4350  -39.1348    6.4088  H     
35   H        23.8634  -41.4456    6.7476  H     
36   H        22.5214  -41.2263    5.7987  H     
37   H        25.1904  -42.0749    4.8775  H     
38   H        23.7424  -43.0747    5.0134  H     
39   H        22.5897  -41.7937    3.2790  H     
40   H        24.1796  -42.2765    2.6476  H     
@<TRIPOS>BOND
     1    1    2 2
     2    1    4 1
     3    1   13 1
     4    2    3 1
     5    3    6 2
     6    4    5 2
     7    5    6 1
     8    5    9 1
     9    6    7 1
    10    7    8 1
    11    8    9 2
    12    8   10 1
    13   10   11 1
    14   10   12 2
    15   13   14 1
    16   13   17 2
    17   14   15 2
    18   15   16 1
    19   16   17 1
    20   16   18 1
    21   18   19 1
    22   18   23 1
    23   19   20 1
    24   20   21 1
    25   21   22 1
    26   22   23 1
    27    2   24 1
    28    3   25 1
    29    4   26 1
    30    9   27 1
    31   14   28 1
    32   17   29 1
    33   18   30 1
    34   19   31 1
    35   19   32 1
    36   20   33 1
    37   20   34 1
    38   21   35 1
    39   21   36 1
    40   22   37 1
    41   22   38 1
    42   23   39 1
    43   23   40 1
@<TRIPOS>PROPERTY_DATA
  Total_Score	| 6.2697
  Crash		| -0.9925
  Polar		| 1.6153
  FragIndex	| 1
  FragRMSD	| 0.278

