@<TRIPOS>MOLECULE
BindingDB_50345246
 37 40 0 0 0
SMALL
NO_CHARGES


@<TRIPOS>ATOM
1    C        23.3347  -37.3759   -0.6750  C     
2    C        23.6363  -37.6119   -2.0470  C     
3    C        23.6393  -36.5691   -3.0019  C     
4    C        23.0470  -36.0371   -0.2925  C     
5    C        23.0602  -35.0147   -1.2562  C     
6    C        23.3508  -35.2652   -2.5870  C     
7    O        23.2589  -34.1342   -3.3415  O     
8    C        22.8707  -33.2185   -2.4241  C     
9    C        22.7689  -33.7076   -1.1848  C     
10   C        22.5548  -31.9360   -2.7988  C     
11   O        22.1027  -31.0229   -1.9080  O     
12   O        22.6908  -31.5614   -4.0888  O     
13   C        23.3239  -38.4260    0.3063  C     
14   C        23.2589  -39.8116   -0.0084  C     
15   N        23.2490  -40.7279    0.9863  N     
16   C        23.2881  -40.3915    2.3006  C     
17   C        23.3364  -39.0269    2.6550  C     
18   N        23.3471  -38.1194    1.6405  N     
19   N        23.3330  -38.6969    3.9730  N     
20   C        23.3665  -37.4060    4.5824  C     
21   C        24.5413  -36.4810    4.2177  C     
22   N        23.5957  -35.4753    3.7238  N     
23   C        22.4134  -36.3121    4.0598  C     
24   H        23.8915  -38.5453   -2.3648  H     
25   H        23.8475  -36.7546   -3.9825  H     
26   H        22.8075  -35.7906    0.6688  H     
27   H        22.4727  -33.2272   -0.3587  H     
28   H        23.2062  -40.1544   -0.9710  H     
29   H        23.2750  -41.1325    3.0058  H     
30   H        23.2953  -39.4394    4.5910  H     
31   H        23.2789  -37.5238    5.6757  H     
32   H        25.0934  -36.1223    5.0881  H     
33   H        25.1928  -36.8449    3.4216  H     
34   H        23.6437  -34.6109    4.2742  H     
35   H        23.6969  -35.3121    2.7101  H     
36   H        21.8408  -36.6039    3.1688  H     
37   H        21.7772  -35.8762    4.8409  H     
@<TRIPOS>BOND
     1    1    2 2
     2    1    4 1
     3    1   13 1
     4    2    3 1
     5    3    6 2
     6    4    5 2
     7    5    6 1
     8    5    9 1
     9    6    7 1
    10    7    8 1
    11    8    9 2
    12    8   10 1
    13   10   11 1
    14   10   12 2
    15   13   14 2
    16   13   18 1
    17   14   15 1
    18   15   16 2
    19   16   17 1
    20   17   18 2
    21   17   19 1
    22   19   20 1
    23   20   21 1
    24   20   23 1
    25   21   22 1
    26   22   23 1
    27    2   24 1
    28    3   25 1
    29    4   26 1
    30    9   27 1
    31   14   28 1
    32   16   29 1
    33   19   30 1
    34   20   31 1
    35   21   32 1
    36   21   33 1
    37   22   34 1
    38   22   35 1
    39   23   36 1
    40   23   37 1
@<TRIPOS>PROPERTY_DATA
  Total_Score	| 5.9703
  Crash		| -0.3838
  Polar		| 1.6520
  FragIndex	| 1
  FragRMSD	| 0.467

