@<TRIPOS>MOLECULE
BindingDB_50345237
 27 29 0 0 0
SMALL
NO_CHARGES


@<TRIPOS>ATOM
1    C        23.5703  -37.3771   -0.8078  C     
2    C        23.7424  -37.6385   -2.1942  C     
3    C        23.6743  -36.5914   -3.1418  C     
4    C        23.2628  -36.0555   -0.3907  C     
5    C        23.1645  -35.0388   -1.3542  C     
6    C        23.3886  -35.2881   -2.6992  C     
7    O        23.2456  -34.1540   -3.4395  O     
8    C        22.8697  -33.2495   -2.5107  C     
9    C        22.8367  -33.7419   -1.2720  C     
10   C        22.5153  -31.9651   -2.8566  C     
11   O        22.0559  -31.0663   -1.9529  O     
12   O        22.6071  -31.5754   -4.1478  O     
13   C        23.7085  -38.4048    0.1566  C     
14   C        24.5482  -38.3934    1.2665  C     
15   N        24.3427  -39.5139    1.9792  N     
16   N        23.4305  -40.2242    1.3857  N     
17   C        23.0227  -39.6105    0.2542  C     
18   C        22.9388  -41.4415    1.9351  C     
19   H        23.9464  -38.5881   -2.5213  H     
20   H        23.8162  -36.7693   -4.1373  H     
21   H        23.0962  -35.8380    0.5950  H     
22   H        22.5556  -33.2602   -0.4520  H     
23   H        25.2115  -37.6566    1.5179  H     
24   H        22.3040  -39.9423   -0.3867  H     
25   H        23.7299  -42.1955    1.9235  H     
26   H        22.0827  -41.8193    1.3738  H     
27   H        22.6226  -41.2799    2.9693  H     
@<TRIPOS>BOND
     1    1    2 2
     2    1    4 1
     3    1   13 1
     4    2    3 1
     5    3    6 2
     6    4    5 2
     7    5    6 1
     8    5    9 1
     9    6    7 1
    10    7    8 1
    11    8    9 2
    12    8   10 1
    13   10   11 1
    14   10   12 2
    15   13   14 1
    16   13   17 2
    17   14   15 2
    18   15   16 1
    19   16   17 1
    20   16   18 1
    21    2   19 1
    22    3   20 1
    23    4   21 1
    24    9   22 1
    25   14   23 1
    26   17   24 1
    27   18   25 1
    28   18   26 1
    29   18   27 1
@<TRIPOS>PROPERTY_DATA
  Total_Score	| 6.2726
  Crash		| -0.5149
  Polar		| 1.6702
  FragIndex	| 1
  FragRMSD	| 0.300

