@<TRIPOS>MOLECULE
BindingDB_50345245
 49 52 0 0 0
SMALL
NO_CHARGES


@<TRIPOS>ATOM
1    C        23.2935  -37.4286   -0.5075  C     
2    C        23.8608  -37.5892   -1.8079  C     
3    C        23.9183  -36.5168   -2.7275  C     
4    C        22.7860  -36.1450   -0.1617  C     
5    C        22.8569  -35.0894   -1.0889  C     
6    C        23.4069  -35.2650   -2.3503  C     
7    O        23.3832  -34.1098   -3.0784  O     
8    C        22.7943  -33.2491   -2.2154  C     
9    C        22.4633  -33.8028   -1.0435  C     
10   C        22.5756  -31.9360   -2.5748  C     
11   O        21.9659  -31.0549   -1.7464  O     
12   O        23.0147  -31.4776   -3.7717  O     
13   C        23.2804  -38.4902    0.4510  C     
14   C        23.1164  -39.8533    0.1017  C     
15   N        23.1534  -40.7915    1.0791  N     
16   C        23.3079  -40.4794    2.3942  C     
17   C        23.4617  -39.1248    2.7651  C     
18   N        23.4246  -38.2009    1.7708  N     
19   N        23.6101  -38.7977    4.0728  N     
20   C        23.7217  -37.4910    4.6628  C     
21   C        22.3398  -36.8165    4.8902  C     
22   C        22.4697  -35.4222    5.5599  C     
23   C        23.4415  -34.4763    4.7827  C     
24   C        24.8266  -35.1585    4.5907  C     
25   C        24.7024  -36.5429    3.9069  C     
26   C        23.5336  -33.0929    5.4929  C     
27   N        24.7969  -32.3828    5.2397  N     
28   H        24.2662  -38.4812   -2.1047  H     
29   H        24.3270  -36.6359   -3.6627  H     
30   H        22.3641  -35.9792    0.7535  H     
31   H        22.0310  -33.3523   -0.2722  H     
32   H        22.9707  -40.1545   -0.8706  H     
33   H        23.3208  -41.2233    3.0985  H     
34   H        23.6381  -39.5420    4.6851  H     
35   H        24.1521  -37.6561    5.6546  H     
36   H        21.8120  -36.7043    3.9377  H     
37   H        21.7326  -37.4583    5.5357  H     
38   H        21.4703  -34.9732    5.6175  H     
39   H        22.8334  -35.5585    6.5855  H     
40   H        23.0068  -34.3002    3.7902  H     
41   H        25.4396  -34.5117    3.9466  H     
42   H        25.3280  -35.2602    5.5596  H     
43   H        25.7003  -37.0025    3.8595  H     
44   H        24.3531  -36.3853    2.8841  H     
45   H        22.7235  -32.4472    5.1341  H     
46   H        23.4243  -33.2005    6.5827  H     
47   H        25.5595  -32.8626    5.7341  H     
48   H        24.7232  -31.4214    5.5761  H     
49   H        24.9915  -32.3788    4.2328  H     
@<TRIPOS>BOND
     1    1    2 2
     2    1    4 1
     3    1   13 1
     4    2    3 1
     5    3    6 2
     6    4    5 2
     7    5    6 1
     8    5    9 1
     9    6    7 1
    10    7    8 1
    11    8    9 2
    12    8   10 1
    13   10   11 1
    14   10   12 2
    15   13   14 2
    16   13   18 1
    17   14   15 1
    18   15   16 2
    19   16   17 1
    20   17   18 2
    21   17   19 1
    22   20   19 1
    23   20   21 1
    24   20   25 1
    25   21   22 1
    26   22   23 1
    27   23   24 1
    28   23   26 1
    29   24   25 1
    30   26   27 1
    31    2   28 1
    32    3   29 1
    33    4   30 1
    34    9   31 1
    35   14   32 1
    36   16   33 1
    37   19   34 1
    38   20   35 1
    39   21   36 1
    40   21   37 1
    41   22   38 1
    42   22   39 1
    43   23   40 1
    44   24   41 1
    45   24   42 1
    46   25   43 1
    47   25   44 1
    48   26   45 1
    49   26   46 1
    50   27   47 1
    51   27   48 1
    52   27   49 1
@<TRIPOS>PROPERTY_DATA
  Total_Score	| 8.3568
  Crash		| -0.8004
  Polar		| 3.4329
  FragIndex	| 1
  FragRMSD	| 0.567

