@<TRIPOS>MOLECULE
BindingDB_28397
 47 49 0 0 0
SMALL
NO_CHARGES


@<TRIPOS>ATOM
1    N        23.3045  -40.6845    1.0301  N     
2    C        23.2943  -40.2514    2.3155  C     
3    C        23.2462  -38.8685    2.5868  C     
4    N        23.2409  -38.0261    1.5125  N     
5    C        23.2948  -38.4197    0.2111  C     
6    C        23.3202  -39.8150   -0.0115  C     
7    N        23.1467  -38.4488    3.8744  N     
8    C        23.2499  -37.4655   -0.8464  C     
9    C        23.7166  -37.8013   -2.1439  C     
10   C        22.7742  -36.1470   -0.6194  C     
11   C        22.6883  -35.2058   -1.6809  C     
12   C        23.1071  -35.5939   -2.9739  C     
13   C        23.6208  -36.8796   -3.1981  C     
14   C        22.2772  -33.9091   -1.4883  C     
15   C        22.7963  -32.9187   -2.2146  C     
16   C        22.2266  -31.6933   -2.3205  C     
17   O        21.7326  -31.0498   -1.2222  O     
18   O        22.1072  -31.0927   -3.5395  O     
19   C        23.0515  -37.0799    4.2782  C     
20   C        24.4592  -36.4344    4.2246  C     
21   C        24.4395  -34.9806    4.7512  C     
22   C        23.8567  -34.9052    6.1915  C     
23   C        22.4314  -35.5252    6.2309  C     
24   C        22.4431  -36.9859    5.7071  C     
25   N        23.8637  -33.5207    6.6598  N     
26   H        23.3078  -40.9382    3.0743  H     
27   H        23.2829  -40.1904   -0.9533  H     
28   H        23.1086  -39.1314    4.5691  H     
29   H        24.1328  -38.7247   -2.3555  H     
30   H        22.4438  -35.9093    0.3168  H     
31   H        23.0608  -34.9225   -3.7494  H     
32   H        23.9679  -37.1303   -4.1315  H     
33   H        21.5174  -33.7297   -0.8344  H     
34   H        23.5864  -33.1109   -2.8286  H     
35   H        22.3769  -36.5388    3.6037  H     
36   H        25.1661  -37.0124    4.8275  H     
37   H        24.8316  -36.4224    3.1947  H     
38   H        25.4541  -34.5703    4.7373  H     
39   H        23.8393  -34.3605    4.0763  H     
40   H        24.5052  -35.4834    6.8569  H     
41   H        22.0571  -35.5030    7.2595  H     
42   H        21.7460  -34.9256    5.6204  H     
43   H        21.4167  -37.3645    5.7019  H     
44   H        23.0070  -37.6040    6.4062  H     
45   H        24.8266  -33.2199    6.8365  H     
46   H        23.3427  -33.4582    7.5283  H     
47   H        23.4226  -32.9107    5.9678  H     
@<TRIPOS>BOND
     1    1    2 2
     2    1    6 1
     3    2    3 1
     4    3    4 2
     5    3    7 1
     6    4    5 1
     7    5    6 2
     8    5    8 1
     9   19    7 1
    10    8    9 1
    11    8   10 2
    12    9   13 2
    13   10   11 1
    14   11   12 2
    15   11   14 1
    16   12   13 1
    17   14   15 2
    18   15   16 1
    19   16   17 1
    20   16   18 2
    21   19   20 1
    22   19   24 1
    23   20   21 1
    24   21   22 1
    25   22   23 1
    26   22   25 1
    27   23   24 1
    28    2   26 1
    29    6   27 1
    30    7   28 1
    31    9   29 1
    32   10   30 1
    33   12   31 1
    34   13   32 1
    35   14   33 1
    36   15   34 1
    37   19   35 1
    38   20   36 1
    39   20   37 1
    40   21   38 1
    41   21   39 1
    42   22   40 1
    43   23   41 1
    44   23   42 1
    45   24   43 1
    46   24   44 1
    47   25   45 1
    48   25   46 1
    49   25   47 1
@<TRIPOS>PROPERTY_DATA
  Total_Score	| 7.2893
  Crash		| -1.3957
  Polar		| 3.2336
  FragIndex	| 1
  FragRMSD	| 0.429

