@<TRIPOS>MOLECULE
BindingDB_50345236
 25 27 0 0 0
SMALL
NO_CHARGES


@<TRIPOS>ATOM
1    C        23.3811  -37.3985   -0.7115  C     
2    C        23.6735  -37.6423   -2.0829  C     
3    C        23.6692  -36.5939   -3.0269  C     
4    C        23.0705  -36.0740   -0.3064  C     
5    C        23.0619  -35.0486   -1.2670  C     
6    C        23.3695  -35.2901   -2.5997  C     
7    O        23.2787  -34.1605   -3.3507  O     
8    C        22.8697  -33.2491   -2.4426  C     
9    C        22.7502  -33.7438   -1.2033  C     
10   C        22.5963  -31.9447   -2.8057  C     
11   O        22.1518  -31.0226   -1.9194  O     
12   O        22.7696  -31.5436   -4.0857  O     
13   C        23.3874  -38.4424    0.2502  C     
14   C        23.1006  -39.7918   -0.0619  C     
15   N        23.1066  -40.7246    0.9263  N     
16   C        23.3943  -40.4081    2.2194  C     
17   C        23.6967  -39.0736    2.5450  C     
18   N        23.6826  -38.1478    1.5547  N     
19   H        23.8978  -38.5875   -2.4044  H     
20   H        23.8798  -36.7753   -4.0113  H     
21   H        22.8291  -35.8565    0.6625  H     
22   H        22.4399  -33.2590   -0.3935  H     
23   H        22.8798  -40.0812   -1.0176  H     
24   H        23.3942  -41.1314    2.9372  H     
25   H        23.9289  -38.8019    3.5005  H     
@<TRIPOS>BOND
     1    1    2 2
     2    1    4 1
     3    1   13 1
     4    2    3 1
     5    3    6 2
     6    4    5 2
     7    5    6 1
     8    5    9 1
     9    6    7 1
    10    7    8 1
    11    8    9 2
    12    8   10 1
    13   10   11 1
    14   10   12 2
    15   13   14 2
    16   13   18 1
    17   14   15 1
    18   15   16 2
    19   16   17 1
    20   17   18 2
    21    2   19 1
    22    3   20 1
    23    4   21 1
    24    9   22 1
    25   14   23 1
    26   16   24 1
    27   17   25 1
@<TRIPOS>PROPERTY_DATA
  Total_Score	| 5.7508
  Crash		| -0.2395
  Polar		| 1.6109
  FragIndex	| 1
  FragRMSD	| 0.187

