@<TRIPOS>MOLECULE
BindingDB_50345241
 42 44 0 0 0
SMALL
NO_CHARGES


@<TRIPOS>ATOM
1    C        23.4718  -37.3724   -0.6725  C     
2    C        23.8213  -37.6171   -2.0294  C     
3    C        23.7938  -36.5816   -2.9906  C     
4    C        23.0848  -36.0555   -0.3040  C     
5    C        23.0642  -35.0407   -1.2731  C     
6    C        23.4095  -35.2897   -2.5915  C     
7    O        23.3044  -34.1655   -3.3626  O     
8    C        22.8619  -33.2553   -2.4692  C     
9    C        22.7219  -33.7455   -1.2317  C     
10   C        22.5631  -31.9617   -2.8440  C     
11   O        22.1017  -31.0425   -1.9661  O     
12   O        22.7387  -31.5700   -4.1258  O     
13   C        23.5216  -38.3962    0.3203  C     
14   C        23.2024  -39.7519    0.0694  C     
15   C        23.3103  -40.6817    1.1169  C     
16   N        23.7081  -40.2697    2.3448  N     
17   C        23.9981  -38.9688    2.6045  C     
18   N        23.8987  -38.0684    1.5899  N     
19   N        24.3813  -38.6520    3.8630  N     
20   C        24.7067  -37.3485    4.3591  C     
21   C        23.4855  -36.3902    4.3598  C     
22   C        23.5729  -35.2080    5.3725  C     
23   C        23.8745  -33.7984    4.7929  C     
24   N        25.2933  -33.5470    4.5336  N     
25   H        24.1280  -38.5424   -2.3310  H     
26   H        24.0466  -36.7674   -3.9645  H     
27   H        22.8082  -35.8276    0.6549  H     
28   H        22.4004  -33.2606   -0.4283  H     
29   H        22.8836  -40.0649   -0.8470  H     
30   H        23.0979  -41.6683    0.9627  H     
31   H        24.4583  -39.3853    4.4947  H     
32   H        25.0549  -37.4809    5.3839  H     
33   H        25.5214  -36.9166    3.7820  H     
34   H        23.3350  -35.9964    3.3492  H     
35   H        22.5939  -36.9824    4.6075  H     
36   H        22.6094  -35.1454    5.8861  H     
37   H        24.3142  -35.4462    6.1424  H     
38   H        23.3318  -33.6427    3.8599  H     
39   H        23.5501  -33.0514    5.5122  H     
40   H        25.8438  -33.7416    5.3764  H     
41   H        25.4253  -32.5597    4.2771  H     
42   H        25.6192  -34.1460    3.7654  H     
@<TRIPOS>BOND
     1    1    2 2
     2    1    4 1
     3    1   13 1
     4    2    3 1
     5    3    6 2
     6    4    5 2
     7    5    6 1
     8    5    9 1
     9    6    7 1
    10    7    8 1
    11    8    9 2
    12    8   10 1
    13   10   11 1
    14   10   12 2
    15   13   14 2
    16   13   18 1
    17   14   15 1
    18   15   16 2
    19   16   17 1
    20   17   18 2
    21   17   19 1
    22   19   20 1
    23   20   21 1
    24   21   22 1
    25   22   23 1
    26   23   24 1
    27    2   25 1
    28    3   26 1
    29    4   27 1
    30    9   28 1
    31   14   29 1
    32   15   30 1
    33   19   31 1
    34   20   32 1
    35   20   33 1
    36   21   34 1
    37   21   35 1
    38   22   36 1
    39   22   37 1
    40   23   38 1
    41   23   39 1
    42   24   40 1
    43   24   41 1
    44   24   42 1
@<TRIPOS>PROPERTY_DATA
  Total_Score	| 8.3725
  Crash		| -0.4945
  Polar		| 4.5185
  FragIndex	| 1
  FragRMSD	| 0.951

