@<TRIPOS>MOLECULE
BindingDB_50345243
 46 49 0 0 0
SMALL
NO_CHARGES


@<TRIPOS>ATOM
1    C        23.3071  -37.3278   -0.4021  C     
2    C        23.9065  -37.5071   -1.6841  C     
3    C        23.9490  -36.4668   -2.6358  C     
4    C        22.7386  -36.0576   -0.1113  C     
5    C        22.8021  -35.0300   -1.0684  C     
6    C        23.3954  -35.2225   -2.3060  C     
7    O        23.3639  -34.0920   -3.0651  O     
8    C        22.7460  -33.2195   -2.2429  C     
9    C        22.3964  -33.7500   -1.0658  C     
10   C        22.5299  -31.9130   -2.6219  C     
11   O        22.9505  -31.4789   -3.8298  O     
12   O        21.9551  -31.0124   -1.7948  O     
13   C        23.3152  -38.3607    0.5914  C     
14   C        23.4832  -39.7343    0.2979  C     
15   N        23.5563  -40.6366    1.3055  N     
16   C        23.4613  -40.2826    2.6076  C     
17   C        23.2330  -38.9354    2.9447  C     
18   N        23.1788  -38.0463    1.9141  N     
19   N        23.0669  -38.6493    4.2584  N     
20   C        22.6154  -37.4805    4.9653  C     
21   C        23.6372  -37.0979    6.0804  C     
22   C        24.7723  -36.1674    5.5841  C     
23   C        24.1888  -34.8857    4.9365  C     
24   C        23.2698  -35.2615    3.7455  C     
25   C        22.1303  -36.2194    4.1821  C     
26   N        25.2627  -33.9900    4.4889  N     
27   H        24.3600  -38.3865   -1.9356  H     
28   H        24.3915  -36.6072   -3.5452  H     
29   H        22.2848  -35.8677    0.7846  H     
30   H        21.9377  -33.2914   -0.3139  H     
31   H        23.5420  -40.0799   -0.6578  H     
32   H        23.5187  -41.0084    3.3260  H     
33   H        23.1964  -39.4168    4.8395  H     
34   H        21.7280  -37.8488    5.4895  H     
35   H        23.1040  -36.5826    6.8853  H     
36   H        24.0779  -37.9983    6.5179  H     
37   H        25.4068  -35.8925    6.4310  H     
38   H        25.3899  -36.7059    4.8595  H     
39   H        23.6055  -34.3379    5.6825  H     
40   H        22.8296  -34.3534    3.3240  H     
41   H        23.8703  -35.7300    2.9637  H     
42   H        21.5455  -36.5171    3.3095  H     
43   H        21.4555  -35.6525    4.8321  H     
44   H        25.8382  -33.7240    5.2897  H     
45   H        24.8580  -33.1493    4.0718  H     
46   H        25.8419  -34.4652    3.7936  H     
@<TRIPOS>BOND
     1    1    2 2
     2    1    4 1
     3    1   13 1
     4    2    3 1
     5    3    6 2
     6    4    5 2
     7    5    6 1
     8    5    9 1
     9    6    7 1
    10    7    8 1
    11    8    9 2
    12    8   10 1
    13   10   11 1
    14   10   12 2
    15   13   14 2
    16   13   18 1
    17   14   15 1
    18   15   16 2
    19   16   17 1
    20   17   18 2
    21   17   19 1
    22   20   19 1
    23   20   21 1
    24   20   25 1
    25   21   22 1
    26   22   23 1
    27   23   24 1
    28   23   26 1
    29   24   25 1
    30    2   27 1
    31    3   28 1
    32    4   29 1
    33    9   30 1
    34   14   31 1
    35   16   32 1
    36   19   33 1
    37   20   34 1
    38   21   35 1
    39   21   36 1
    40   22   37 1
    41   22   38 1
    42   23   39 1
    43   24   40 1
    44   24   41 1
    45   25   42 1
    46   25   43 1
    47   26   44 1
    48   26   45 1
    49   26   46 1
@<TRIPOS>PROPERTY_DATA
  Total_Score	| 8.1471
  Crash		| -0.5851
  Polar		| 3.3832
  FragIndex	| 1
  FragRMSD	| 1.237

