@<TRIPOS>MOLECULE
BindingDB_50345238
 46 49 0 0 0
SMALL
NO_CHARGES


@<TRIPOS>ATOM
1    C        23.4577  -37.3566   -0.7468  C     
2    C        23.6425  -37.6359   -2.1374  C     
3    C        23.5889  -36.6100   -3.1066  C     
4    C        23.2210  -36.0124   -0.3626  C     
5    C        23.1696  -35.0022   -1.3376  C     
6    C        23.3484  -35.2877   -2.6901  C     
7    O        23.1975  -34.1866   -3.4652  O     
8    C        22.8854  -33.2361   -2.5528  C     
9    C        22.8840  -33.6943   -1.2946  C     
10   C        22.5197  -31.9790   -2.9454  C     
11   O        22.1810  -31.0197   -2.0435  O     
12   O        22.4569  -31.6636   -4.2593  O     
13   C        23.4885  -38.3783    0.2345  C     
14   C        23.1190  -39.7325   -0.0186  C     
15   N        23.2124  -40.6554    0.9759  N     
16   C        23.6338  -40.3430    2.2199  C     
17   C        23.9966  -39.0056    2.5089  C     
18   N        23.9009  -38.0860    1.5036  N     
19   N        24.4478  -38.7081    3.7530  N     
20   C        24.8599  -37.4269    4.2602  C     
21   C        24.0141  -36.9476    5.4705  C     
22   C        23.8769  -38.0459    6.5761  C     
23   C        23.0739  -37.5343    7.8043  C     
24   N        23.6917  -36.3113    8.3582  N     
25   C        23.8186  -35.2127    7.3720  C     
26   C        24.6082  -35.6456    6.1106  C     
27   H        23.8437  -38.5828   -2.4649  H     
28   H        23.7003  -36.8199   -4.1023  H     
29   H        23.0614  -35.7596    0.6185  H     
30   H        22.6516  -33.1867   -0.4740  H     
31   H        22.7686  -40.0313   -0.9320  H     
32   H        23.6978  -41.0812    2.9386  H     
33   H        24.4955  -39.4629    4.3772  H     
34   H        25.9125  -37.5609    4.5682  H     
35   H        24.8193  -36.6472    3.4912  H     
36   H        23.0206  -36.7257    5.0843  H     
37   H        23.3532  -38.9268    6.2013  H     
38   H        24.8657  -38.3600    6.9141  H     
39   H        22.0459  -37.3162    7.5023  H     
40   H        23.0591  -38.3012    8.5792  H     
41   H        23.1242  -35.9787    9.1303  H     
42   H        24.6159  -36.5484    8.7322  H     
43   H        22.8168  -34.8781    7.0825  H     
44   H        24.3287  -34.3686    7.8419  H     
45   H        25.6474  -35.8204    6.3876  H     
46   H        24.5776  -34.8384    5.3709  H     
@<TRIPOS>BOND
     1    1    2 2
     2    1    4 1
     3    1   13 1
     4    2    3 1
     5    3    6 2
     6    4    5 2
     7    5    6 1
     8    5    9 1
     9    6    7 1
    10    7    8 1
    11    8    9 2
    12    8   10 1
    13   10   11 1
    14   10   12 2
    15   13   14 2
    16   13   18 1
    17   14   15 1
    18   15   16 2
    19   16   17 1
    20   17   18 2
    21   17   19 1
    22   19   20 1
    23   20   21 1
    24   21   22 1
    25   21   26 1
    26   22   23 1
    27   23   24 1
    28   24   25 1
    29   25   26 1
    30    2   27 1
    31    3   28 1
    32    4   29 1
    33    9   30 1
    34   14   31 1
    35   16   32 1
    36   19   33 1
    37   20   34 1
    38   20   35 1
    39   21   36 1
    40   22   37 1
    41   22   38 1
    42   23   39 1
    43   23   40 1
    44   24   41 1
    45   24   42 1
    46   25   43 1
    47   25   44 1
    48   26   45 1
    49   26   46 1
@<TRIPOS>PROPERTY_DATA
  Total_Score	| 7.9276
  Crash		| -0.3550
  Polar		| 3.0951
  FragIndex	| 1
  FragRMSD	| 0.880

