@<TRIPOS>MOLECULE
BindingDB_50329824
 44 46 0 0 0
SMALL
NO_CHARGES


@<TRIPOS>ATOM
1    C        -5.5155    4.7917   15.1469  C     
2    C        -5.8267    3.5697   15.7737  C     
3    C        -5.1339    2.3985   15.3898  C     
4    C        -4.1508    2.4807   14.3700  C     
5    C        -3.8342    3.7000   13.7170  C     
6    C        -4.5409    4.8563   14.1396  C     
7    Cl       -7.0227    3.6088   16.9902  Cl    
8    C        -2.8630    3.7625   12.6836  C     
9    C        -2.6119    4.9367   11.8524  C     
10   O        -2.1777    2.7698   12.4569  O     
11   S        -5.4404    0.8550   16.1639  S     
12   N        -4.6551   -0.4799   15.5059  N     
13   O        -4.8682    0.9432   17.6482  O     
14   O        -6.9883    0.5027   16.3742  O     
15   N        -1.8135    4.7236   10.6493  N     
16   N        -1.2144    4.2927    8.5293  N     
17   C        -2.2277    4.6842    9.3401  C     
18   C        -0.1510    4.1226    9.3341  C     
19   C        -0.4942    4.4200   10.6501  C     
20   C         0.4644    4.2809   11.6689  C     
21   C         1.7617    3.8361   11.3468  C     
22   C         2.0813    3.4846   10.0078  C     
23   C         1.1289    3.6586    8.9781  C     
24   C        -3.5904    4.8301    8.7691  C     
25   C        -3.7861    5.8788    7.6432  C     
26   C        -3.5556    5.3353    6.2211  C     
27   H        -6.0029    5.6484   15.4243  H     
28   H        -3.6748    1.6206   14.1059  H     
29   H        -4.3496    5.7660   13.7374  H     
30   H        -3.5679    5.3759   11.5662  H     
31   H        -2.1059    5.7061   12.4544  H     
32   H        -4.1140   -1.0506   16.0755  H     
33   H        -4.8561   -0.7585   14.6008  H     
34   H         0.2176    4.5029   12.6303  H     
35   H         2.4572    3.7178   12.0846  H     
36   H         3.0217    3.1077    9.7909  H     
37   H         1.3747    3.3982    8.0096  H     
38   H        -3.8756    3.8426    8.3744  H     
39   H        -4.3237    5.0877    9.5579  H     
40   H        -4.8118    6.2660    7.6939  H     
41   H        -3.1212    6.7431    7.7989  H     
42   H        -2.5019    5.1016    6.0644  H     
43   H        -3.8806    6.0751    5.4482  H     
44   H        -4.1401    4.4288    6.0752  H     
@<TRIPOS>BOND
     1    1    2 2
     2    1    6 1
     3    2    3 1
     4    2    7 1
     5    3    4 2
     6    3   11 1
     7    4    5 1
     8    5    6 2
     9    5    8 1
    10    8    9 1
    11    8   10 2
    12    9   15 1
    13   11   12 am
    14   11   13 2
    15   11   14 2
    16   15   17 1
    17   15   19 1
    18   16   17 2
    19   16   18 1
    20   17   24 1
    21   18   19 2
    22   18   23 1
    23   19   20 1
    24   20   21 2
    25   21   22 1
    26   22   23 2
    27   24   25 1
    28   25   26 1
    29    1   27 1
    30    4   28 1
    31    6   29 1
    32    9   30 1
    33    9   31 1
    34   12   32 1
    35   12   33 1
    36   20   34 1
    37   21   35 1
    38   22   36 1
    39   23   37 1
    40   24   38 1
    41   24   39 1
    42   25   40 1
    43   25   41 1
    44   26   42 1
    45   26   43 1
    46   26   44 1
@<TRIPOS>PROPERTY_DATA
  Total_Score	| 5.0625
  Crash		| -1.6014
  Polar		| 2.9705
  FragIndex	| 1
  FragRMSD	| 0.555

