@<TRIPOS>MOLECULE
BindingDB_50329835
 36 38 0 0 0
SMALL
NO_CHARGES


@<TRIPOS>ATOM
1    C        -5.8140    4.8256   14.8581  C     
2    C        -6.0734    3.7760   15.7598  C     
3    C        -5.5125    2.4955   15.5243  C     
4    C        -4.6576    2.3114   14.4132  C     
5    C        -4.3966    3.3570   13.4938  C     
6    C        -4.9959    4.6153   13.7372  C     
7    Cl       -7.0439    4.1374   17.1053  Cl    
8    C        -3.5752    3.1480   12.3785  C     
9    C        -3.8234    3.7606   11.0824  C     
10   O        -2.6535    2.3425   12.4445  O     
11   S        -5.8099    1.1393   16.5873  S     
12   N        -7.3816    0.9533   17.1445  N     
13   O        -5.6038   -0.2317   15.8140  O     
14   O        -4.8038    1.0937   17.8167  O     
15   S        -2.7338    5.1836   10.8363  S     
16   C        -3.6198    5.8566    9.5055  C     
17   N        -3.3908    5.6057    8.2065  N     
18   N        -4.6538    6.7087    9.6443  N     
19   C        -5.0831    6.9913    8.4051  C     
20   C        -4.2833    6.3015    7.4960  C     
21   C        -6.3560    7.9421    6.5774  C     
22   C        -6.1269    7.8222    7.9650  C     
23   C        -5.5461    7.2386    5.6564  C     
24   C        -4.4959    6.4135    6.1122  C     
25   Br       -7.7299    9.0356    5.9641  Br    
26   H        -6.2130    5.7541   15.0127  H     
27   H        -4.2395    1.3906   14.2556  H     
28   H        -4.8190    5.4078   13.1153  H     
29   H        -3.6534    3.0396   10.2776  H     
30   H        -4.8666    4.0708   11.0104  H     
31   H        -7.8884    0.1533   16.9190  H     
32   H        -7.7754    1.6224   17.7286  H     
33   H        -2.7025    5.0201    7.8526  H     
34   H        -6.7077    8.3285    8.6356  H     
35   H        -5.7175    7.3291    4.6521  H     
36   H        -3.8990    5.9097    5.4557  H     
@<TRIPOS>BOND
     1    1    2 2
     2    1    6 1
     3    2    3 1
     4    2    7 1
     5    3    4 2
     6    3   11 1
     7    4    5 1
     8    5    6 2
     9    5    8 1
    10    8    9 1
    11    8   10 2
    12    9   15 1
    13   11   12 am
    14   11   13 2
    15   11   14 2
    16   15   16 1
    17   16   17 1
    18   16   18 2
    19   17   20 1
    20   18   19 1
    21   19   20 2
    22   19   22 1
    23   20   24 1
    24   21   22 2
    25   21   23 1
    26   21   25 1
    27   23   24 2
    28    1   26 1
    29    4   27 1
    30    6   28 1
    31    9   29 1
    32    9   30 1
    33   12   31 1
    34   12   32 1
    35   17   33 1
    36   22   34 1
    37   23   35 1
    38   24   36 1
@<TRIPOS>PROPERTY_DATA
  Total_Score	| 6.7924
  Crash		| -0.6095
  Polar		| 3.9272
  FragIndex	| 1
  FragRMSD	| 1.046

