@<TRIPOS>MOLECULE
BindingDB_50329823
 41 43 0 0 0
SMALL
NO_CHARGES


@<TRIPOS>ATOM
1    C        -5.8677    4.9373   15.0823  C     
2    C        -6.1409    3.8523   15.9374  C     
3    C        -5.6297    2.5694   15.6296  C     
4    C        -4.7876    2.4211   14.5138  C     
5    C        -4.4950    3.5056   13.6570  C     
6    C        -5.0550    4.7701   13.9487  C     
7    Cl       -7.0626    4.1743   17.3214  Cl    
8    C        -3.6627    3.3078   12.5579  C     
9    C        -4.0107    3.7114   11.1955  C     
10   O        -2.7035    2.5418   12.6914  O     
11   S        -5.9490    1.1595   16.6172  S     
12   N        -7.5374    0.9638   17.1300  N     
13   O        -5.6839   -0.1766   15.8006  O     
14   O        -4.9889    1.1278   17.8853  O     
15   N        -2.9045    4.2806   10.4495  N     
16   N        -1.6350    5.6721    9.2464  N     
17   C        -2.8289    5.5111    9.8545  C     
18   C        -0.9416    4.5498    9.4472  C     
19   C        -1.7369    3.6611   10.1744  C     
20   C        -1.2574    2.3724   10.4678  C     
21   C         0.0472    2.0219   10.0709  C     
22   C         0.8532    2.9356    9.3647  C     
23   C         0.3556    4.2091    9.0284  C     
24   C        -3.8508    6.5912    9.8184  C     
25   C        -5.1128    6.1924    9.0055  C     
26   H        -6.2488    5.8637   15.2770  H     
27   H        -4.4005    1.4961   14.3006  H     
28   H        -4.8566    5.5737   13.3517  H     
29   H        -4.3554    2.8226   10.6551  H     
30   H        -4.8671    4.4131   11.1968  H     
31   H        -7.8435    0.0893   17.4285  H     
32   H        -8.0924    1.7393   17.3043  H     
33   H        -1.8481    1.6937   10.9468  H     
34   H         0.3792    1.0843   10.2743  H     
35   H         1.7930    2.6576    9.0687  H     
36   H         0.9147    4.8682    8.4927  H     
37   H        -4.1400    6.8530   10.8444  H     
38   H        -3.4161    7.4887    9.3564  H     
39   H        -4.8214    5.7462    8.0422  H     
40   H        -5.7263    7.0836    8.8125  H     
41   H        -5.6937    5.4686    9.5997  H     
@<TRIPOS>BOND
     1    1    2 2
     2    1    6 1
     3    2    3 1
     4    2    7 1
     5    3    4 2
     6    3   11 1
     7    4    5 1
     8    5    6 2
     9    5    8 1
    10    8    9 1
    11    8   10 2
    12    9   15 1
    13   11   12 am
    14   11   13 2
    15   11   14 2
    16   15   17 1
    17   15   19 1
    18   16   17 2
    19   16   18 1
    20   17   24 1
    21   18   19 2
    22   18   23 1
    23   19   20 1
    24   20   21 2
    25   21   22 1
    26   22   23 2
    27   24   25 1
    28    1   26 1
    29    4   27 1
    30    6   28 1
    31    9   29 1
    32    9   30 1
    33   12   31 1
    34   12   32 1
    35   20   33 1
    36   21   34 1
    37   22   35 1
    38   23   36 1
    39   24   37 1
    40   24   38 1
    41   25   39 1
    42   25   40 1
    43   25   41 1
@<TRIPOS>PROPERTY_DATA
  Total_Score	| 5.6642
  Crash		| -1.8155
  Polar		| 3.8812
  FragIndex	| 1
  FragRMSD	| 1.455

