@<TRIPOS>MOLECULE
BindingDB_50329826
 44 46 0 0 0
SMALL
NO_CHARGES


@<TRIPOS>ATOM
1    C        -5.8660    4.9584   15.0474  C     
2    C        -6.1466    3.8562   15.8762  C     
3    C        -5.5653    2.5965   15.5862  C     
4    C        -4.7116    2.4760   14.4651  C     
5    C        -4.4315    3.5768   13.6143  C     
6    C        -5.0129    4.8212   13.9401  C     
7    Cl       -7.1573    4.1333   17.2125  Cl    
8    C        -3.5778    3.4488   12.5117  C     
9    C        -3.8849    3.9536   11.1666  C     
10   O        -2.6480    2.6653   12.6241  O     
11   S        -5.8221    1.1955   16.6011  S     
12   N        -7.3163    1.0520   17.3507  N     
13   O        -5.6798   -0.1763   15.8133  O     
14   O        -4.7116    1.1062   17.7339  O     
15   N        -2.7687    4.4700   10.4004  N     
16   N        -1.4719    5.7458    9.1333  N     
17   C        -2.6888    5.6499    9.7069  C     
18   C        -0.7928    4.6362    9.4050  C     
19   C        -1.6129    3.7980   10.1538  C     
20   C        -1.1553    2.4915   10.4361  C     
21   C         0.1306    2.0922   10.0150  C     
22   C         0.9625    2.9819    9.3086  C     
23   C         0.4953    4.2681    8.9833  C     
24   C        -3.6872    6.7166    9.3642  C     
25   C        -4.9419    6.1280    8.6689  C     
26   C        -4.0767    7.6883   10.5099  C     
27   H        -6.2664    5.8762   15.2563  H     
28   H        -4.2901    1.5664   14.2571  H     
29   H        -4.7844    5.6523   13.3989  H     
30   H        -4.3370    3.1408   10.5908  H     
31   H        -4.6580    4.7100   11.2558  H     
32   H        -7.9741    0.4416   16.9830  H     
33   H        -7.4338    1.3957   18.2508  H     
34   H        -1.7581    1.8092   10.8912  H     
35   H         0.4511    1.1417   10.1971  H     
36   H         1.8894    2.6815    9.0002  H     
37   H         1.0683    4.9102    8.4327  H     
38   H        -3.2190    7.3592    8.6082  H     
39   H        -4.6570    5.4459    7.8681  H     
40   H        -5.5421    6.9295    8.2337  H     
41   H        -5.5626    5.5928    9.3814  H     
42   H        -4.8703    7.2698   11.1297  H     
43   H        -4.4570    8.6234   10.0908  H     
44   H        -3.2097    7.9280   11.1286  H     
@<TRIPOS>BOND
     1    1    2 2
     2    1    6 1
     3    2    3 1
     4    2    7 1
     5    3    4 2
     6    3   11 1
     7    4    5 1
     8    5    6 2
     9    5    8 1
    10    8    9 1
    11    8   10 2
    12    9   15 1
    13   11   12 am
    14   11   13 2
    15   11   14 2
    16   15   17 1
    17   15   19 1
    18   16   17 2
    19   16   18 1
    20   17   24 1
    21   18   19 2
    22   18   23 1
    23   19   20 1
    24   20   21 2
    25   21   22 1
    26   22   23 2
    27   24   25 1
    28   24   26 1
    29    1   27 1
    30    4   28 1
    31    6   29 1
    32    9   30 1
    33    9   31 1
    34   12   32 1
    35   12   33 1
    36   20   34 1
    37   21   35 1
    38   22   36 1
    39   23   37 1
    40   24   38 1
    41   25   39 1
    42   25   40 1
    43   25   41 1
    44   26   42 1
    45   26   43 1
    46   26   44 1
@<TRIPOS>PROPERTY_DATA
  Total_Score	| 5.5147
  Crash		| -1.9493
  Polar		| 4.0285
  FragIndex	| 1
  FragRMSD	| 1.418

