@<TRIPOS>MOLECULE
BindingDB_50329822
 48 51 0 0 0
SMALL
NO_CHARGES


@<TRIPOS>ATOM
1    C        -5.8275    4.9863   14.7748  C     
2    C        -6.0344    3.9260   15.6736  C     
3    C        -5.4835    2.6478   15.3981  C     
4    C        -4.6986    2.4811   14.2292  C     
5    C        -4.5157    3.5410   13.3040  C     
6    C        -5.0905    4.7980   13.6015  C     
7    Cl       -6.9720    4.2835   17.0431  Cl    
8    C        -3.9458    3.3531   12.0503  C     
9    C        -2.5881    2.8963   11.7382  C     
10   O        -4.7762    3.2614   11.1484  O     
11   S        -5.7803    1.2929   16.4659  S     
12   N        -7.3346    1.2420   17.1101  N     
13   O        -5.7108   -0.1104   15.7256  O     
14   O        -4.7363    1.2306   17.6634  O     
15   N        -1.7946    3.7786   10.8940  N     
16   N        -1.1260    5.0879    9.2188  N     
17   C        -2.1799    4.4523    9.7701  C     
18   C        -0.0610    4.8101    9.9672  C     
19   C        -0.4550    3.9779   11.0145  C     
20   C         0.5396    3.4999   11.9028  C     
21   C         1.8934    3.8559   11.6945  C     
22   C         2.2551    4.7042   10.6291  C     
23   C         1.2696    5.2054    9.7613  C     
24   C        -3.4831    4.4339    9.0536  C     
25   C        -3.5565    5.1862    7.7664  C     
26   C        -2.6056    4.9562    6.7283  C     
27   C        -2.7127    5.6261    5.4951  C     
28   C        -3.7456    6.5507    5.2715  C     
29   C        -4.6846    6.8054    6.2975  C     
30   C        -4.5898    6.1274    7.5247  C     
31   H        -6.2433    5.9022   14.9595  H     
32   H        -4.3015    1.5620   14.0089  H     
33   H        -4.9859    5.5889   12.9507  H     
34   H        -2.0658    2.7440   12.6888  H     
35   H        -2.6276    1.9059   11.2622  H     
36   H        -7.8139    0.3967   17.1643  H     
37   H        -7.7784    2.0650   17.3725  H     
38   H         0.3106    2.8605   12.6678  H     
39   H         2.6191    3.4849   12.3038  H     
40   H         3.2344    4.9543   10.4858  H     
41   H         1.5163    5.8079    8.9770  H     
42   H        -3.7312    3.3982    8.8440  H     
43   H        -4.2540    4.7997    9.6968  H     
44   H        -1.8299    4.3050    6.8788  H     
45   H        -2.0187    5.4535    4.7543  H     
46   H        -3.8257    7.0398    4.3774  H     
47   H        -5.4269    7.4911    6.1480  H     
48   H        -5.2815    6.3249    8.2490  H     
@<TRIPOS>BOND
     1    1    2 2
     2    1    6 1
     3    2    3 1
     4    2    7 1
     5    3    4 2
     6    3   11 1
     7    4    5 1
     8    5    6 2
     9    5    8 1
    10    8    9 1
    11    8   10 2
    12    9   15 1
    13   11   12 am
    14   11   13 2
    15   11   14 2
    16   15   17 1
    17   15   19 1
    18   16   17 2
    19   16   18 1
    20   17   24 1
    21   18   19 2
    22   18   23 1
    23   19   20 1
    24   20   21 2
    25   21   22 1
    26   22   23 2
    27   24   25 1
    28   25   26 2
    29   25   30 1
    30   26   27 1
    31   27   28 2
    32   28   29 1
    33   29   30 2
    34    1   31 1
    35    4   32 1
    36    6   33 1
    37    9   34 1
    38    9   35 1
    39   12   36 1
    40   12   37 1
    41   20   38 1
    42   21   39 1
    43   22   40 1
    44   23   41 1
    45   24   42 1
    46   24   43 1
    47   26   44 1
    48   27   45 1
    49   28   46 1
    50   29   47 1
    51   30   48 1
@<TRIPOS>PROPERTY_DATA
  Total_Score	| 5.6064
  Crash		| -2.1091
  Polar		| 3.4199
  FragIndex	| 1
  FragRMSD	| 1.318

