@<TRIPOS>MOLECULE
BindingDB_50329832
 35 37 0 0 0
SMALL
NO_CHARGES


@<TRIPOS>ATOM
1    C        -5.7853    4.9798   14.7961  C     
2    C        -6.0206    3.9270   15.6984  C     
3    C        -5.3855    2.6822   15.4824  C     
4    C        -4.4670    2.5467   14.4223  C     
5    C        -4.1707    3.6159   13.5372  C     
6    C        -4.8882    4.8250   13.7344  C     
7    Cl       -7.0446    4.2609   17.0071  Cl    
8    C        -3.2156    3.4738   12.5146  C     
9    C        -3.0419    4.4303   11.4197  C     
10   O        -2.4756    2.4904   12.5248  O     
11   S        -5.6732    1.2908   16.5002  S     
12   N        -7.1460    1.3007   17.3202  N     
13   O        -5.6855   -0.0486   15.6412  O     
14   O        -4.5121    1.2081   17.5845  O     
15   N        -2.1036    4.0401   10.3994  N     
16   N        -1.3163    3.3036    8.4568  N     
17   C        -2.4173    3.6294    9.1537  C     
18   C        -0.2778    3.5229    9.2810  C     
19   C        -0.7636    3.9915   10.5042  C     
20   C         0.1293    4.3177   11.5455  C     
21   C         1.5187    4.1778   11.3216  C     
22   C         1.9994    3.6990   10.0816  C     
23   C         1.0983    3.3559    9.0521  C     
24   H        -6.2786    5.8709   14.9118  H     
25   H        -4.0070    1.6451   14.2835  H     
26   H        -4.7568    5.6291   13.1161  H     
27   H        -4.0279    4.5977   10.9700  H     
28   H        -2.7061    5.3956   11.8217  H     
29   H        -7.3503    0.5986   17.9574  H     
30   H        -7.7394    2.0543   17.2204  H     
31   H        -3.3634    3.5692    8.7774  H     
32   H        -0.2145    4.6637   12.4420  H     
33   H         2.1793    4.4311   12.0595  H     
34   H         3.0048    3.6050    9.9275  H     
35   H         1.4363    3.0080    8.1541  H     
@<TRIPOS>BOND
     1    1    2 2
     2    1    6 1
     3    2    3 1
     4    2    7 1
     5    3    4 2
     6    3   11 1
     7    4    5 1
     8    5    6 2
     9    5    8 1
    10    8    9 1
    11    8   10 2
    12    9   15 1
    13   11   12 am
    14   11   13 2
    15   11   14 2
    16   15   17 1
    17   15   19 1
    18   16   17 2
    19   16   18 1
    20   18   19 2
    21   18   23 1
    22   19   20 1
    23   20   21 2
    24   21   22 1
    25   22   23 2
    26    1   24 1
    27    4   25 1
    28    6   26 1
    29    9   27 1
    30    9   28 1
    31   12   29 1
    32   12   30 1
    33   17   31 1
    34   20   32 1
    35   21   33 1
    36   22   34 1
    37   23   35 1
@<TRIPOS>PROPERTY_DATA
  Total_Score	| 6.0648
  Crash		| -0.8528
  Polar		| 3.9993
  FragIndex	| 1
  FragRMSD	| 0.792

