@<TRIPOS>MOLECULE
BindingDB_50326115
 32 33 0 0 0
SMALL
NO_CHARGES


@<TRIPOS>ATOM
1    C        -2.0364    3.3378    9.3261  C     
2    N        -2.0077    3.9597   10.5015  N     
3    C        -0.8435    4.4429   10.9773  C     
4    C         0.3179    4.2911   10.2994  C     
5    C         0.2809    3.6257    9.0958  C     
6    C        -0.9098    3.1516    8.6116  C     
7    O         1.2847    3.4722    8.4145  O     
8    S         1.7695    4.9808   10.9090  S     
9    N         1.7130    5.6251   12.4598  N     
10   O         2.3389    6.0824    9.9102  O     
11   O         2.9194    3.8816   10.9441  O     
12   C        -3.1945    4.1251   11.2803  C     
13   C        -3.2678    3.2758   12.4785  C     
14   O        -2.5577    2.2750   12.4700  O     
15   C        -4.2027    3.4354   13.5269  C     
16   C        -4.9915    4.6093   13.6815  C     
17   C        -5.8664    4.7766   14.7744  C     
18   C        -6.0051    3.7572   15.7333  C     
19   C        -5.2706    2.5678   15.5877  C     
20   C        -4.3784    2.4148   14.5064  C     
21   Cl       -7.0395    3.9699   17.0574  Cl    
22   H        -2.8845    2.9695    8.9661  H     
23   H        -0.8339    4.9360   11.8475  H     
24   H        -0.9484    2.6706    7.7379  H     
25   H         1.7635    5.0103   13.2134  H     
26   H         1.3559    6.5122   12.5935  H     
27   H        -3.2553    5.1867   11.5616  H     
28   H        -4.1065    3.9167   10.7057  H     
29   H        -4.9356    5.3746   13.0065  H     
30   H        -6.3858    5.6522   14.8694  H     
31   H        -5.3717    1.8149   16.2727  H     
32   H        -3.8591    1.5310   14.4506  H     
@<TRIPOS>BOND
     1    3    4 2
     2    8   11 2
     3    4    5 1
     4    2   12 1
     5    5    6 1
     6   12   13 1
     7   13   14 2
     8    5    7 2
     9   13   15 1
    10    1    2 1
    11   15   16 2
    12    4    8 1
    13   16   17 1
    14    1    6 2
    15   17   18 2
    16    8    9 am
    17   18   19 1
    18    2    3 1
    19   19   20 2
    20   20   15 1
    21    8   10 2
    22   18   21 1
    23    1   22 1
    24    3   23 1
    25    6   24 1
    26    9   25 1
    27    9   26 1
    28   12   27 1
    29   12   28 1
    30   16   29 1
    31   17   30 1
    32   19   31 1
    33   20   32 1
@<TRIPOS>PROPERTY_DATA
  Total_Score	| 2.5221
  Crash		| -0.9378
  Polar		| 2.9782
  FragIndex	| 1
  FragRMSD	| 0.782

