@<TRIPOS>MOLECULE
BindingDB_50329825
 47 49 0 0 0
SMALL
NO_CHARGES


@<TRIPOS>ATOM
1    C        -6.0259    5.1617   15.0882  C     
2    C        -6.1721    4.0230   15.9076  C     
3    C        -5.6839    2.7600   15.4548  C     
4    C        -5.0148    2.6983   14.2039  C     
5    C        -4.8675    3.8352   13.3801  C     
6    C        -5.3812    5.0767   13.8513  C     
7    Cl       -6.9414    4.2460   17.4028  Cl    
8    C        -4.0647    3.7821   12.2438  C     
9    C        -2.6529    4.0696   12.3839  C     
10   O        -4.5216    4.0098   11.1303  O     
11   S        -5.8248    1.3186   16.4459  S     
12   N        -7.3161    1.0902   17.1877  N     
13   O        -5.7136   -0.0203   15.5949  O     
14   O        -4.6936    1.1962   17.5600  O     
15   N        -1.8041    3.5253   11.3559  N     
16   N        -0.9494    2.1683    9.8322  N     
17   C        -1.9925    2.3812   10.6693  C     
18   C        -0.0896    3.1594   10.0347  C     
19   C        -0.6061    4.0317   10.9888  C     
20   C         0.1498    5.1353   11.4223  C     
21   C         1.4254    5.3592   10.8616  C     
22   C         1.9347    4.4871    9.8757  C     
23   C         1.1747    3.3788    9.4431  C     
24   C        -3.1410    1.4442   10.8221  C     
25   C        -2.8278   -0.0594   10.5355  C     
26   C        -3.9517   -1.0411   10.9506  C     
27   C        -4.2305   -1.1251   12.4669  C     
28   H        -6.3622    6.0835   15.4159  H     
29   H        -4.6065    1.8040   13.9108  H     
30   H        -5.2657    5.9328   13.2950  H     
31   H        -2.5624    5.1669   12.3902  H     
32   H        -2.2737    3.7261   13.3612  H     
33   H        -7.7849    0.2411   17.0770  H     
34   H        -7.6174    1.7245   17.8691  H     
35   H        -0.2426    5.7777   12.1127  H     
36   H         1.9608    6.1765   11.1635  H     
37   H         2.8692    4.6614    9.4940  H     
38   H         1.5711    2.7316    8.7550  H     
39   H        -3.5232    1.5725   11.8337  H     
40   H        -3.9425    1.7240   10.1539  H     
41   H        -2.6862   -0.1966    9.4573  H     
42   H        -1.9075   -0.3454   11.0396  H     
43   H        -4.8795   -0.7627   10.4404  H     
44   H        -3.6826   -2.0423   10.5944  H     
45   H        -3.3185   -1.4341   12.9784  H     
46   H        -5.0150   -1.8613   12.6468  H     
47   H        -4.5548   -0.1493   12.8554  H     
@<TRIPOS>BOND
     1    1    2 2
     2    1    6 1
     3    2    3 1
     4    2    7 1
     5    3    4 2
     6    3   11 1
     7    4    5 1
     8    5    6 2
     9    5    8 1
    10    8    9 1
    11    8   10 2
    12    9   15 1
    13   11   12 am
    14   11   13 2
    15   11   14 2
    16   15   17 1
    17   15   19 1
    18   16   17 2
    19   16   18 1
    20   17   24 1
    21   18   19 2
    22   18   23 1
    23   19   20 1
    24   20   21 2
    25   21   22 1
    26   22   23 2
    27   24   25 1
    28   25   26 1
    29   26   27 1
    30    1   28 1
    31    4   29 1
    32    6   30 1
    33    9   31 1
    34    9   32 1
    35   12   33 1
    36   12   34 1
    37   20   35 1
    38   21   36 1
    39   22   37 1
    40   23   38 1
    41   24   39 1
    42   24   40 1
    43   25   41 1
    44   25   42 1
    45   26   43 1
    46   26   44 1
    47   27   45 1
    48   27   46 1
    49   27   47 1
@<TRIPOS>PROPERTY_DATA
  Total_Score	| 6.3412
  Crash		| -1.8746
  Polar		| 3.1164
  FragIndex	| 1
  FragRMSD	| 1.345

