@<TRIPOS>MOLECULE
BindingDB_50380153
 37 38 0 0 0
SMALL
NO_CHARGES


@<TRIPOS>ATOM
1    S        -5.6416    1.1874   16.5246  S     
2    O        -4.4046    1.0129   17.5104  O     
3    O        -5.6105   -0.1636   15.6863  O     
4    C        -5.6968    4.9005   14.8744  C     
5    C        -6.0059    3.8150   15.7133  C     
6    C        -5.3805    2.5659   15.4901  C     
7    C        -4.4460    2.4449   14.4321  C     
8    C        -4.1081    3.5308   13.5815  C     
9    C        -4.7512    4.7657   13.8423  C     
10   C        -3.1655    3.3762   12.5441  C     
11   C        -2.9152    4.3288   11.4671  C     
12   O        -2.4904    2.3527   12.5088  O     
13   S        -4.3233    4.4613   10.3340  S     
14   C        -4.7911    6.1033   10.6227  C     
15   N        -5.9420    6.3466   11.2862  N     
16   C        -6.3350    7.6034   11.6193  C     
17   C        -5.5157    8.6947   11.2545  C     
18   C        -4.3254    8.4321   10.5449  C     
19   N        -3.9938    7.1436   10.2657  N     
20   Cl       -7.0755    4.1175   16.9981  Cl    
21   N        -7.0701    1.0567   17.4064  N     
22   C        -3.4292    9.5403   10.1526  C     
23   C        -7.5740    7.7568   12.3962  C     
24   H        -6.1449    5.8087   15.0310  H     
25   H        -3.9933    1.5405   14.2877  H     
26   H        -4.5227    5.6026   13.3006  H     
27   H        -2.6491    5.2952   11.8969  H     
28   H        -2.0721    4.0128   10.8499  H     
29   H        -5.7769    9.6560   11.4970  H     
30   H        -7.8095    0.5270   17.0579  H     
31   H        -7.1701    1.5093   18.2682  H     
32   H        -3.9603   10.2259    9.4884  H     
33   H        -2.5445    9.1698    9.6303  H     
34   H        -3.1045   10.0902   11.0409  H     
35   H        -8.4294    7.4745   11.7788  H     
36   H        -7.7122    8.7855   12.7406  H     
37   H        -7.5391    7.1064   13.2737  H     
@<TRIPOS>BOND
     1    1    2 2
     2    1    3 2
     3    1    6 1
     4    1   21 am
     5    4    5 2
     6    4    9 1
     7    5    6 1
     8    5   20 1
     9    6    7 2
    10    7    8 1
    11    8    9 2
    12    8   10 1
    13   10   11 1
    14   10   12 2
    15   11   13 1
    16   13   14 1
    17   14   15 2
    18   14   19 1
    19   15   16 1
    20   16   17 2
    21   16   23 1
    22   17   18 1
    23   18   19 2
    24   18   22 1
    25    4   24 1
    26    7   25 1
    27    9   26 1
    28   11   27 1
    29   11   28 1
    30   17   29 1
    31   21   30 1
    32   21   31 1
    33   22   32 1
    34   22   33 1
    35   22   34 1
    36   23   35 1
    37   23   36 1
    38   23   37 1
@<TRIPOS>PROPERTY_DATA
  Total_Score	| 7.6463
  Crash		| -1.1945
  Polar		| 5.3809
  FragIndex	| 1
  FragRMSD	| 0.990

