@<TRIPOS>MOLECULE
BindingDB_50329828
 52 55 0 0 0
SMALL
NO_CHARGES


@<TRIPOS>ATOM
1    C        -5.5850    4.7965   14.4816  C     
2    C        -5.8747    3.8167   15.4506  C     
3    C        -5.3242    2.5176   15.3189  C     
4    C        -4.4474    2.2495   14.2525  C     
5    C        -4.1503    3.2259   13.2700  C     
6    C        -4.7410    4.5032   13.3999  C     
7    Cl       -6.8619    4.2905   16.7469  Cl    
8    C        -3.2669    2.9383   12.2309  C     
9    C        -3.5980    3.0968   10.8173  C     
10   O        -2.2404    2.3250   12.4973  O     
11   S        -5.6330    1.2389   16.4759  S     
12   N        -7.1553    1.1984   17.1844  N     
13   O        -5.5614   -0.1801   15.7620  O     
14   O        -4.5271    1.1920   17.6138  O     
15   N        -2.7770    4.0598   10.1245  N     
16   N        -2.1167    5.8480    8.9869  N     
17   C        -3.1617    5.2623    9.6077  C     
18   C        -1.0637    5.0378    9.1240  C     
19   C        -1.4650    3.9025    9.8220  C     
20   C        -0.5339    2.8679   10.0422  C     
21   C         0.8073    3.0389    9.6242  C     
22   C         1.2033    4.2155    8.9595  C     
23   C         0.2572    5.2228    8.6811  C     
24   C        -4.5015    5.9077    9.5990  C     
25   N        -4.4299    7.4105    9.7458  N     
26   C        -4.7978    7.9333   11.1025  C     
27   C        -6.3379    7.9915   11.3000  C     
28   O        -6.9586    8.7434   10.2383  O     
29   C        -6.6693    8.2441    8.9190  C     
30   C        -5.1383    8.1794    8.6737  C     
31   H        -5.9661    5.7414   14.5676  H     
32   H        -4.0184    1.3215   14.1801  H     
33   H        -4.5182    5.2444   12.7299  H     
34   H        -3.4818    2.1274   10.3267  H     
35   H        -4.6604    3.3426   10.7190  H     
36   H        -7.7125    0.4032   17.1008  H     
37   H        -7.4443    1.9203   17.7599  H     
38   H        -0.8194    2.0000   10.4947  H     
39   H         1.4880    2.3020    9.7852  H     
40   H         2.1744    4.3330    8.6660  H     
41   H         0.5290    6.0670    8.1727  H     
42   H        -4.9799    5.6152    8.6560  H     
43   H        -5.1179    5.4720   10.3913  H     
44   H        -3.4442    7.6496    9.6349  H     
45   H        -4.3427    7.3358   11.8941  H     
46   H        -4.4024    8.9485   11.2063  H     
47   H        -6.7575    6.9797   11.3382  H     
48   H        -6.5649    8.4811   12.2513  H     
49   H        -7.1163    7.2555    8.7844  H     
50   H        -7.1214    8.9181    8.1914  H     
51   H        -4.7452    9.1998    8.6624  H     
52   H        -4.9359    7.7536    7.6880  H     
@<TRIPOS>BOND
     1    1    2 2
     2    1    6 1
     3    2    3 1
     4    2    7 1
     5    3    4 2
     6    3   11 1
     7    4    5 1
     8    5    6 2
     9    5    8 1
    10    8    9 1
    11    8   10 2
    12    9   15 1
    13   11   12 am
    14   11   13 2
    15   11   14 2
    16   15   17 1
    17   15   19 1
    18   16   17 2
    19   16   18 1
    20   17   24 1
    21   18   19 2
    22   18   23 1
    23   19   20 1
    24   20   21 2
    25   21   22 1
    26   22   23 2
    27   24   25 1
    28   25   26 1
    29   25   30 1
    30   26   27 1
    31   27   28 1
    32   28   29 1
    33   29   30 1
    34    1   31 1
    35    4   32 1
    36    6   33 1
    37    9   34 1
    38    9   35 1
    39   12   36 1
    40   12   37 1
    41   20   38 1
    42   21   39 1
    43   22   40 1
    44   23   41 1
    45   24   42 1
    46   24   43 1
    47   25   44 1
    48   26   45 1
    49   26   46 1
    50   27   47 1
    51   27   48 1
    52   29   49 1
    53   29   50 1
    54   30   51 1
    55   30   52 1
@<TRIPOS>PROPERTY_DATA
  Total_Score	| 6.0001
  Crash		| -1.1346
  Polar		| 4.0199
  FragIndex	| 1
  FragRMSD	| 1.427

