@<TRIPOS>MOLECULE
BindingDB_50329829
 39 41 0 0 0
SMALL
NO_CHARGES


@<TRIPOS>ATOM
1    C        -5.8611    4.9011   15.0136  C     
2    C        -6.1321    3.8252   15.8754  C     
3    C        -5.6246    2.5376   15.5714  C     
4    C        -4.8430    2.3676   14.4066  C     
5    C        -4.5491    3.4493   13.5212  C     
6    C        -5.0860    4.7214   13.8547  C     
7    Cl       -7.0389    4.1643   17.2586  Cl    
8    C        -3.7320    3.2260   12.3882  C     
9    C        -4.0778    3.5700   10.9960  C     
10   O        -2.6687    2.6045   12.5249  O     
11   S        -5.8201    1.1602   16.6233  S     
12   N        -7.2542    0.9298   17.4794  N     
13   O        -5.6894   -0.1935   15.7935  O     
14   O        -4.5916    1.0708   17.6276  O     
15   N        -2.9626    4.1915   10.3151  N     
16   N        -1.6830    5.7147    9.3044  N     
17   C        -2.8825    5.4710    9.8674  C     
18   C        -0.9774    4.5844    9.4130  C     
19   C        -1.7772    3.6226   10.0291  C     
20   C        -1.2809    2.3295   10.2781  C     
21   C         0.0741    2.0588    9.9887  C     
22   C         0.8914    3.0334    9.3795  C     
23   C         0.3582    4.3025    9.0728  C     
24   S        -4.0506    6.7607   10.0432  S     
25   C        -3.2290    7.5350   11.4615  C     
26   H        -6.2082    5.8432   15.2209  H     
27   H        -4.4664    1.4307   14.2111  H     
28   H        -4.8920    5.5489   13.2812  H     
29   H        -4.3592    2.6535   10.4582  H     
30   H        -4.9580    4.2135   10.9401  H     
31   H        -7.8808    0.2513   17.1762  H     
32   H        -7.3898    1.4066   18.3232  H     
33   H        -1.8788    1.6074   10.7132  H     
34   H         0.4467    1.1344   10.2378  H     
35   H         1.8674    2.8135    9.1781  H     
36   H         0.9541    5.0248    8.6532  H     
37   H        -3.1080    6.8324   12.2864  H     
38   H        -3.8236    8.3771   11.8072  H     
39   H        -2.2486    7.8974   11.1595  H     
@<TRIPOS>BOND
     1    1    2 2
     2    1    6 1
     3    2    3 1
     4    2    7 1
     5    3    4 2
     6    3   11 1
     7    4    5 1
     8    5    6 2
     9    5    8 1
    10    8    9 1
    11    8   10 2
    12    9   15 1
    13   11   12 am
    14   11   13 2
    15   11   14 2
    16   15   17 1
    17   15   19 1
    18   16   17 2
    19   16   18 1
    20   17   24 1
    21   18   19 2
    22   18   23 1
    23   19   20 1
    24   20   21 2
    25   21   22 1
    26   22   23 2
    27   24   25 1
    28    1   26 1
    29    4   27 1
    30    6   28 1
    31    9   29 1
    32    9   30 1
    33   12   31 1
    34   12   32 1
    35   20   33 1
    36   21   34 1
    37   22   35 1
    38   23   36 1
    39   25   37 1
    40   25   38 1
    41   25   39 1
@<TRIPOS>PROPERTY_DATA
  Total_Score	| 5.3056
  Crash		| -1.7761
  Polar		| 3.9013
  FragIndex	| 1
  FragRMSD	| 1.474

