@<TRIPOS>MOLECULE
BindingDB_50329833
 36 38 0 0 0
SMALL
NO_CHARGES


@<TRIPOS>ATOM
1    C        -5.7932    4.8101   14.8303  C     
2    C        -6.0431    3.7570   15.7182  C     
3    C        -5.4281    2.5047   15.4885  C     
4    C        -4.4794    2.3667   14.4454  C     
5    C        -4.2216    3.4172   13.5355  C     
6    C        -4.9238    4.6167   13.7538  C     
7    Cl       -7.0529    4.1004   17.0213  Cl    
8    C        -3.3118    3.3226   12.4683  C     
9    C        -3.3865    4.1440   11.2443  C     
10   O        -2.4875    2.4168   12.4470  O     
11   S        -5.7271    1.1445   16.5282  S     
12   N        -7.2182    1.0829   17.3274  N     
13   O        -5.6181   -0.2809   15.8398  O     
14   O        -4.6247    1.1780   17.6819  O     
15   S        -1.9681    5.2506   10.8761  S     
16   C        -1.9039    6.3607   12.2114  C     
17   N        -0.8113    7.1185   12.3851  N     
18   N        -2.7560    6.5396   13.2347  N     
19   C        -2.1300    7.3273   14.1289  C     
20   C        -0.9147    7.7236   13.5723  C     
21   C        -1.5462    8.4890   16.1969  C     
22   C        -2.4394    7.6796   15.4678  C     
23   C        -0.3437    8.9327   15.5844  C     
24   C        -0.0051    8.5226   14.2722  C     
25   H        -6.2460    5.7095   14.9566  H     
26   H        -3.9994    1.4683   14.2951  H     
27   H        -4.7815    5.3895   13.1511  H     
28   H        -3.4617    3.4616   10.3802  H     
29   H        -4.3004    4.7412   11.2067  H     
30   H        -7.2960    1.3286   18.2726  H     
31   H        -8.0033    0.8513   16.8072  H     
32   H        -0.0497    7.1561   11.7860  H     
33   H        -1.7376    8.7325   17.1732  H     
34   H        -3.2678    7.2812   15.9326  H     
35   H         0.3074    9.5435   16.1009  H     
36   H         0.9063    8.7688   13.8497  H     
@<TRIPOS>BOND
     1    1    2 2
     2    1    6 1
     3    2    3 1
     4    2    7 1
     5    3    4 2
     6    3   11 1
     7    4    5 1
     8    5    6 2
     9    5    8 1
    10    8    9 1
    11    8   10 2
    12    9   15 1
    13   11   12 am
    14   11   13 2
    15   11   14 2
    16   15   16 1
    17   16   17 1
    18   16   18 2
    19   17   20 1
    20   18   19 1
    21   19   20 2
    22   19   22 1
    23   20   24 1
    24   21   22 2
    25   21   23 1
    26   23   24 2
    27    1   25 1
    28    4   26 1
    29    6   27 1
    30    9   28 1
    31    9   29 1
    32   12   30 1
    33   12   31 1
    34   17   32 1
    35   21   33 1
    36   22   34 1
    37   23   35 1
    38   24   36 1
@<TRIPOS>PROPERTY_DATA
  Total_Score	| 7.6211
  Crash		| -1.0565
  Polar		| 3.9753
  FragIndex	| 1
  FragRMSD	| 1.003

