@<TRIPOS>MOLECULE
BindingDB_50252103
 41 41 0 0 0
SMALL
NO_CHARGES


@<TRIPOS>ATOM
1    N        19.5504  -34.5802   -7.6584  N     
2    C        19.9702  -35.5550   -6.6254  C     
3    C        20.0335  -34.7475   -5.2839  C     
4    C        18.9672  -33.6365   -5.5274  C     
5    C        19.2348  -33.2920   -7.0157  C     
6    C        19.0564  -36.7240   -6.5547  C     
7    O        19.1228  -37.5494   -5.4893  O     
8    O        18.5193  -37.2649   -7.6670  O     
9    C        18.4332  -32.9325   -3.2661  C     
10   C        18.8652  -32.5685   -4.4999  C     
11   C        19.1447  -31.1760   -4.8727  C     
12   C        21.4579  -34.1946   -4.9126  C     
13   C        22.5527  -35.1862   -4.8941  C     
14   O        23.8209  -34.7637   -4.6892  O     
15   O        22.3136  -36.5168   -4.7997  O     
16   C        18.2197  -32.1381   -2.1809  C     
17   C        17.2062  -32.3431   -1.3184  C     
18   C        17.0209  -31.5557   -0.0989  C     
19   C        16.5268  -30.1207   -0.4307  C     
20   C        16.1556  -32.2597    0.8819  C     
21   O        16.5030  -33.5003    1.3056  O     
22   O        14.9923  -31.7411    1.3408  O     
23   H        20.3066  -34.4544   -8.3307  H     
24   H        18.7237  -34.9090   -8.1620  H     
25   H        20.9527  -35.9379   -6.9042  H     
26   H        19.7103  -35.3674   -4.4394  H     
27   H        17.9829  -34.1226   -5.5360  H     
28   H        20.0883  -32.6157   -7.1364  H     
29   H        18.3565  -32.8417   -7.4867  H     
30   H        18.2199  -33.8968   -3.1251  H     
31   H        20.1988  -31.0854   -5.1398  H     
32   H        18.9414  -30.4535   -4.0822  H     
33   H        18.5324  -30.8855   -5.7305  H     
34   H        21.7436  -33.3873   -5.6000  H     
35   H        21.4130  -33.7626   -3.9036  H     
36   H        18.8710  -31.4084   -1.9930  H     
37   H        16.5608  -33.0817   -1.5096  H     
38   H        17.9920  -31.4629    0.3908  H     
39   H        17.2352  -29.6087   -1.0839  H     
40   H        16.4256  -29.5310    0.4833  H     
41   H        15.5604  -30.1567   -0.9365  H     
@<TRIPOS>BOND
     1    1    2 1
     2    1    5 1
     3    2    3 1
     4    2    6 1
     5    3    4 1
     6    3   12 1
     7    4    5 1
     8    4   10 1
     9    6    7 2
    10    6    8 1
    11    9   10 2
    12    9   16 1
    13   10   11 1
    14   12   13 1
    15   13   14 2
    16   13   15 1
    17   16   17 2
    18   17   18 1
    19   18   19 1
    20   18   20 1
    21   20   21 1
    22   20   22 2
    23    1   23 1
    24    1   24 1
    25    2   25 1
    26    3   26 1
    27    4   27 1
    28    5   28 1
    29    5   29 1
    30    9   30 1
    31   11   31 1
    32   11   32 1
    33   11   33 1
    34   12   34 1
    35   12   35 1
    36   16   36 1
    37   17   37 1
    38   18   38 1
    39   19   39 1
    40   19   40 1
    41   19   41 1
@<TRIPOS>PROPERTY_DATA
  Total_Score	| 14.9068
  Crash		| -1.2010
  Polar		| 13.7631
  FragIndex	| 1
  FragRMSD	| 0.980

