@<TRIPOS>MOLECULE
BindingDB_50053089
 42 43 0 0 0
SMALL
NO_CHARGES


@<TRIPOS>ATOM
1    C        20.0585  -34.5885   -5.3423  C     
2    C        19.0915  -33.3965   -5.6644  C     
3    N        19.5003  -34.6188   -7.7164  N     
4    C        19.9397  -35.5003   -6.6120  C     
5    C        19.1165  -32.1896   -4.7701  C     
6    C        19.3304  -33.2635   -7.1985  C     
7    C        19.0080  -36.6476   -6.4681  C     
8    C        21.5086  -34.1329   -4.9633  C     
9    C        18.6578  -32.2695   -3.4033  C     
10   C        22.5491  -35.1830   -4.9274  C     
11   C        19.5498  -31.0145   -5.2997  C     
12   O        18.5545  -37.2834   -7.5711  O     
13   O        23.8387  -34.8071   -4.7416  O     
14   C        18.2393  -33.4944   -2.8033  C     
15   C        18.5096  -31.1324   -2.5477  C     
16   O        19.1064  -37.4379   -5.3719  O     
17   O        22.2426  -36.4945   -4.8041  O     
18   C        17.7633  -33.5933   -1.4807  C     
19   C        18.0001  -31.2086   -1.2358  C     
20   C        17.6189  -32.4445   -0.6812  C     
21   C        17.0706  -32.5489    0.6973  C     
22   C        18.0816  -33.1899    1.6737  C     
23   H        19.7017  -35.1362   -4.4680  H     
24   H        18.0676  -33.7783   -5.6069  H     
25   H        20.2264  -34.6123   -8.4357  H     
26   H        18.6264  -34.9331   -8.1366  H     
27   H        20.9194  -35.9145   -6.8902  H     
28   H        18.4947  -32.7761   -7.6970  H     
29   H        20.2547  -32.7340   -7.4312  H     
30   H        21.8481  -33.3426   -5.6449  H     
31   H        21.4712  -33.6976   -3.9564  H     
32   H        19.6288  -30.1783   -4.7906  H     
33   H        19.8206  -30.9177   -6.2416  H     
34   H        18.2404  -34.3719   -3.3218  H     
35   H        18.7455  -30.1861   -2.8546  H     
36   H        17.4847  -34.5144   -1.1232  H     
37   H        17.9069  -30.3570   -0.6859  H     
38   H        16.8078  -31.5543    1.0659  H     
39   H        16.1471  -33.1328    0.6739  H     
40   H        18.2854  -34.2202    1.3884  H     
41   H        17.6706  -33.1711    2.6723  H     
42   H        19.0134  -32.6251    1.6657  H     
@<TRIPOS>BOND
     1    1    2 1
     2    1    4 1
     3    1    8 1
     4    2    5 1
     5    2    6 1
     6    3    4 1
     7    3    6 1
     8    4    7 1
     9    5    9 1
    10    5   11 2
    11    7   12 2
    12    7   16 1
    13    8   10 1
    14    9   14 2
    15    9   15 1
    16   10   13 2
    17   10   17 1
    18   14   18 1
    19   15   19 2
    20   18   20 2
    21   19   20 1
    22   20   21 1
    23   21   22 1
    24    1   23 1
    25    2   24 1
    26    3   25 1
    27    3   26 1
    28    4   27 1
    29    6   28 1
    30    6   29 1
    31    8   30 1
    32    8   31 1
    33   11   32 1
    34   11   33 1
    35   14   34 1
    36   15   35 1
    37   18   36 1
    38   19   37 1
    39   21   38 1
    40   21   39 1
    41   22   40 1
    42   22   41 1
    43   22   42 1
@<TRIPOS>PROPERTY_DATA
  Total_Score	| 15.4343
  Crash		| -0.7902
  Polar		| 11.6192
  FragIndex	| 1
  FragRMSD	| 0.361

