@<TRIPOS>MOLECULE
BindingDB_50053061
 36 37 0 0 0
SMALL
NO_CHARGES


@<TRIPOS>ATOM
1    C        20.0170  -34.6452   -5.3033  C     
2    C        19.0464  -33.4564   -5.6111  C     
3    N        19.5295  -34.6059   -7.6814  N     
4    C        19.9613  -35.5161   -6.6023  C     
5    C        19.0222  -32.2760   -4.6778  C     
6    C        19.3451  -33.2675   -7.1262  C     
7    C        19.0502  -36.6837   -6.5057  C     
8    C        21.4370  -34.1631   -4.8561  C     
9    C        18.6515  -32.4047   -3.2879  C     
10   C        22.4831  -35.2041   -4.8318  C     
11   C        19.2538  -31.0419   -5.2023  C     
12   O        19.1157  -37.4859   -5.4182  O     
13   O        22.2684  -36.4226   -4.2783  O     
14   C        18.1789  -33.6304   -2.7309  C     
15   C        18.6948  -31.3201   -2.3530  C     
16   O        18.6026  -37.2819   -7.6245  O     
17   C        17.7838  -32.6680   -0.5334  C     
18   O        23.7285  -34.9163   -5.2733  O     
19   C        17.7729  -33.7739   -1.3931  C     
20   C        18.2513  -31.4411   -1.0212  C     
21   Cl       17.2692  -32.8245    1.0656  Cl    
22   H        19.6304  -35.2473   -4.4793  H     
23   H        18.0297  -33.8539   -5.5992  H     
24   H        20.2480  -34.5717   -8.4064  H     
25   H        18.6497  -34.9070   -8.1076  H     
26   H        20.9438  -35.8988   -6.8712  H     
27   H        18.5186  -32.7634   -7.6322  H     
28   H        20.2708  -32.7112   -7.3013  H     
29   H        21.7717  -33.3366   -5.4919  H     
30   H        21.3639  -33.7782   -3.8286  H     
31   H        19.1689  -30.2138   -4.6874  H     
32   H        19.4871  -30.9012   -6.1504  H     
33   H        18.0851  -34.4598   -3.2951  H     
34   H        19.0618  -30.4057   -2.6057  H     
35   H        17.4383  -34.6772   -1.0612  H     
36   H        18.3021  -30.6398   -0.3984  H     
@<TRIPOS>BOND
     1    1    2 1
     2    1    4 1
     3    1    8 1
     4    2    5 1
     5    2    6 1
     6    3    4 1
     7    3    6 1
     8    4    7 1
     9    5    9 1
    10    5   11 2
    11    7   12 2
    12    7   16 1
    13    8   10 1
    14    9   14 2
    15    9   15 1
    16   10   13 2
    17   10   18 1
    18   14   19 1
    19   15   20 2
    20   17   19 2
    21   17   20 1
    22   17   21 1
    23    1   22 1
    24    2   23 1
    25    3   24 1
    26    3   25 1
    27    4   26 1
    28    6   27 1
    29    6   28 1
    30    8   29 1
    31    8   30 1
    32   11   31 1
    33   11   32 1
    34   14   33 1
    35   15   34 1
    36   19   35 1
    37   20   36 1
@<TRIPOS>PROPERTY_DATA
  Total_Score	| 14.6301
  Crash		| -0.7762
  Polar		| 12.1129
  FragIndex	| 1
  FragRMSD	| 1.206

