@<TRIPOS>MOLECULE
BindingDB_50053067
 36 37 0 0 0
SMALL
NO_CHARGES


@<TRIPOS>ATOM
1    C        20.1204  -34.5825   -5.4098  C     
2    C        19.1179  -33.4363   -5.7497  C     
3    N        19.5068  -34.6924   -7.7654  N     
4    C        19.9580  -35.5438   -6.6398  C     
5    C        19.0985  -32.2234   -4.8746  C     
6    C        19.3276  -33.3205   -7.2852  C     
7    C        18.9978  -36.6558   -6.4410  C     
8    C        21.5967  -34.1013   -5.1953  C     
9    C        22.6002  -35.1370   -4.8761  C     
10   C        18.6988  -32.3027   -3.4987  C     
11   C        19.3356  -31.0193   -5.4615  C     
12   O        19.1481  -37.4792   -5.3776  O     
13   O        22.2758  -36.4403   -4.6797  O     
14   O        18.4211  -37.2311   -7.5202  O     
15   O        23.9093  -34.8080   -4.8533  O     
16   C        18.6715  -31.1607   -2.6388  C     
17   C        18.2750  -33.5252   -2.8913  C     
18   C        17.8236  -33.5956   -1.5551  C     
19   C        18.1641  -31.2113   -1.3302  C     
20   C        17.7443  -32.4290   -0.7769  C     
21   H        19.8198  -35.0818   -4.4844  H     
22   H        18.1019  -33.8474   -5.6772  H     
23   H        20.2094  -34.7086   -8.5049  H     
24   H        18.6205  -35.0187   -8.1578  H     
25   H        20.9167  -35.9854   -6.9228  H     
26   H        18.4645  -32.8623   -7.7810  H     
27   H        20.2373  -32.7760   -7.5474  H     
28   H        21.9438  -33.5810   -6.0874  H     
29   H        21.6075  -33.3774   -4.3747  H     
30   H        19.1851  -30.1627   -5.0061  H     
31   H        19.6156  -30.9146   -6.3939  H     
32   H        19.0068  -30.2436   -2.9564  H     
33   H        18.2467  -34.4016   -3.4124  H     
34   H        17.5264  -34.4897   -1.1623  H     
35   H        18.1062  -30.3582   -0.7686  H     
36   H        17.3915  -32.4724    0.1835  H     
@<TRIPOS>BOND
     1    1    2 1
     2    1    4 1
     3    1    8 1
     4    2    5 1
     5    2    6 1
     6    3    4 1
     7    3    6 1
     8    4    7 1
     9    5   10 1
    10    5   11 2
    11    7   12 2
    12    7   14 1
    13    8    9 1
    14    9   13 2
    15    9   15 1
    16   10   16 2
    17   10   17 1
    18   16   19 1
    19   17   18 2
    20   18   20 1
    21   19   20 2
    22    1   21 1
    23    2   22 1
    24    3   23 1
    25    3   24 1
    26    4   25 1
    27    6   26 1
    28    6   27 1
    29    8   28 1
    30    8   29 1
    31   11   30 1
    32   11   31 1
    33   16   32 1
    34   17   33 1
    35   18   34 1
    36   19   35 1
    37   20   36 1
@<TRIPOS>PROPERTY_DATA
  Total_Score	| 14.1434
  Crash		| -0.7133
  Polar		| 11.4002
  FragIndex	| 1
  FragRMSD	| 1.218

