@<TRIPOS>MOLECULE
BindingDB_50053068
 43 44 0 0 0
SMALL
NO_CHARGES


@<TRIPOS>ATOM
1    C        20.1462  -34.5834   -5.4041  C     
2    C        19.1275  -33.4273   -5.6906  C     
3    N        19.5003  -34.6596   -7.7423  N     
4    C        19.9314  -35.5390   -6.6287  C     
5    C        19.1339  -32.2169   -4.8096  C     
6    C        19.2967  -33.2994   -7.2313  C     
7    C        18.9452  -36.6286   -6.3977  C     
8    C        21.6353  -34.1208   -5.2609  C     
9    C        18.6824  -32.2794   -3.4407  C     
10   C        22.6200  -35.1671   -4.9133  C     
11   C        17.3449  -32.4553    0.6618  C     
12   C        17.7430  -32.4017   -0.6805  C     
13   C        19.4939  -31.0275   -5.3548  C     
14   O        19.0985  -37.4278   -5.3177  O     
15   O        23.9039  -34.8057   -4.7020  O     
16   C        18.5752  -31.1275   -2.6051  C     
17   C        18.2628  -33.4919   -2.8177  C     
18   C        17.8347  -33.5638   -1.4800  C     
19   C        18.0985  -31.1775   -1.2797  C     
20   C        17.9994  -33.2515    1.5346  C     
21   O        18.3690  -37.2281   -7.4617  O     
22   O        22.2970  -36.4763   -4.7755  O     
23   C        16.2155  -31.6411    1.1155  C     
24   H        19.8899  -35.0975   -4.4744  H     
25   H        18.1193  -33.8466   -5.5908  H     
26   H        20.2333  -34.6445   -8.4580  H     
27   H        18.6325  -34.9867   -8.1694  H     
28   H        20.8691  -36.0243   -6.9256  H     
29   H        18.4247  -32.8472   -7.7013  H     
30   H        20.1861  -32.7341   -7.5139  H     
31   H        21.9682  -33.6642   -6.1942  H     
32   H        21.6907  -33.3635   -4.4764  H     
33   H        19.4669  -30.1750   -4.8530  H     
34   H        19.7864  -30.9397   -6.2900  H     
35   H        18.8546  -30.2050   -2.9338  H     
36   H        18.2480  -34.3689   -3.3281  H     
37   H        17.5635  -34.4740   -1.1004  H     
38   H        18.0538  -30.2984   -0.7511  H     
39   H        17.7340  -33.2970    2.4897  H     
40   H        18.7828  -33.7936    1.2504  H     
41   H        16.3986  -30.5777    0.9376  H     
42   H        16.0011  -31.7553    2.1834  H     
43   H        15.3186  -31.9366    0.5645  H     
@<TRIPOS>BOND
     1    1    2 1
     2    1    4 1
     3    1    8 1
     4    2    5 1
     5    2    6 1
     6    3    4 1
     7    3    6 1
     8    4    7 1
     9    5    9 1
    10    5   13 2
    11    7   14 2
    12    7   21 1
    13    8   10 1
    14    9   16 1
    15    9   17 2
    16   10   15 2
    17   10   22 1
    18   11   12 1
    19   11   20 2
    20   11   23 1
    21   12   18 2
    22   12   19 1
    23   16   19 2
    24   17   18 1
    25    1   24 1
    26    2   25 1
    27    3   26 1
    28    3   27 1
    29    4   28 1
    30    6   29 1
    31    6   30 1
    32    8   31 1
    33    8   32 1
    34   13   33 1
    35   13   34 1
    36   16   35 1
    37   17   36 1
    38   18   37 1
    39   19   38 1
    40   20   39 1
    41   20   40 1
    42   23   41 1
    43   23   42 1
    44   23   43 1
@<TRIPOS>PROPERTY_DATA
  Total_Score	| 15.6252
  Crash		| -0.7753
  Polar		| 11.5187
  FragIndex	| 1
  FragRMSD	| 0.893

