@<TRIPOS>MOLECULE
BindingDB_50053062
 42 43 0 0 0
SMALL
NO_CHARGES


@<TRIPOS>ATOM
1    C        20.2263  -34.6909   -5.4596  C     
2    C        19.1121  -33.6126   -5.6554  C     
3    C        19.0916  -32.5008   -4.6673  C     
4    N        19.5388  -34.6994   -7.7697  N     
5    C        19.9680  -35.6250   -6.6918  C     
6    C        18.5420  -32.6922   -3.3533  C     
7    C        19.2066  -33.3845   -7.1947  C     
8    C        18.9597  -36.6951   -6.4848  C     
9    C        21.6860  -34.1148   -5.4195  C     
10   C        22.7550  -35.0957   -5.1243  C     
11   C        18.4958  -33.9842   -2.7312  C     
12   C        17.9782  -31.6178   -2.5937  C     
13   C        19.5488  -31.2733   -5.0506  C     
14   O        18.2361  -37.1788   -7.5201  O     
15   O        23.9933  -34.6313   -4.8234  O     
16   C        18.1008  -34.1530   -1.3887  C     
17   C        17.5055  -31.7683   -1.2671  C     
18   C        17.6128  -33.0414   -0.6665  C     
19   O        19.0553  -37.5171   -5.4179  O     
20   O        22.5076  -36.4136   -4.9417  O     
21   C        16.9082  -30.6176   -0.5534  C     
22   C        18.1782  -35.4838   -0.7475  C     
23   H        20.0748  -35.1923   -4.5008  H     
24   H        18.1379  -34.1176   -5.5394  H     
25   H        20.3107  -34.5934   -8.4421  H     
26   H        18.7166  -35.0494   -8.2716  H     
27   H        20.8942  -36.1248   -7.0021  H     
28   H        18.2640  -33.0097   -7.6080  H     
29   H        20.0101  -32.7068   -7.4819  H     
30   H        21.9297  -33.6335   -6.3772  H     
31   H        21.7387  -33.3547   -4.6259  H     
32   H        18.7470  -34.8322   -3.2628  H     
33   H        17.8614  -30.6964   -3.0061  H     
34   H        19.6705  -30.5324   -4.4054  H     
35   H        19.8601  -31.0919   -5.9771  H     
36   H        17.2983  -33.1522    0.2983  H     
37   H        17.5943  -29.7683   -0.5774  H     
38   H        16.7008  -30.8579    0.4929  H     
39   H        15.9670  -30.3351   -1.0311  H     
40   H        17.5213  -36.1922   -1.2695  H     
41   H        17.8900  -35.4691    0.3123  H     
42   H        19.2094  -35.8506   -0.8054  H     
@<TRIPOS>BOND
     1    1    2 1
     2    1    5 1
     3    1    9 1
     4    2    3 1
     5    2    7 1
     6    3    6 1
     7    3   13 2
     8    4    5 1
     9    4    7 1
    10    5    8 1
    11    6   11 1
    12    6   12 2
    13    8   14 2
    14    8   19 1
    15    9   10 1
    16   10   15 2
    17   10   20 1
    18   11   16 2
    19   12   17 1
    20   16   18 1
    21   16   22 1
    22   17   18 2
    23   17   21 1
    24    1   23 1
    25    2   24 1
    26    4   25 1
    27    4   26 1
    28    5   27 1
    29    7   28 1
    30    7   29 1
    31    9   30 1
    32    9   31 1
    33   11   32 1
    34   12   33 1
    35   13   34 1
    36   13   35 1
    37   18   36 1
    38   21   37 1
    39   21   38 1
    40   21   39 1
    41   22   40 1
    42   22   41 1
    43   22   42 1
@<TRIPOS>PROPERTY_DATA
  Total_Score	| 15.2123
  Crash		| -0.7809
  Polar		| 11.5590
  FragIndex	| 1
  FragRMSD	| 0.455

