@<TRIPOS>MOLECULE
BindingDB_50002369
 29 29 0 0 0
SMALL
NO_CHARGES


@<TRIPOS>ATOM
1    C        20.1632  -34.5837   -5.4319  C     
2    C        19.1462  -33.4328   -5.7032  C     
3    C        19.9224  -35.5348   -6.6501  C     
4    C        21.6562  -34.1148   -5.3261  C     
5    C        19.2582  -33.2928   -7.2419  C     
6    C        19.2351  -32.2322   -4.8399  C     
7    C        18.9294  -36.6108   -6.4083  C     
8    C        22.6438  -35.1636   -4.9997  C     
9    C        19.1489  -32.4325   -3.3908  C     
10   C        19.3158  -30.9765   -5.3223  C     
11   O        18.3478  -37.2122   -7.4699  O     
12   O        23.9192  -34.7905   -4.7447  O     
13   N        19.4990  -34.6481   -7.7577  N     
14   O        19.0824  -37.4006   -5.3217  O     
15   O        22.3311  -36.4765   -4.9035  O     
16   H        19.9023  -35.0740   -4.4885  H     
17   H        18.1433  -33.8408   -5.5221  H     
18   H        20.8476  -36.0309   -6.9524  H     
19   H        21.9635  -33.6606   -6.2702  H     
20   H        21.7449  -33.3530   -4.5512  H     
21   H        18.3466  -32.8766   -7.6782  H     
22   H        20.1086  -32.6698   -7.5299  H     
23   H        18.2157  -32.9436   -3.1451  H     
24   H        19.1728  -31.5016   -2.8178  H     
25   H        19.9814  -33.0452   -3.0444  H     
26   H        19.3642  -30.1920   -4.7163  H     
27   H        19.3236  -30.7863   -6.2928  H     
28   H        20.2420  -34.6098   -8.4573  H     
29   H        18.6477  -34.9862   -8.2086  H     
@<TRIPOS>BOND
     1    1    2 1
     2    1    3 1
     3    1    4 1
     4    2    5 1
     5    2    6 1
     6    3    7 1
     7    3   13 1
     8    4    8 1
     9    5   13 1
    10    6    9 1
    11    6   10 2
    12    7   11 2
    13    7   14 1
    14    8   12 2
    15    8   15 1
    16    1   16 1
    17    2   17 1
    18    3   18 1
    19    4   19 1
    20    4   20 1
    21    5   21 1
    22    5   22 1
    23    9   23 1
    24    9   24 1
    25    9   25 1
    26   10   26 1
    27   10   27 1
    28   13   28 1
    29   13   29 1
@<TRIPOS>PROPERTY_DATA
  Total_Score	| 13.8449
  Crash		| -0.1921
  Polar		| 11.5667
  FragIndex	| 1
  FragRMSD	| 0.265

