@<TRIPOS>MOLECULE
BindingDB_50053082
 48 49 0 0 0
SMALL
NO_CHARGES


@<TRIPOS>ATOM
1    C        20.2234  -34.7962   -5.3608  C     
2    C        19.0817  -33.7329   -5.4565  C     
3    N        19.5469  -34.6808   -7.6605  N     
4    C        20.0011  -35.6548   -6.6456  C     
5    C        19.0878  -32.6041   -4.4727  C     
6    C        19.0601  -33.4618   -6.9958  C     
7    C        19.0273  -36.7709   -6.4889  C     
8    C        21.6654  -34.2008   -5.2440  C     
9    C        18.5135  -32.7381   -3.1568  C     
10   C        22.7371  -35.1835   -4.9926  C     
11   C        19.7519  -31.4645   -4.7833  C     
12   O        18.3373  -37.2421   -7.5509  O     
13   O        23.9733  -34.7313   -4.6845  O     
14   C        18.3846  -34.0027   -2.5188  C     
15   C        18.0616  -31.6258   -2.3802  C     
16   O        19.1026  -37.6030   -5.4281  O     
17   O        22.4910  -36.4997   -4.8215  O     
18   C        17.6370  -31.7545   -1.0458  C     
19   C        17.9766  -34.1403   -1.1757  C     
20   C        17.6242  -33.0189   -0.4055  C     
21   C        17.2228  -33.1873    1.0282  C     
22   C        18.4493  -33.3355    1.9750  C     
23   C        18.1066  -33.5427    3.4758  C     
24   C        17.7038  -34.9862    3.8655  C     
25   H        20.0903  -35.4297   -4.4895  H     
26   H        18.1413  -34.2629   -5.2783  H     
27   H        20.3417  -34.4465   -8.2493  H     
28   H        18.8085  -35.0616   -8.2499  H     
29   H        20.9372  -36.1011   -6.9823  H     
30   H        18.0572  -33.2328   -7.3491  H     
31   H        19.7228  -32.6632   -7.3180  H     
32   H        21.9117  -33.6403   -6.1501  H     
33   H        21.6941  -33.5082   -4.4021  H     
34   H        19.9071  -30.7406   -4.1293  H     
35   H        20.1888  -31.3312   -5.6473  H     
36   H        18.6010  -34.8617   -2.9911  H     
37   H        18.0300  -30.6897   -2.7862  H     
38   H        17.3497  -30.9246   -0.5259  H     
39   H        17.9491  -35.0822   -0.7632  H     
40   H        16.6313  -32.3312    1.3532  H     
41   H        16.5840  -34.0677    1.1107  H     
42   H        19.0850  -34.1586    1.6435  H     
43   H        19.0448  -32.4229    1.8936  H     
44   H        18.9865  -33.2794    4.0717  H     
45   H        17.3073  -32.8545    3.7655  H     
46   H        16.8592  -35.3359    3.2744  H     
47   H        17.4226  -35.0178    4.9190  H     
48   H        18.5409  -35.6681    3.7158  H     
@<TRIPOS>BOND
     1    1    2 1
     2    1    4 1
     3    1    8 1
     4    2    5 1
     5    2    6 1
     6    3    4 1
     7    3    6 1
     8    4    7 1
     9    5    9 1
    10    5   11 2
    11    7   12 2
    12    7   16 1
    13    8   10 1
    14    9   14 2
    15    9   15 1
    16   10   13 2
    17   10   17 1
    18   14   19 1
    19   15   18 2
    20   18   20 1
    21   19   20 2
    22   20   21 1
    23   21   22 1
    24   22   23 1
    25   23   24 1
    26    1   25 1
    27    2   26 1
    28    3   27 1
    29    3   28 1
    30    4   29 1
    31    6   30 1
    32    6   31 1
    33    8   32 1
    34    8   33 1
    35   11   34 1
    36   11   35 1
    37   14   36 1
    38   15   37 1
    39   18   38 1
    40   19   39 1
    41   21   40 1
    42   21   41 1
    43   22   42 1
    44   22   43 1
    45   23   44 1
    46   23   45 1
    47   24   46 1
    48   24   47 1
    49   24   48 1
@<TRIPOS>PROPERTY_DATA
  Total_Score	| 15.5801
  Crash		| -1.4089
  Polar		| 11.5463
  FragIndex	| 1
  FragRMSD	| 0.534

