@<TRIPOS>MOLECULE
BindingDB_50053070
 46 47 0 0 0
SMALL
NO_CHARGES


@<TRIPOS>ATOM
1    C        20.1650  -34.5921   -5.4686  C     
2    C        19.1446  -33.4478   -5.7820  C     
3    N        19.5351  -34.6976   -7.8059  N     
4    C        19.9625  -35.5599   -6.6826  C     
5    C        19.1501  -32.2401   -4.8941  C     
6    C        19.3315  -33.3313   -7.3195  C     
7    C        18.9740  -36.6387   -6.4347  C     
8    C        21.6444  -34.1043   -5.3071  C     
9    C        18.7399  -32.3329   -3.5127  C     
10   C        22.6516  -35.1478   -5.0215  C     
11   C        17.2017  -32.5821    0.4794  C     
12   C        17.7485  -32.5186   -0.7945  C     
13   C        19.4576  -31.0441   -5.4558  C     
14   O        19.0930  -37.4233   -5.3418  O     
15   O        23.9169  -34.7675   -4.7341  O     
16   C        18.6998  -31.2103   -2.6270  C     
17   C        18.2974  -33.5599   -2.9304  C     
18   C        17.8322  -33.6607   -1.6071  C     
19   C        18.1847  -31.2862   -1.3214  C     
20   C        17.9331  -33.0718    1.4951  C     
21   O        18.2430  -37.1512   -7.4443  O     
22   O        22.3535  -36.4645   -4.9322  O     
23   C        15.8336  -32.0944    0.6877  C     
24   C        15.7089  -31.0850    1.8559  C     
25   H        19.9040  -35.0916   -4.5326  H     
26   H        18.1306  -33.8606   -5.7003  H     
27   H        20.2530  -34.6911   -8.5265  H     
28   H        18.6604  -35.0118   -8.2218  H     
29   H        20.9031  -36.0393   -6.9614  H     
30   H        18.4586  -32.8820   -7.8002  H     
31   H        20.2163  -32.7577   -7.5935  H     
32   H        21.9568  -33.5833   -6.2143  H     
33   H        21.6901  -33.3898   -4.4833  H     
34   H        19.3964  -30.1845   -4.9817  H     
35   H        19.7370  -30.9500   -6.3962  H     
36   H        19.0388  -30.2886   -2.8972  H     
37   H        18.2532  -34.4237   -3.4638  H     
38   H        17.5157  -34.5692   -1.2540  H     
39   H        18.1359  -30.4347   -0.7575  H     
40   H        17.5601  -33.1132    2.4140  H     
41   H        18.8637  -33.3836    1.3555  H     
42   H        15.4528  -31.6013   -0.2166  H     
43   H        15.1720  -32.9439    0.8782  H     
44   H        16.1009  -31.5098    2.7885  H     
45   H        14.6541  -30.8245    2.0063  H     
46   H        16.2635  -30.1666    1.6226  H     
@<TRIPOS>BOND
     1    1    2 1
     2    1    4 1
     3    1    8 1
     4    2    5 1
     5    2    6 1
     6    3    4 1
     7    3    6 1
     8    4    7 1
     9    5    9 1
    10    5   13 2
    11    7   14 2
    12    7   21 1
    13    8   10 1
    14    9   16 1
    15    9   17 2
    16   10   15 2
    17   10   22 1
    18   11   12 1
    19   11   20 2
    20   11   23 1
    21   12   18 2
    22   12   19 1
    23   16   19 2
    24   17   18 1
    25   23   24 1
    26    1   25 1
    27    2   26 1
    28    3   27 1
    29    3   28 1
    30    4   29 1
    31    6   30 1
    32    6   31 1
    33    8   32 1
    34    8   33 1
    35   13   34 1
    36   13   35 1
    37   16   36 1
    38   17   37 1
    39   18   38 1
    40   19   39 1
    41   20   40 1
    42   20   41 1
    43   23   42 1
    44   23   43 1
    45   24   44 1
    46   24   45 1
    47   24   46 1
@<TRIPOS>PROPERTY_DATA
  Total_Score	| 16.3054
  Crash		| -0.9446
  Polar		| 11.4036
  FragIndex	| 1
  FragRMSD	| 0.893

