@<TRIPOS>MOLECULE
BindingDB_50053069
 36 37 0 0 0
SMALL
NO_CHARGES


@<TRIPOS>ATOM
1    C        19.8273  -34.4958   -5.4018  C     
2    C        19.8978  -33.0269   -5.8984  C     
3    N        19.5234  -34.6079   -7.7878  N     
4    C        19.9250  -35.4308   -6.6450  C     
5    C        19.2879  -31.8894   -5.1162  C     
6    C        19.3142  -33.2273   -7.3357  C     
7    C        19.1227  -36.6730   -6.5223  C     
8    C        20.8628  -34.8566   -4.2747  C     
9    C        22.0788  -35.5879   -4.6873  C     
10   C        18.8340  -31.8756   -3.7353  C     
11   C        19.2141  -30.7240   -5.8105  C     
12   O        18.7649  -37.3570   -7.6301  O     
13   O        23.2811  -34.9740   -4.7593  O     
14   O        19.2158  -37.4087   -5.3933  O     
15   O        22.0246  -36.9173   -4.9331  O     
16   C        18.3281  -32.9908   -2.9938  C     
17   C        18.8321  -30.6511   -2.9937  C     
18   C        18.2379  -30.5110   -1.7265  C     
19   C        17.7608  -32.8740   -1.7095  C     
20   C        17.6769  -31.6244   -1.0919  C     
21   H        18.7888  -34.6130   -5.0597  H     
22   H        20.9547  -32.7768   -6.0268  H     
23   H        20.2697  -34.6266   -8.4855  H     
24   H        18.6630  -34.9534   -8.2182  H     
25   H        20.9534  -35.7299   -6.8427  H     
26   H        18.2396  -33.0356   -7.3482  H     
27   H        19.7906  -32.5590   -8.0578  H     
28   H        21.2113  -33.9588   -3.7638  H     
29   H        20.3396  -35.4578   -3.5303  H     
30   H        18.6713  -29.9563   -5.4989  H     
31   H        19.6512  -30.5990   -6.6909  H     
32   H        18.3574  -33.9402   -3.3337  H     
33   H        19.2683  -29.8057   -3.3684  H     
34   H        18.2109  -29.5964   -1.2689  H     
35   H        17.3929  -33.7009   -1.2313  H     
36   H        17.2456  -31.5325   -0.1695  H     
@<TRIPOS>BOND
     1    1    2 1
     2    1    4 1
     3    1    8 1
     4    2    5 1
     5    2    6 1
     6    3    4 1
     7    3    6 1
     8    4    7 1
     9    5   10 1
    10    5   11 2
    11    7   12 2
    12    7   14 1
    13    8    9 1
    14    9   13 2
    15    9   15 1
    16   10   16 2
    17   10   17 1
    18   16   19 1
    19   17   18 2
    20   18   20 1
    21   19   20 2
    22    1   21 1
    23    2   22 1
    24    3   23 1
    25    3   24 1
    26    4   25 1
    27    6   26 1
    28    6   27 1
    29    8   28 1
    30    8   29 1
    31   11   30 1
    32   11   31 1
    33   16   32 1
    34   17   33 1
    35   18   34 1
    36   19   35 1
    37   20   36 1
@<TRIPOS>PROPERTY_DATA
  Total_Score	| 13.0464
  Crash		| -1.3213
  Polar		| 10.6798
  FragIndex	| 1
  FragRMSD	| 0.623

