@<TRIPOS>MOLECULE
BindingDB_50240399
 31 31 0 0 0
SMALL
NO_CHARGES


@<TRIPOS>ATOM
1    C        19.9396  -35.4215   -6.6719  C     
2    C        20.2476  -34.5534   -5.4023  C     
3    C        19.3666  -33.2804   -5.6207  C     
4    C        19.4416  -33.1085   -7.1496  C     
5    N        19.4867  -34.4708   -7.7144  N     
6    C        19.6954  -31.9966   -4.7641  C     
7    C        19.1672  -30.6683   -5.3817  C     
8    C        19.1595  -32.1517   -3.3115  C     
9    C        18.9628  -36.5165   -6.4443  C     
10   O        19.1090  -37.2960   -5.3478  O     
11   O        18.4195  -37.1465   -7.5195  O     
12   C        21.7706  -34.2436   -5.2020  C     
13   C        22.6871  -35.3821   -5.0345  C     
14   O        22.2902  -36.6647   -5.2011  O     
15   O        23.9108  -35.1415   -4.5086  O     
16   H        20.8525  -35.8920   -7.0448  H     
17   H        19.9039  -35.0587   -4.4924  H     
18   H        18.3317  -33.5552   -5.3974  H     
19   H        18.5718  -32.5832   -7.5505  H     
20   H        20.3535  -32.5819   -7.4423  H     
21   H        20.1600  -34.4858   -8.4836  H     
22   H        18.5631  -34.7281   -8.0805  H     
23   H        20.7840  -31.8765   -4.7115  H     
24   H        19.6239  -30.4937   -6.3589  H     
25   H        19.4329  -29.8221   -4.7362  H     
26   H        18.0789  -30.6913   -5.4900  H     
27   H        18.0696  -32.2078   -3.3023  H     
28   H        19.4804  -31.3153   -2.6889  H     
29   H        19.5492  -33.0592   -2.8564  H     
30   H        22.1303  -33.6580   -6.0455  H     
31   H        21.8948  -33.6532   -4.2951  H     
@<TRIPOS>BOND
     1    1    2 1
     2    1    5 1
     3    1    9 1
     4    2    3 1
     5    2   12 1
     6    3    4 1
     7    3    6 1
     8    4    5 1
     9    6    7 1
    10    6    8 1
    11    9   10 1
    12    9   11 2
    13   12   13 1
    14   13   14 1
    15   13   15 2
    16    1   16 1
    17    2   17 1
    18    3   18 1
    19    4   19 1
    20    4   20 1
    21    5   21 1
    22    5   22 1
    23    6   23 1
    24    7   24 1
    25    7   25 1
    26    7   26 1
    27    8   27 1
    28    8   28 1
    29    8   29 1
    30   12   30 1
    31   12   31 1
@<TRIPOS>PROPERTY_DATA
  Total_Score	| 13.3096
  Crash		| -0.4940
  Polar		| 10.8806
  FragIndex	| 1
  FragRMSD	| 0.090

