@<TRIPOS>MOLECULE
BindingDB_50053088
 39 40 0 0 0
SMALL
NO_CHARGES


@<TRIPOS>ATOM
1    C        20.0918  -34.5969   -5.3942  C     
2    C        19.0923  -33.4298   -5.6971  C     
3    N        19.5210  -34.6345   -7.7617  N     
4    C        19.9499  -35.5179   -6.6595  C     
5    C        19.1153  -32.2433   -4.7704  C     
6    C        19.3132  -33.2808   -7.2332  C     
7    C        18.9956  -36.6407   -6.4647  C     
8    C        21.5500  -34.1170   -5.0942  C     
9    C        18.6524  -32.3399   -3.4007  C     
10   C        22.5764  -35.1737   -4.9755  C     
11   C        19.5329  -31.0608   -5.2900  C     
12   O        19.1182  -37.4354   -5.3775  O     
13   O        23.8650  -34.8213   -4.8049  O     
14   C        18.3033  -33.5886   -2.8040  C     
15   C        18.4539  -31.2154   -2.5382  C     
16   O        18.3962  -37.2227   -7.5221  O     
17   O        22.2405  -36.4814   -4.7899  O     
18   C        17.8137  -33.7135   -1.4918  C     
19   C        17.9384  -31.3233   -1.2305  C     
20   C        17.6080  -32.5805   -0.6826  C     
21   C        17.0417  -32.7186    0.6769  C     
22   H        19.7786  -35.1491   -4.5070  H     
23   H        18.0751  -33.8316   -5.6370  H     
24   H        20.2560  -34.6079   -8.4719  H     
25   H        18.6547  -34.9538   -8.1953  H     
26   H        20.9103  -35.9588   -6.9385  H     
27   H        18.4549  -32.8149   -7.7275  H     
28   H        20.2190  -32.7180   -7.4805  H     
29   H        21.8800  -33.4067   -5.8635  H     
30   H        21.5615  -33.5819   -4.1375  H     
31   H        19.6264  -30.2341   -4.7630  H     
32   H        19.8000  -30.9503   -6.2297  H     
33   H        18.3596  -34.4587   -3.3198  H     
34   H        18.6580  -30.2621   -2.8287  H     
35   H        17.5725  -34.6407   -1.1352  H     
36   H        17.7921  -30.4710   -0.6882  H     
37   H        16.0652  -33.2055    0.6257  H     
38   H        16.9110  -31.7467    1.1634  H     
39   H        17.7096  -33.3228    1.2933  H     
@<TRIPOS>BOND
     1    1    2 1
     2    1    4 1
     3    1    8 1
     4    2    5 1
     5    2    6 1
     6    3    4 1
     7    3    6 1
     8    4    7 1
     9    5    9 1
    10    5   11 2
    11    7   12 2
    12    7   16 1
    13    8   10 1
    14    9   14 2
    15    9   15 1
    16   10   13 2
    17   10   17 1
    18   14   18 1
    19   15   19 2
    20   18   20 2
    21   19   20 1
    22   20   21 1
    23    1   22 1
    24    2   23 1
    25    3   24 1
    26    3   25 1
    27    4   26 1
    28    6   27 1
    29    6   28 1
    30    8   29 1
    31    8   30 1
    32   11   31 1
    33   11   32 1
    34   14   33 1
    35   15   34 1
    36   18   35 1
    37   19   36 1
    38   21   37 1
    39   21   38 1
    40   21   39 1
@<TRIPOS>PROPERTY_DATA
  Total_Score	| 14.7926
  Crash		| -0.6024
  Polar		| 11.6101
  FragIndex	| 1
  FragRMSD	| 0.904

