@<TRIPOS>MOLECULE
BindingDB_50053060
 48 49 0 0 0
SMALL
NO_CHARGES


@<TRIPOS>ATOM
1    C        20.1764  -34.6361   -5.5462  C     
2    C        19.1051  -33.5235   -5.7914  C     
3    N        19.5448  -34.6785   -7.8780  N     
4    C        19.9959  -35.5799   -6.7826  C     
5    C        19.1103  -32.4017   -4.8136  C     
6    C        19.2560  -33.3355   -7.3356  C     
7    C        19.0301  -36.6964   -6.5594  C     
8    C        21.6505  -34.1127   -5.4276  C     
9    C        18.6946  -32.6182   -3.4537  C     
10   C        22.6656  -35.1187   -5.0244  C     
11   C        17.1994  -33.2276    0.7049  C     
12   C        17.6970  -33.0381   -0.7272  C     
13   C        19.4511  -31.1591   -5.2357  C     
14   O        18.2934  -37.1897   -7.5838  O     
15   O        22.3433  -36.3808   -4.6341  O     
16   C        18.5787  -31.5533   -2.4974  C     
17   C        18.2893  -33.8941   -2.9448  C     
18   C        17.8072  -34.1019   -1.6517  C     
19   C        18.0747  -31.7528   -1.2026  C     
20   O        19.1052  -37.4426   -5.4198  O     
21   O        23.9658  -34.7464   -5.1007  O     
22   C        18.4040  -33.1993    1.7123  C     
23   C        16.1844  -32.0788    1.0431  C     
24   C        16.4640  -34.5986    1.0044  C     
25   H        19.9519  -35.1691   -4.6167  H     
26   H        18.1142  -33.9713   -5.7158  H     
27   H        20.2886  -34.6017   -8.5827  H     
28   H        18.6926  -35.0427   -8.3288  H     
29   H        20.9542  -36.0354   -7.0813  H     
30   H        18.3268  -32.9494   -7.7683  H     
31   H        20.0975  -32.6975   -7.6306  H     
32   H        21.9514  -33.6915   -6.3974  H     
33   H        21.6639  -33.2877   -4.7085  H     
34   H        19.3821  -30.3588   -4.6622  H     
35   H        19.7346  -30.9495   -6.1532  H     
36   H        18.9083  -30.6139   -2.7099  H     
37   H        18.3320  -34.7163   -3.5487  H     
38   H        17.5453  -35.0709   -1.3893  H     
39   H        18.0200  -30.9559   -0.5629  H     
40   H        19.0671  -34.0643    1.5356  H     
41   H        18.0544  -33.2375    2.7541  H     
42   H        19.0007  -32.2904    1.5958  H     
43   H        16.6358  -31.0990    0.8850  H     
44   H        15.8711  -32.1260    2.0914  H     
45   H        15.2902  -32.1629    0.3998  H     
46   H        15.5539  -34.7149    0.3894  H     
47   H        16.1573  -34.6607    2.0701  H     
48   H        17.1318  -35.4531    0.8063  H     
@<TRIPOS>BOND
     1    1    2 1
     2    1    4 1
     3    1    8 1
     4    2    5 1
     5    2    6 1
     6    3    4 1
     7    3    6 1
     8    4    7 1
     9    5    9 1
    10    5   13 2
    11    7   14 2
    12    7   20 1
    13    8   10 1
    14    9   16 1
    15    9   17 2
    16   10   15 2
    17   10   21 1
    18   11   12 1
    19   11   22 1
    20   11   23 1
    21   11   24 1
    22   12   18 2
    23   12   19 1
    24   16   19 2
    25   17   18 1
    26    1   25 1
    27    2   26 1
    28    3   27 1
    29    3   28 1
    30    4   29 1
    31    6   30 1
    32    6   31 1
    33    8   32 1
    34    8   33 1
    35   13   34 1
    36   13   35 1
    37   16   36 1
    38   17   37 1
    39   18   38 1
    40   19   39 1
    41   22   40 1
    42   22   41 1
    43   22   42 1
    44   23   43 1
    45   23   44 1
    46   23   45 1
    47   24   46 1
    48   24   47 1
    49   24   48 1
@<TRIPOS>PROPERTY_DATA
  Total_Score	| 13.7300
  Crash		| -3.2035
  Polar		| 11.2650
  FragIndex	| 1
  FragRMSD	| 0.912

