@<TRIPOS>MOLECULE
BindingDB_50053081
 43 44 0 0 0
SMALL
NO_CHARGES


@<TRIPOS>ATOM
1    C        20.0303  -34.5900   -5.3055  C     
2    C        19.7003  -33.1385   -5.7626  C     
3    N        19.5177  -34.5979   -7.6551  N     
4    C        20.0243  -35.4847   -6.5931  C     
5    C        19.1144  -32.1124   -4.8375  C     
6    C        18.8624  -33.4497   -7.0284  C     
7    C        19.2024  -36.7333   -6.5181  C     
8    C        21.2741  -34.6202   -4.3461  C     
9    C        18.8115  -32.2300   -3.4297  C     
10   C        22.3966  -35.4857   -4.7205  C     
11   C        17.1111  -32.2071    0.4990  C     
12   C        17.7618  -32.2266   -0.7269  C     
13   C        18.8678  -30.9152   -5.4335  C     
14   O        18.5486  -37.2318   -7.5970  O     
15   O        23.6550  -34.9998   -4.7196  O     
16   C        18.4088  -33.4230   -2.7533  C     
17   C        18.7981  -31.0636   -2.6080  C     
18   C        18.2628  -31.0473   -1.3072  C     
19   C        17.8984  -33.4323   -1.4387  C     
20   C        17.7615  -32.5318    1.6346  C     
21   O        19.1934  -37.5045   -5.4020  O     
22   O        22.2164  -36.8007   -4.9575  O     
23   C        15.7006  -31.8389    0.5069  C     
24   H        19.1421  -34.9181   -4.7858  H     
25   H        20.6358  -32.7014   -6.1363  H     
26   H        20.3206  -34.2907   -8.1994  H     
27   H        18.8598  -35.0587   -8.2791  H     
28   H        21.0365  -35.7698   -6.8770  H     
29   H        17.8448  -33.7211   -6.7454  H     
30   H        18.8337  -32.6199   -7.7322  H     
31   H        21.6813  -33.6141   -4.2348  H     
32   H        20.9417  -34.9186   -3.3490  H     
33   H        18.3799  -30.1821   -4.9764  H     
34   H        19.1529  -30.7242   -6.3589  H     
35   H        18.4678  -34.3509   -3.1659  H     
36   H        19.1443  -30.1699   -2.9688  H     
37   H        18.1944  -30.1546   -0.8110  H     
38   H        17.5996  -34.3256   -1.0257  H     
39   H        17.2992  -32.5221    2.5103  H     
40   H        18.7188  -32.7957    1.6172  H     
41   H        15.5400  -30.9261   -0.0778  H     
42   H        15.3217  -31.6483    1.5100  H     
43   H        15.1062  -32.6463    0.0748  H     
@<TRIPOS>BOND
     1    1    2 1
     2    1    4 1
     3    1    8 1
     4    2    5 1
     5    2    6 1
     6    3    4 1
     7    3    6 1
     8    4    7 1
     9    5    9 1
    10    5   13 2
    11    7   14 2
    12    7   21 1
    13    8   10 1
    14    9   16 2
    15    9   17 1
    16   10   15 2
    17   10   22 1
    18   11   12 1
    19   11   20 2
    20   11   23 1
    21   12   18 1
    22   12   19 2
    23   16   19 1
    24   17   18 2
    25    1   24 1
    26    2   25 1
    27    3   26 1
    28    3   27 1
    29    4   28 1
    30    6   29 1
    31    6   30 1
    32    8   31 1
    33    8   32 1
    34   13   33 1
    35   13   34 1
    36   16   35 1
    37   17   36 1
    38   18   37 1
    39   19   38 1
    40   20   39 1
    41   20   40 1
    42   23   41 1
    43   23   42 1
    44   23   43 1
@<TRIPOS>PROPERTY_DATA
  Total_Score	| 13.2224
  Crash		| -1.8988
  Polar		| 10.8768
  FragIndex	| 1
  FragRMSD	| 0.478

