@<TRIPOS>MOLECULE
BindingDB_50053059
 45 46 0 0 0
SMALL
NO_CHARGES


@<TRIPOS>ATOM
1    C        20.1028  -34.6027   -5.4633  C     
2    C        19.0890  -33.4563   -5.7772  C     
3    N        19.5166  -34.6729   -7.8203  N     
4    C        19.9564  -35.5425   -6.7062  C     
5    C        19.0735  -32.2520   -4.8845  C     
6    C        19.3019  -33.3141   -7.3083  C     
7    C        19.0206  -36.6776   -6.4938  C     
8    C        21.5667  -34.1014   -5.2128  C     
9    C        18.7048  -32.3644   -3.4937  C     
10   C        22.6006  -35.1473   -5.0426  C     
11   C        19.3112  -31.0334   -5.4360  C     
12   O        19.1622  -37.4706   -5.4056  O     
13   O        23.8792  -34.7664   -4.8164  O     
14   C        18.3096  -33.5975   -2.8964  C     
15   C        18.6840  -31.2438   -2.6047  C     
16   O        18.2708  -37.1775   -7.4991  O     
17   O        22.2911  -36.4590   -4.9225  O     
18   C        18.2148  -31.3299   -1.2851  C     
19   C        17.8941  -33.7044   -1.5596  C     
20   C        17.8170  -32.5651   -0.7341  C     
21   C        17.3422  -32.6418    0.6738  C     
22   C        15.9859  -31.9046    0.9014  C     
23   C        15.9399  -31.0916    2.2142  C     
24   H        19.7958  -35.1333   -4.5616  H     
25   H        18.0809  -33.8765   -5.7098  H     
26   H        20.2341  -34.6460   -8.5442  H     
27   H        18.6461  -35.0029   -8.2418  H     
28   H        20.9170  -35.9800   -6.9865  H     
29   H        18.4351  -32.8539   -7.7950  H     
30   H        20.1950  -32.7304   -7.5474  H     
31   H        21.8818  -33.4484   -6.0366  H     
32   H        21.5817  -33.5044   -4.2907  H     
33   H        19.2007  -30.1878   -4.9398  H     
34   H        19.5497  -30.9097   -6.3863  H     
35   H        18.2766  -34.4602   -3.4276  H     
36   H        19.0139  -30.3177   -2.8940  H     
37   H        18.1739  -30.4759   -0.7207  H     
38   H        17.6148  -34.6173   -1.1978  H     
39   H        17.2234  -33.6829    0.9830  H     
40   H        18.1194  -32.2212    1.3197  H     
41   H        15.7749  -31.2179    0.0763  H     
42   H        15.1819  -32.6512    0.9217  H     
43   H        16.2817  -31.6955    3.0552  H     
44   H        14.9201  -30.7661    2.4097  H     
45   H        16.5742  -30.2098    2.1299  H     
@<TRIPOS>BOND
     1    1    2 1
     2    1    4 1
     3    1    8 1
     4    2    5 1
     5    2    6 1
     6    3    4 1
     7    3    6 1
     8    4    7 1
     9    5    9 1
    10    5   11 2
    11    7   12 2
    12    7   16 1
    13    8   10 1
    14    9   14 2
    15    9   15 1
    16   10   13 2
    17   10   17 1
    18   14   19 1
    19   15   18 2
    20   18   20 1
    21   19   20 2
    22   20   21 1
    23   21   22 1
    24   22   23 1
    25    1   24 1
    26    2   25 1
    27    3   26 1
    28    3   27 1
    29    4   28 1
    30    6   29 1
    31    6   30 1
    32    8   31 1
    33    8   32 1
    34   11   33 1
    35   11   34 1
    36   14   35 1
    37   15   36 1
    38   18   37 1
    39   19   38 1
    40   21   39 1
    41   21   40 1
    42   22   41 1
    43   22   42 1
    44   23   43 1
    45   23   44 1
    46   23   45 1
@<TRIPOS>PROPERTY_DATA
  Total_Score	| 15.6297
  Crash		| -1.1061
  Polar		| 11.4440
  FragIndex	| 1
  FragRMSD	| 0.902

