@<TRIPOS>MOLECULE
BindingDB_50053083
 39 40 0 0 0
SMALL
NO_CHARGES


@<TRIPOS>ATOM
1    C        20.1630  -34.5833   -5.4519  C     
2    C        19.1385  -33.4417   -5.7574  C     
3    N        19.5218  -34.6750   -7.7931  N     
4    C        19.1343  -32.2473   -4.8571  C     
5    C        19.9543  -35.5427   -6.6710  C     
6    C        19.3212  -33.3098   -7.2936  C     
7    C        18.7043  -32.3619   -3.4779  C     
8    C        18.9631  -36.6208   -6.4268  C     
9    C        21.6439  -34.0950   -5.2729  C     
10   C        22.6435  -35.1453   -4.9771  C     
11   C        18.3411  -33.6149   -2.8939  C     
12   C        19.4614  -31.0441   -5.4021  C     
13   O        19.1104  -37.4259   -5.3501  O     
14   O        23.9200  -34.7766   -4.7098  O     
15   O        18.3215  -37.1877   -7.4706  O     
16   O        22.3374  -36.4652   -4.9194  O     
17   C        17.9047  -33.7640   -1.5578  C     
18   C        18.5759  -31.2439   -2.5987  C     
19   C        18.0974  -31.3537   -1.2849  C     
20   C        17.7695  -32.6088   -0.7625  C     
21   C        17.5950  -35.1108   -1.0235  C     
22   H        19.8985  -35.0836   -4.5172  H     
23   H        18.1278  -33.8607   -5.6783  H     
24   H        20.2472  -34.6667   -8.5125  H     
25   H        18.6504  -34.9973   -8.2135  H     
26   H        20.8884  -36.0299   -6.9636  H     
27   H        18.4469  -32.8540   -7.7689  H     
28   H        20.2152  -32.7408   -7.5598  H     
29   H        21.9759  -33.5693   -6.1750  H     
30   H        21.6801  -33.3824   -4.4399  H     
31   H        18.3726  -34.4765   -3.4424  H     
32   H        19.4147  -30.1917   -4.9036  H     
33   H        19.7446  -30.9469   -6.3417  H     
34   H        18.8226  -30.3030   -2.8842  H     
35   H        18.0017  -30.5144   -0.7092  H     
36   H        17.4431  -32.6729    0.1998  H     
37   H        16.8283  -35.5803   -1.6373  H     
38   H        17.2236  -35.0679   -0.0001  H     
39   H        18.4925  -35.7334   -1.0323  H     
@<TRIPOS>BOND
     1    1    2 1
     2    1    5 1
     3    1    9 1
     4    2    4 1
     5    2    6 1
     6    3    5 1
     7    3    6 1
     8    4    7 1
     9    4   12 2
    10    5    8 1
    11    7   11 2
    12    7   18 1
    13    8   13 2
    14    8   15 1
    15    9   10 1
    16   10   14 2
    17   10   16 1
    18   11   17 1
    19   17   20 2
    20   17   21 1
    21   18   19 2
    22   19   20 1
    23    1   22 1
    24    2   23 1
    25    3   24 1
    26    3   25 1
    27    5   26 1
    28    6   27 1
    29    6   28 1
    30    9   29 1
    31    9   30 1
    32   11   31 1
    33   12   32 1
    34   12   33 1
    35   18   34 1
    36   19   35 1
    37   20   36 1
    38   21   37 1
    39   21   38 1
    40   21   39 1
@<TRIPOS>PROPERTY_DATA
  Total_Score	| 14.8487
  Crash		| -0.6920
  Polar		| 11.4853
  FragIndex	| 1
  FragRMSD	| 0.891

