@<TRIPOS>MOLECULE
BindingDB_50281998
 21 21 0 0 0
SMALL
NO_CHARGES


@<TRIPOS>ATOM
1    C        55.7713   13.3808   27.4470  C     
2    C        56.0495   12.2385   28.1993  C     
3    C        55.0715   11.3380   28.4549  C     
4    C        55.2495   10.1110   29.2206  C     
5    O        55.2008    9.0296   28.2893  O     
6    C        56.5608   10.0710   30.0569  C     
7    O        56.8142    8.7493   30.5314  O     
8    C        57.7357   10.6093   29.2022  C     
9    O        58.9721   10.5665   29.9132  O     
10   C        57.4091   12.0561   28.7343  C     
11   O        54.6699   13.4794   26.6671  O     
12   O        56.6348   14.4198   27.3819  O     
13   H        54.1610   11.4816   28.0768  H     
14   H        54.4035   10.0028   29.9068  H     
15   H        55.1777    8.2162   28.8354  H     
16   H        56.4363   10.7134   30.9354  H     
17   H        57.4794    8.8490   31.2429  H     
18   H        57.8564    9.9730   28.3199  H     
19   H        58.7533   10.7636   30.8462  H     
20   H        58.1481   12.3192   27.9701  H     
21   H        57.5393   12.7446   29.5747  H     
@<TRIPOS>BOND
     1    1    2 1
     2    1   11 2
     3    1   12 1
     4    2    3 2
     5    2   10 1
     6    3    4 1
     7    4    5 1
     8    4    6 1
     9    6    7 1
    10    6    8 1
    11    8    9 1
    12    8   10 1
    13    3   13 1
    14    4   14 1
    15    5   15 1
    16    6   16 1
    17    7   17 1
    18    8   18 1
    19    9   19 1
    20   10   20 1
    21   10   21 1
@<TRIPOS>PROPERTY_DATA
  Total_Score	| 9.7813
  Crash		| -0.5074
  Polar		| 8.8029
  FragIndex	| 1
  FragRMSD	| 0.203

