@<TRIPOS>MOLECULE
BindingDB_50281993
 29 29 0 0 0
SMALL
NO_CHARGES


@<TRIPOS>ATOM
1    C        55.4182    9.9291   29.0114  C     
2    P        54.4398    7.9747   27.6024  P     
3    C        56.1917   12.1327   28.1299  C     
4    C        55.2419   11.1818   28.2793  C     
5    C        56.6353    9.9746   29.9776  C     
6    C        55.9059   13.3088   27.4315  C     
7    O        55.6451    8.8444   28.0744  O     
8    C        57.8775   10.5306   29.2290  C     
9    C        57.5346   11.9625   28.7260  C     
10   C        60.7129    9.6124   31.4146  C     
11   O        54.9846    6.8064   26.7577  O     
12   O        53.7580    7.4004   28.7424  O     
13   O        59.0567   10.6103   30.0657  O     
14   O        56.7413   14.3686   27.4333  O     
15   O        54.7778   13.4524   26.6908  O     
16   O        61.4439   10.7460   31.5155  O     
17   O        60.9843    8.6138   32.2813  O     
18   O        53.4139    8.7387   26.7532  O     
19   C        59.8304    9.4103   30.2607  C     
20   O        56.8414    8.6776   30.5221  O     
21   H        54.5313    9.7579   29.6404  H     
22   H        54.3529   11.3022   27.8530  H     
23   H        56.4017   10.6375   30.8162  H     
24   H        58.0869    9.9152   28.3461  H     
25   H        58.2950   12.2447   27.9905  H     
26   H        57.6161   12.6674   29.5656  H     
27   H        60.4413    9.2348   29.3726  H     
28   H        59.2079    8.5265   30.4312  H     
29   H        57.4497    8.8085   31.2755  H     
@<TRIPOS>BOND
     1    1    4 1
     2    1    5 1
     3    1    7 1
     4    2    7 1
     5    2   11 1
     6    2   12 2
     7    2   18 1
     8    3    4 2
     9    3    6 1
    10    3    9 1
    11    5    8 1
    12    5   20 1
    13    6   14 1
    14    6   15 2
    15    8    9 1
    16    8   13 1
    17   10   16 1
    18   10   17 2
    19   10   19 1
    20   13   19 1
    21    1   21 1
    22    4   22 1
    23    5   23 1
    24    8   24 1
    25    9   25 1
    26    9   26 1
    27   19   27 1
    28   19   28 1
    29   20   29 1
@<TRIPOS>PROPERTY_DATA
  Total_Score	| 20.4059
  Crash		| -0.8854
  Polar		| 18.5195
  FragIndex	| 1
  FragRMSD	| 0.867

