@<TRIPOS>MOLECULE
BindingDB_50281995
 22 22 0 0 0
SMALL
NO_CHARGES


@<TRIPOS>ATOM
1    P        54.3755    8.0209   27.7196  P     
2    C        56.2479   12.2416   28.0675  C     
3    C        55.7884   13.3814   27.4045  C     
4    C        55.5663   11.0772   27.9857  C     
5    O        54.9979    8.8868   28.8567  O     
6    O        55.4050    7.1833   26.9352  O     
7    O        53.5224    7.0827   28.3947  O     
8    O        56.4351   14.5650   27.5035  O     
9    C        56.0578    9.8097   28.5226  C     
10   O        54.7185   13.3680   26.5752  O     
11   O        53.4337    8.8016   26.7910  O     
12   C        57.4620   12.3570   28.8945  C     
13   C        58.0233   11.0414   29.5100  C     
14   C        56.8866   10.0388   29.8148  C     
15   H        54.7251   11.0399   27.4566  H     
16   H        56.7414    9.3731   27.7830  H     
17   H        58.2629   12.8109   28.3042  H     
18   H        57.2364   13.0377   29.7180  H     
19   H        58.7240   10.5816   28.8041  H     
20   H        58.5776   11.2637   30.4251  H     
21   H        56.2488   10.4333   30.6122  H     
22   H        57.3152    9.0926   30.1579  H     
@<TRIPOS>BOND
     1    1    5 1
     2    1    6 1
     3    1    7 2
     4    1   11 1
     5    2    3 1
     6    2    4 2
     7    2   12 1
     8    3    8 1
     9    3   10 2
    10    4    9 1
    11    5    9 1
    12    9   14 1
    13   12   13 1
    14   13   14 1
    15    4   15 1
    16    9   16 1
    17   12   17 1
    18   12   18 1
    19   13   19 1
    20   13   20 1
    21   14   21 1
    22   14   22 1
@<TRIPOS>PROPERTY_DATA
  Total_Score	| 11.1573
  Crash		| -0.8532
  Polar		| 9.1236
  FragIndex	| 1
  FragRMSD	| 1.018

