@<TRIPOS>MOLECULE
BindingDB_50280240
 35 35 0 0 0
SMALL
NO_CHARGES


@<TRIPOS>ATOM
1    C        59.8496    9.2590   29.9377  C     
2    P        60.7625    9.2535   28.5099  P     
3    P        54.3963    7.9855   27.5783  P     
4    C        55.2863    9.9825   28.9913  C     
5    O        58.9733   10.4317   29.9443  O     
6    C        56.1136   12.1657   28.1155  C     
7    C        57.7344   10.5105   29.1993  C     
8    C        55.1429   11.2294   28.2413  C     
9    C        60.7330    9.5136   31.1197  C     
10   C        56.4760   10.0535   29.9902  C     
11   C        55.8612   13.3544   27.4291  C     
12   O        55.5566    8.8945   28.0709  O     
13   C        57.4436   11.9682   28.7286  C     
14   O        60.7333    7.9192   27.7416  O     
15   O        60.2228   10.2342   27.4497  O     
16   O        62.1498    9.6110   28.6600  O     
17   O        53.7125    7.2922   28.7721  O     
18   O        53.3744    8.7223   26.6997  O     
19   O        54.9725    6.9504   26.7640  O     
20   O        60.9998    8.6008   32.0811  O     
21   O        54.8015   13.5002   26.6044  O     
22   O        61.2711   10.7345   31.3385  O     
23   O        56.7060   14.4063   27.4849  O     
24   C        59.1171    7.8761   30.0911  C     
25   O        56.6219    8.7995   30.6402  O     
26   H        54.3812    9.8214   29.5937  H     
27   H        57.8428    9.9066   28.2962  H     
28   H        54.2632   11.3731   27.7988  H     
29   H        56.2475   10.7827   30.7754  H     
30   H        58.2241   12.2484   28.0155  H     
31   H        57.5299   12.6420   29.5830  H     
32   H        58.3365    7.7479   29.3380  H     
33   H        58.6462    7.7815   31.0665  H     
34   H        59.8112    7.0352   30.0119  H     
35   H        57.2076    8.9820   31.4122  H     
@<TRIPOS>BOND
     1    1    2 1
     2    1    5 1
     3    1    9 1
     4    1   24 1
     5    2   14 1
     6    2   15 1
     7    2   16 2
     8    3   12 1
     9    3   17 1
    10    3   18 1
    11    3   19 2
    12    4    8 1
    13    4   10 1
    14    4   12 1
    15    7    5 1
    16    6    8 2
    17    6   11 1
    18    6   13 1
    19    7   10 1
    20    7   13 1
    21    9   20 1
    22    9   22 2
    23   10   25 1
    24   11   21 1
    25   11   23 2
    26    4   26 1
    27    7   27 1
    28    8   28 1
    29   10   29 1
    30   13   30 1
    31   13   31 1
    32   24   32 1
    33   24   33 1
    34   24   34 1
    35   25   35 1
@<TRIPOS>PROPERTY_DATA
  Total_Score	| 21.3736
  Crash		| -2.0737
  Polar		| 20.0020
  FragIndex	| 1
  FragRMSD	| 1.178

