@<TRIPOS>MOLECULE
BindingDB_50280241
 26 26 0 0 0
SMALL
NO_CHARGES


@<TRIPOS>ATOM
1    P        54.4241    8.3355   27.7487  P     
2    C        54.9606   10.2456   29.5273  C     
3    C        55.9350   12.1526   28.2321  C     
4    C        54.8922   11.3591   28.5741  C     
5    C        56.3712    9.9979   30.1610  C     
6    C        55.7345   13.2788   27.4312  C     
7    O        54.2797    9.0293   29.1338  O     
8    C        57.5148   10.4364   29.2129  C     
9    C        57.2776   11.9087   28.7779  C     
10   O        55.8399    8.2620   27.1492  O     
11   O        53.9765    6.8882   28.0125  O     
12   O        53.4604    8.8561   26.8134  O     
13   O        56.6222   14.2997   27.3970  O     
14   O        54.6513   13.4109   26.6318  O     
15   N        58.8279   10.2733   29.8529  N     
16   O        56.5365    8.6388   30.5603  O     
17   H        54.3362   10.5743   30.3622  H     
18   H        53.9851   11.5656   28.2185  H     
19   H        56.4482   10.6008   31.0740  H     
20   H        57.5156    9.8033   28.3239  H     
21   H        58.0388   12.1527   28.0294  H     
22   H        57.4274   12.5743   29.6337  H     
23   H        58.8313   10.7324   30.7651  H     
24   H        59.5489   10.6792   29.2560  H     
25   H        59.0228    9.2781   29.9807  H     
26   H        57.2521    8.6442   31.2301  H     
@<TRIPOS>BOND
     1    1    7 1
     2    1   10 1
     3    1   11 1
     4    1   12 2
     5    2    4 1
     6    2    5 1
     7    2    7 1
     8    3    4 2
     9    3    6 1
    10    3    9 1
    11    5    8 1
    12    5   16 1
    13    6   13 1
    14    6   14 2
    15    8    9 1
    16    8   15 1
    17    2   17 1
    18    4   18 1
    19    5   19 1
    20    8   20 1
    21    9   21 1
    22    9   22 1
    23   15   23 1
    24   15   24 1
    25   15   25 1
    26   16   26 1
@<TRIPOS>PROPERTY_DATA
  Total_Score	| 15.2106
  Crash		| -0.7387
  Polar		| 13.3241
  FragIndex	| 1
  FragRMSD	| 0.746

