@<TRIPOS>MOLECULE
BindingDB_50281341
 30 30 0 0 0
SMALL
NO_CHARGES


@<TRIPOS>ATOM
1    C        55.3975    9.9963   29.0621  C     
2    C        56.2455   12.1680   28.1715  C     
3    P        54.3557    8.0314   27.7095  P     
4    C        55.2616   11.2489   28.3197  C     
5    C        57.8747   10.4794   29.2061  C     
6    C        56.6304    9.9945   30.0114  C     
7    C        59.7350    9.3398   30.3689  C     
8    O        55.5761    8.8934   28.1394  O     
9    O        59.1430   10.4644   29.9032  O     
10   C        55.9968   13.3603   27.4887  C     
11   C        57.5881   11.9421   28.7425  C     
12   C        60.6427    9.5292   31.4009  C     
13   O        53.5756    7.6108   28.8437  O     
14   O        54.9046   13.5369   26.7121  O     
15   O        61.0064    8.5638   32.2760  O     
16   C        59.5472    8.1249   29.8185  C     
17   O        53.4363    8.7109   26.6829  O     
18   O        54.8920    6.7413   27.0642  O     
19   O        56.7733    8.6890   30.5694  O     
20   O        56.8702   14.3942   27.5173  O     
21   O        61.3325   10.6891   31.4677  O     
22   H        54.5160    9.8712   29.7044  H     
23   H        54.3716   11.4105   27.9057  H     
24   H        57.9808    9.8731   28.3052  H     
25   H        56.4507   10.6808   30.8463  H     
26   H        58.3508   12.1978   27.9936  H     
27   H        57.7186   12.6189   29.5922  H     
28   H        60.0030    7.3150   30.1711  H     
29   H        58.9448    8.0040   29.0401  H     
30   H        57.4094    8.7862   31.3041  H     
@<TRIPOS>BOND
     1    1    4 1
     2    1    6 1
     3    1    8 1
     4    2    4 2
     5    2   10 1
     6    2   11 1
     7    3    8 1
     8    3   13 2
     9    3   17 1
    10    3   18 1
    11    5    6 1
    12    5    9 1
    13    5   11 1
    14    6   19 1
    15    7    9 1
    16    7   12 1
    17    7   16 2
    18   10   14 2
    19   10   20 1
    20   12   15 2
    21   12   21 1
    22    1   22 1
    23    4   23 1
    24    5   24 1
    25    6   25 1
    26   11   26 1
    27   11   27 1
    28   16   28 1
    29   16   29 1
    30   19   30 1
@<TRIPOS>PROPERTY_DATA
  Total_Score	| 20.7882
  Crash		| -0.7617
  Polar		| 18.0358
  FragIndex	| 1
  FragRMSD	| 0.883

