@<TRIPOS>MOLECULE
BindingDB_50281990
 30 30 0 0 0
SMALL
NO_CHARGES


@<TRIPOS>ATOM
1    C        55.3762    9.9641   29.0089  C     
2    P        54.4138    7.9862   27.6202  P     
3    C        56.2024   12.1529   28.1438  C     
4    C        55.2277   11.2231   28.2812  C     
5    C        57.8423   10.4920   29.2092  C     
6    C        56.5908    9.9776   29.9826  C     
7    C        59.6995    9.3778   30.3952  C     
8    C        55.9486   13.3438   27.4592  C     
9    O        55.6002    8.8888   28.0632  O     
10   O        59.0912   10.4996   29.9407  O     
11   C        60.6054    9.5761   31.4260  C     
12   C        57.5353   11.9475   28.7409  C     
13   O        54.9933    6.8285   26.7866  O     
14   O        53.7579    7.3950   28.7560  O     
15   O        56.8049   14.3902   27.5042  O     
16   O        60.9437    8.6227   32.3268  O     
17   O        54.8733   13.5001   26.6526  O     
18   O        61.2898   10.7384   31.4936  O     
19   C        59.5331    8.1647   29.8368  C     
20   O        53.3830    8.7146   26.7443  O     
21   O        56.7467    8.6719   30.5358  O     
22   H        54.4829    9.8081   29.6278  H     
23   H        54.3419   11.3723   27.8521  H     
24   H        57.9836    9.8902   28.3064  H     
25   H        56.3789   10.6541   30.8181  H     
26   H        58.3073   12.2229   28.0143  H     
27   H        57.6303   12.6242   29.5960  H     
28   H        60.0029    7.3628   30.1837  H     
29   H        58.9410    8.0393   29.0535  H     
30   H        57.3837    8.7742   31.2702  H     
@<TRIPOS>BOND
     1    1    4 1
     2    1    6 1
     3    1    9 1
     4    2    9 1
     5    2   13 1
     6    2   14 2
     7    2   20 1
     8    3    4 2
     9    3    8 1
    10    3   12 1
    11    5    6 1
    12    5   10 1
    13    5   12 1
    14    6   21 1
    15    7   10 1
    16    7   11 1
    17    7   19 2
    18    8   15 1
    19    8   17 2
    20   11   16 1
    21   11   18 2
    22    1   22 1
    23    4   23 1
    24    5   24 1
    25    6   25 1
    26   12   26 1
    27   12   27 1
    28   19   28 1
    29   19   29 1
    30   21   30 1
@<TRIPOS>PROPERTY_DATA
  Total_Score	| 20.8993
  Crash		| -0.7998
  Polar		| 18.3719
  FragIndex	| 1
  FragRMSD	| 0.872

