@<TRIPOS>MOLECULE
BindingDB_50280242
 24 24 0 0 0
SMALL
NO_CHARGES


@<TRIPOS>ATOM
1    P        54.4361    8.0133   27.5893  P     
2    C        55.3924    9.9807   28.9892  C     
3    C        56.1219   12.1978   28.1189  C     
4    C        55.1970   11.2201   28.2454  C     
5    C        56.6134   10.0489   29.9501  C     
6    C        55.8011   13.3666   27.4253  C     
7    O        55.6238    8.9134   28.0280  O     
8    C        57.8338   10.6309   29.1963  C     
9    C        57.4762   12.0613   28.6977  C     
10   O        53.7801    7.3413   28.8083  O     
11   O        53.3891    8.7355   26.7176  O     
12   O        55.0012    6.9648   26.7788  O     
13   O        56.6180   14.4494   27.4333  O     
14   O        54.6793   13.4878   26.6718  O     
15   O        56.8757    8.7401   30.4716  O     
16   O        59.0237   10.6234   29.9876  O     
17   H        54.5089    9.7985   29.6138  H     
18   H        54.3309   11.2975   27.7668  H     
19   H        56.3839   10.7081   30.7983  H     
20   H        58.0452   10.0040   28.3258  H     
21   H        58.2220   12.3407   27.9457  H     
22   H        57.5648   12.7656   29.5327  H     
23   H        57.5396    8.8620   31.1979  H     
24   H        58.7478   10.8236   30.9080  H     
@<TRIPOS>BOND
     1    1    7 1
     2    1   10 1
     3    1   11 1
     4    1   12 2
     5    2    4 1
     6    2    5 1
     7    2    7 1
     8    3    4 2
     9    3    6 1
    10    3    9 1
    11    5    8 1
    12    5   15 1
    13    6   13 1
    14    6   14 2
    15    8    9 1
    16    8   16 1
    17    2   17 1
    18    4   18 1
    19    5   19 1
    20    8   20 1
    21    9   21 1
    22    9   22 1
    23   15   23 1
    24   16   24 1
@<TRIPOS>PROPERTY_DATA
  Total_Score	| 15.2756
  Crash		| -0.5838
  Polar		| 13.7095
  FragIndex	| 1
  FragRMSD	| 0.851

