@<TRIPOS>MOLECULE
BindingDB_50281988
 24 24 0 0 0
SMALL
NO_CHARGES


@<TRIPOS>ATOM
1    C        55.3710    9.9582   29.0092  C     
2    P        54.4190    7.9815   27.6280  P     
3    C        56.0971   12.1867   28.1391  C     
4    C        55.1710   11.2064   28.2716  C     
5    C        56.5977   10.0142   29.9652  C     
6    O        55.6070    8.8850   28.0672  O     
7    C        55.7886   13.3566   27.4414  C     
8    C        57.8070   10.6131   29.2058  C     
9    C        57.4378   12.0485   28.7359  C     
10   O        54.9833    6.8209   26.7835  O     
11   O        53.7713    7.3885   28.7667  O     
12   O        56.6020   14.4346   27.4686  O     
13   O        53.3762    8.7104   26.7693  O     
14   O        56.8754    8.7138   30.4822  O     
15   O        54.7015   13.4681   26.6470  O     
16   O        58.9945   10.6001   29.9930  O     
17   H        54.4940    9.7839   29.6466  H     
18   H        54.2788   11.3125   27.8410  H     
19   H        56.3571   10.6511   30.8240  H     
20   H        58.0177   10.0014   28.3230  H     
21   H        58.2001   12.3514   28.0087  H     
22   H        57.5068   12.7309   29.5886  H     
23   H        57.5351    8.8462   31.2017  H     
24   H        58.7385   10.8858   30.8892  H     
@<TRIPOS>BOND
     1    1    4 1
     2    1    5 1
     3    1    6 1
     4    2    6 1
     5    2   10 1
     6    2   11 2
     7    2   13 1
     8    3    4 2
     9    3    7 1
    10    3    9 1
    11    5    8 1
    12    5   14 1
    13    7   12 2
    14    7   15 1
    15    8    9 1
    16    8   16 1
    17    1   17 1
    18    4   18 1
    19    5   19 1
    20    8   20 1
    21    9   21 1
    22    9   22 1
    23   14   23 1
    24   16   24 1
@<TRIPOS>PROPERTY_DATA
  Total_Score	| 15.3698
  Crash		| -0.5231
  Polar		| 13.7098
  FragIndex	| 1
  FragRMSD	| 1.183

