@<TRIPOS>MOLECULE
BindingDB_50281343
 29 29 0 0 0
SMALL
NO_CHARGES


@<TRIPOS>ATOM
1    C        55.4243    9.9443   28.9819  C     
2    C        56.2087   12.1399   28.1250  C     
3    P        54.4354    8.0035   27.5914  P     
4    C        55.2517   11.2024   28.2657  C     
5    C        56.6343    9.9819   29.9545  C     
6    O        55.6440    8.8770   28.0272  O     
7    C        55.9189   13.3434   27.4770  C     
8    C        57.8969   10.5174   29.1965  C     
9    C        57.5602   11.9466   28.6786  C     
10   C        60.7251    9.6144   31.4068  C     
11   O        54.9424    6.9124   26.7969  O     
12   O        59.0861   10.6207   30.0157  O     
13   O        56.7610   14.3976   27.4945  O     
14   O        60.9966    8.6197   32.2758  O     
15   O        53.7589    7.3682   28.8157  O     
16   O        53.4086    8.7365   26.7151  O     
17   C        59.8533    9.4239   30.2468  C     
18   O        56.7834    8.6825   30.5229  O     
19   O        54.7883   13.5289   26.7538  O     
20   O        61.4478   10.7452   31.5190  O     
21   H        54.5444    9.7833   29.6162  H     
22   H        54.3518   11.3391   27.8584  H     
23   H        56.4164   10.6598   30.7853  H     
24   H        58.0979    9.8811   28.3260  H     
25   H        58.3039   12.1953   27.9143  H     
26   H        57.6867   12.6625   29.4961  H     
27   H        60.4584    9.2223   29.3642  H     
28   H        59.2410    8.5280   30.4556  H     
29   H        57.3767    8.8017   31.2836  H     
@<TRIPOS>BOND
     1    1    4 1
     2    1    5 1
     3    1    6 1
     4    2    4 2
     5    2    7 1
     6    2    9 1
     7    3    6 1
     8    3   11 2
     9    3   15 1
    10    3   16 1
    11    5    8 1
    12    5   18 1
    13    7   13 2
    14    7   19 1
    15    8    9 1
    16    8   12 1
    17   10   14 2
    18   10   17 1
    19   10   20 1
    20   12   17 1
    21    1   21 1
    22    4   22 1
    23    5   23 1
    24    8   24 1
    25    9   25 1
    26    9   26 1
    27   17   27 1
    28   17   28 1
    29   18   29 1
@<TRIPOS>PROPERTY_DATA
  Total_Score	| 20.4341
  Crash		| -0.8706
  Polar		| 18.4790
  FragIndex	| 1
  FragRMSD	| 1.176

