@<TRIPOS>MOLECULE
BindingDB_50283578
 29 29 0 0 0
SMALL
NO_CHARGES


@<TRIPOS>ATOM
1    C        55.3829   10.1563   29.2327  C     
2    P        54.2385    8.2280   27.8334  P     
3    C        56.2218   12.2480   28.2544  C     
4    C        55.2850   11.2751   28.3024  C     
5    C        56.8362    9.5868   29.3566  C     
6    C        56.0365   13.3777   27.4538  C     
7    O        54.3687    9.1254   29.1054  O     
8    C        57.9769   10.6423   29.0994  C     
9    C        57.4220   12.1002   29.0962  C     
10   C        60.6398    9.5313   31.4293  C     
11   O        53.4954    6.9876   28.3560  O     
12   O        53.3514    8.7652   26.8318  O     
13   O        59.0839   10.6141   30.0297  O     
14   O        56.8641   14.4458   27.5129  O     
15   O        54.9876   13.5046   26.6084  O     
16   O        61.3889   10.6462   31.5657  O     
17   O        60.5490    8.6841   32.4812  O     
18   O        55.5256    7.6483   27.1996  O     
19   C        59.7822    9.3678   30.2474  C     
20   O        56.9227    8.9167   30.6137  O     
21   H        55.1582   10.6133   30.2028  H     
22   H        54.4684   11.3365   27.7410  H     
23   H        56.9708    8.8020   28.6154  H     
24   H        58.3867   10.4676   28.0965  H     
25   H        58.2276   12.7633   28.7717  H     
26   H        57.1603   12.3831   30.1186  H     
27   H        60.4030    9.1352   29.3811  H     
28   H        59.1103    8.5281   30.4160  H     
29   H        57.3378    9.5502   31.2346  H     
@<TRIPOS>BOND
     1    1    4 1
     2    1    5 1
     3    1    7 1
     4    2    7 1
     5    2   11 1
     6    2   12 2
     7    2   18 1
     8    3    4 2
     9    3    6 1
    10    3    9 1
    11    5    8 1
    12    5   20 1
    13    6   14 1
    14    6   15 2
    15    8    9 1
    16    8   13 1
    17   10   16 1
    18   10   17 2
    19   10   19 1
    20   13   19 1
    21    1   21 1
    22    4   22 1
    23    5   23 1
    24    8   24 1
    25    9   25 1
    26    9   26 1
    27   19   27 1
    28   19   28 1
    29   20   29 1
@<TRIPOS>PROPERTY_DATA
  Total_Score	| 18.8353
  Crash		| -0.9797
  Polar		| 17.6799
  FragIndex	| 1
  FragRMSD	| 0.601

