@<TRIPOS>MOLECULE
BindingDB_7745
 39 42 0 0 0
SMALL
NO_CHARGES


@<TRIPOS>ATOM
1    C        28.1309   15.0913   15.6156  C     
2    C        27.5847   13.4412   13.8760  C     
3    C        26.7450   13.4302   12.7803  C     
4    C        27.4459   14.7081   14.4532  C     
5    N        26.5810   15.4104   13.7129  N     
6    C        26.1609   14.6518   12.7245  C     
7    O        25.4099   15.0468   11.8491  O     
8    N        25.7322   12.3077   11.0573  N     
9    C        25.7909   11.3965   10.0658  C     
10   C        25.7811    9.5352    7.9055  C     
11   C        27.0026    9.9569    8.5021  C     
12   C        27.0039   10.8467    9.5763  C     
13   C        24.5794   10.9998    9.4470  C     
14   C        24.5697   10.0724    8.3948  C     
15   O        27.1800    8.6170    5.7495  O     
16   S        25.8198    8.4324    6.5539  S     
17   O        25.8103    6.9517    7.1451  O     
18   N        24.5281    8.5998    5.4921  N     
19   C        28.9621   14.1369   16.2423  C     
20   C        28.4078   12.4698   14.5008  C     
21   C        29.0999   12.8410   15.6949  C     
22   C        29.3769   10.2875   14.7128  C     
23   C        30.0334   10.6829   15.8420  C     
24   C        28.5877   11.1527   14.0488  C     
25   N        29.8820   11.9148   16.3129  N     
26   N        26.6173   12.4442   11.9667  N     
27   H        27.9927   16.0180   16.0259  H     
28   H        26.3244   16.3375   13.8548  H     
29   H        24.9250   12.8458   11.1168  H     
30   H        27.9012    9.5826    8.1628  H     
31   H        27.9007   11.1397    9.9727  H     
32   H        23.6949   11.3873    9.7816  H     
33   H        23.6783    9.7999    7.9707  H     
34   H        23.9473    7.8410    5.3167  H     
35   H        24.2270    9.4943    5.2699  H     
36   H        29.4495   14.3883   17.1101  H     
37   H        29.4792    9.3539   14.3850  H     
38   H        30.6096   10.0464   16.3349  H     
39   H        28.1339   10.8366   13.2261  H     
@<TRIPOS>BOND
     1    1    4 2
     2    1   19 1
     3    2    3 1
     4    2    4 1
     5    2   20 2
     6    3    6 1
     7    3   26 2
     8    4    5 1
     9    5    6 1
    10    6    7 2
    11    8    9 1
    12    8   26 1
    13    9   12 2
    14    9   13 1
    15   10   11 2
    16   10   14 1
    17   10   16 1
    18   11   12 1
    19   13   14 2
    20   15   16 2
    21   16   17 2
    22   16   18 am
    23   19   21 2
    24   20   21 1
    25   20   24 1
    26   21   25 1
    27   22   23 1
    28   22   24 2
    29   23   25 2
    30    1   27 1
    31    5   28 1
    32    8   29 1
    33   11   30 1
    34   12   31 1
    35   13   32 1
    36   14   33 1
    37   18   34 1
    38   18   35 1
    39   19   36 1
    40   22   37 1
    41   23   38 1
    42   24   39 1
@<TRIPOS>PROPERTY_DATA
  Total_Score	| 7.6801
  Crash		| -0.5824
  Polar		| 3.7787
  FragIndex	| 1
  FragRMSD	| 0.289

