@<TRIPOS>MOLECULE
BindingDB_7770
 47 50 0 0 0
SMALL
NO_CHARGES


@<TRIPOS>ATOM
1    C        28.1087   15.5177   15.4181  C     
2    C        27.9417   13.6966   13.7658  C     
3    C        27.1080   13.4322   12.6972  C     
4    C        27.4966   14.9032   14.3102  C     
5    N        26.4662   15.3302   13.5782  N     
6    C        26.2377   14.4687   12.6151  C     
7    O        25.3754   14.6765   11.7765  O     
8    N        26.3762   12.1258   10.8482  N     
9    C        26.2537   11.0011   10.0878  C     
10   C        25.6819    8.7028    8.4780  C     
11   C        26.6290    8.6353    9.5244  C     
12   C        26.9126    9.7573   10.3166  C     
13   C        25.3524   11.0766    9.0012  C     
14   C        25.0704    9.9485    8.2153  C     
15   C        29.2288   14.8932   15.9985  C     
16   C        29.7087   13.6893   15.4425  C     
17   C        31.0452   11.9754   15.1081  C     
18   C        29.0876   13.0900   14.3347  C     
19   S        29.9465   11.6720   13.8350  S     
20   N        30.8066   13.0323   15.8464  N     
21   C        25.3533    7.5038    7.6692  C     
22   O        26.0344    6.3717    5.2459  O     
23   S        26.6672    7.1256    6.4914  S     
24   O        27.2607    8.4642    5.8758  O     
25   N        27.9716    6.2464    7.0843  N     
26   C        27.1583   12.3333   11.9166  C     
27   C        28.2372    4.8919    6.7737  C     
28   C        29.7415    4.5811    6.8649  C     
29   O        30.4975    5.4394    6.0002  O     
30   H        27.7733   16.4101   15.7776  H     
31   H        25.9909   16.1741   13.7023  H     
32   H        25.8088   12.8706   10.5796  H     
33   H        27.1079    7.7563    9.7296  H     
34   H        27.5899    9.6569   11.0753  H     
35   H        24.8895   11.9659    8.7816  H     
36   H        24.4068   10.0464    7.4439  H     
37   H        29.7104   15.3236   16.7955  H     
38   H        31.8262   11.3899   15.2735  H     
39   H        25.1848    6.6497    8.3258  H     
40   H        24.4322    7.6586    7.1031  H     
41   H        28.6287    6.7225    7.6114  H     
42   H        27.8095   11.6296   12.1439  H     
43   H        27.6834    4.2131    7.4342  H     
44   H        27.9228    4.6852    5.7357  H     
45   H        30.0944    4.7199    7.9027  H     
46   H        29.9387    3.5410    6.5806  H     
47   H        30.3970    6.3462    6.3726  H     
@<TRIPOS>BOND
     1    1    4 2
     2    1   15 1
     3    2    3 1
     4    2    4 1
     5    2   18 2
     6    3    6 1
     7    3   26 2
     8    4    5 1
     9    5    6 1
    10    6    7 2
    11    8    9 1
    12    8   26 1
    13    9   12 2
    14    9   13 1
    15   10   11 2
    16   10   14 1
    17   10   21 1
    18   11   12 1
    19   13   14 2
    20   15   16 2
    21   16   18 1
    22   16   20 1
    23   17   19 1
    24   17   20 2
    25   18   19 1
    26   21   23 1
    27   22   23 2
    28   23   24 2
    29   23   25 1
    30   25   27 1
    31   27   28 1
    32   28   29 1
    33    1   30 1
    34    5   31 1
    35    8   32 1
    36   11   33 1
    37   12   34 1
    38   13   35 1
    39   14   36 1
    40   15   37 1
    41   17   38 1
    42   21   39 1
    43   21   40 1
    44   25   41 1
    45   26   42 1
    46   27   43 1
    47   27   44 1
    48   28   45 1
    49   28   46 1
    50   29   47 1
@<TRIPOS>PROPERTY_DATA
  Total_Score	| 9.5427
  Crash		| -1.1482
  Polar		| 6.3277
  FragIndex	| 1
  FragRMSD	| 0.170

