@<TRIPOS>MOLECULE
BindingDB_7748
 43 46 0 0 0
SMALL
NO_CHARGES


@<TRIPOS>ATOM
1    C        28.1499   15.2305   15.5600  C     
2    C        27.5969   13.4427   13.9661  C     
3    C        26.7631   13.3433   12.8605  C     
4    C        27.4345   14.7486   14.4484  C     
5    N        26.5387   15.3724   13.6752  N     
6    C        26.1333   14.5434   12.7410  C     
7    O        25.3493   14.8883   11.8683  O     
8    N        25.7978   12.1738   11.0280  N     
9    C        25.8445   11.2856    9.9998  C     
10   C        25.8192    9.4234    7.8283  C     
11   C        24.6886   10.2223    8.1077  C     
12   C        24.7065   11.1554    9.1668  C     
13   C        26.9775   10.4804    9.7117  C     
14   C        26.9670    9.5733    8.6358  C     
15   O        24.6445    8.6310    5.5182  O     
16   S        25.8532    8.2914    6.4961  S     
17   O        27.1782    8.6359    5.6859  O     
18   C        29.0471   14.3687   16.2194  C     
19   C        26.6691   12.2862   12.0309  C     
20   N        25.8185    6.6392    6.8750  N     
21   C        25.7674    5.7206    5.7731  C     
22   C        29.2099   13.0483   15.7517  C     
23   C        29.9752   10.9891   15.6165  C     
24   C        28.4967   12.5775   14.6389  C     
25   S        28.8951   10.9207   14.2954  S     
26   N        30.0291   12.1264   16.2702  N     
27   C        26.3412    6.2056    8.1404  C     
28   H        28.0190   16.1953   15.8742  H     
29   H        26.2421   16.2926   13.7749  H     
30   H        25.0235   12.7593   11.0447  H     
31   H        23.8360   10.1411    7.5439  H     
32   H        23.8716   11.7283    9.3483  H     
33   H        27.8376   10.5614   10.2703  H     
34   H        27.8112    9.0327    8.4437  H     
35   H        29.5748   14.7062   17.0234  H     
36   H        27.2660   11.5200   12.1993  H     
37   H        25.0516    6.0476    5.0118  H     
38   H        25.4522    4.7289    6.0990  H     
39   H        26.7529    5.6384    5.3070  H     
40   H        30.5267   10.2106   15.8784  H     
41   H        27.4299    6.3229    8.1588  H     
42   H        26.1045    5.1556    8.3348  H     
43   H        25.9073    6.7859    8.9614  H     
@<TRIPOS>BOND
     1    1    4 2
     2    1   18 1
     3    2    3 1
     4    2    4 1
     5    2   24 2
     6    3    6 1
     7    3   19 2
     8    4    5 1
     9    5    6 1
    10    6    7 2
    11    8    9 1
    12    8   19 1
    13    9   12 2
    14    9   13 1
    15   10   11 2
    16   10   14 1
    17   10   16 1
    18   11   12 1
    19   13   14 2
    20   15   16 2
    21   16   17 2
    22   16   20 1
    23   18   22 2
    24   20   21 1
    25   20   27 1
    26   22   24 1
    27   22   26 1
    28   23   25 1
    29   23   26 2
    30   24   25 1
    31    1   28 1
    32    5   29 1
    33    8   30 1
    34   11   31 1
    35   12   32 1
    36   13   33 1
    37   14   34 1
    38   18   35 1
    39   19   36 1
    40   21   37 1
    41   21   38 1
    42   21   39 1
    43   23   40 1
    44   27   41 1
    45   27   42 1
    46   27   43 1
@<TRIPOS>PROPERTY_DATA
  Total_Score	| 7.1449
  Crash		| -0.6640
  Polar		| 2.8767
  FragIndex	| 1
  FragRMSD	| 0.326

