@<TRIPOS>MOLECULE
BindingDB_7760
 43 46 0 0 0
SMALL
NO_CHARGES


@<TRIPOS>ATOM
1    C        28.2001   15.2544   15.5262  C     
2    C        27.6484   13.4623   13.9312  C     
3    C        26.8030   13.3482   12.8496  C     
4    C        27.4848   14.7698   14.4158  C     
5    N        26.5809   15.3860   13.6501  N     
6    C        26.1692   14.5443   12.7269  C     
7    O        25.3726   14.8784   11.8618  O     
8    N        25.7748   12.1394   11.0788  N     
9    C        25.8094   11.2486   10.0489  C     
10   C        25.7473    9.4681    7.8263  C     
11   C        24.6373   10.2792    8.1206  C     
12   C        24.6781   11.1754    9.2031  C     
13   C        26.9154   10.4132    9.7559  C     
14   C        26.8810    9.5294    8.6616  C     
15   O        27.1668    8.5870    5.7300  O     
16   S        25.7796    8.3701    6.4800  S     
17   O        25.7450    6.9092    7.1073  O     
18   C        29.0888   14.3915   16.1936  C     
19   C        26.6673   12.2670   12.0590  C     
20   N        24.5272    8.6093    5.3810  N     
21   C        29.2590   13.0783   15.7194  C     
22   C        30.0225   11.0190   15.6083  C     
23   C        28.5633   12.6055   14.5974  C     
24   S        28.9802   10.9553   14.2585  S     
25   N        30.0645   12.1583   16.2624  N     
26   C        24.0976    7.7004    4.4778  C     
27   N        24.5594    6.4376    4.3713  N     
28   N        23.1356    8.0909    3.6295  N     
29   H        28.0701   16.2177   15.8466  H     
30   H        26.2827   16.3076   13.7492  H     
31   H        25.0040   12.7353   11.1027  H     
32   H        23.7987   10.2391    7.5418  H     
33   H        23.8590   11.7678    9.3891  H     
34   H        27.7651   10.4504   10.3195  H     
35   H        27.7066    8.9514    8.4709  H     
36   H        29.6118   14.7211   17.0146  H     
37   H        27.2411   11.4869   12.2486  H     
38   H        24.1254    9.4960    5.3480  H     
39   H        30.5701   10.2464   15.8924  H     
40   H        24.1864    5.8492    3.6985  H     
41   H        25.2676    6.1150    4.9539  H     
42   H        22.8034    7.4768    2.9601  H     
43   H        22.7893    8.9964    3.6845  H     
@<TRIPOS>BOND
     1    1    4 2
     2    1   18 1
     3    2    3 1
     4    2    4 1
     5    2   23 2
     6    3    6 1
     7    3   19 2
     8    4    5 1
     9    5    6 1
    10    6    7 2
    11    8    9 1
    12    8   19 1
    13    9   12 2
    14    9   13 1
    15   10   11 2
    16   10   14 1
    17   10   16 1
    18   11   12 1
    19   13   14 2
    20   15   16 2
    21   16   17 2
    22   16   20 1
    23   18   21 2
    24   20   26 1
    25   21   23 1
    26   21   25 1
    27   22   24 1
    28   22   25 2
    29   23   24 1
    30   26   27 1
    31   26   28 2
    32    1   29 1
    33    5   30 1
    34    8   31 1
    35   11   32 1
    36   12   33 1
    37   13   34 1
    38   14   35 1
    39   18   36 1
    40   19   37 1
    41   20   38 1
    42   22   39 1
    43   27   40 1
    44   27   41 1
    45   28   42 1
    46   28   43 1
@<TRIPOS>PROPERTY_DATA
  Total_Score	| 8.0977
  Crash		| -0.7329
  Polar		| 4.0090
  FragIndex	| 1
  FragRMSD	| 0.330

