@<TRIPOS>MOLECULE
BindingDB_7743
 36 39 0 0 0
SMALL
NO_CHARGES


@<TRIPOS>ATOM
1    C        28.3129   15.1244   15.5489  C     
2    C        27.6768   13.5049   13.8225  C     
3    C        26.7872   13.4662   12.7897  C     
4    C        27.5569   14.7665   14.4149  C     
5    N        26.6224   15.4393   13.7295  N     
6    C        26.1596   14.6665   12.7686  C     
7    O        25.3383   15.0435   11.9501  O     
8    N        25.7378   12.2880   11.1413  N     
9    C        25.7947   11.3670   10.1539  C     
10   C        25.8156    9.5243    7.9830  C     
11   C        24.6389   10.2299    8.3131  C     
12   C        24.6329   11.1424    9.3822  C     
13   C        26.9717   10.6423    9.8223  C     
14   C        26.9824    9.7420    8.7451  C     
15   O        27.1834    8.6392    5.7966  O     
16   S        25.8487    8.4225    6.6320  S     
17   O        25.8537    6.9454    7.2241  O     
18   N        24.5235    8.5589    5.6119  N     
19   C        29.1676   14.1626   16.1280  C     
20   N        26.6451   12.4567   12.0089  N     
21   C        29.2465   12.8720   15.5570  C     
22   C        29.7397   10.7434   15.3267  C     
23   C        28.5269   12.5431   14.4039  C     
24   S        28.7416   10.8876   13.9476  S     
25   N        29.9220   11.8258   16.0498  N     
26   H        28.2174   16.0543   15.9604  H     
27   H        26.3341   16.3577   13.8923  H     
28   H        24.9307   12.8284   11.2144  H     
29   H        23.7853   10.0928    7.7692  H     
30   H        23.7640   11.6393    9.5991  H     
31   H        27.8373   10.8055   10.3419  H     
32   H        27.8536    9.2552    8.5121  H     
33   H        24.2350    7.7895    5.0966  H     
34   H        24.1942    9.4448    5.3772  H     
35   H        29.7098   14.3917   16.9659  H     
36   H        30.1469    9.8779   15.5812  H     
@<TRIPOS>BOND
     1    1    4 2
     2    1   19 1
     3    2    3 1
     4    2    4 1
     5    2   23 2
     6    3    6 1
     7    3   20 2
     8    4    5 1
     9    5    6 1
    10    6    7 2
    11    8    9 1
    12    8   20 1
    13    9   12 2
    14    9   13 1
    15   10   11 2
    16   10   14 1
    17   10   16 1
    18   11   12 1
    19   13   14 2
    20   15   16 2
    21   16   17 2
    22   16   18 am
    23   19   21 2
    24   21   23 1
    25   21   25 1
    26   22   24 1
    27   22   25 2
    28   23   24 1
    29    1   26 1
    30    5   27 1
    31    8   28 1
    32   11   29 1
    33   12   30 1
    34   13   31 1
    35   14   32 1
    36   18   33 1
    37   18   34 1
    38   19   35 1
    39   22   36 1
@<TRIPOS>PROPERTY_DATA
  Total_Score	| 7.3761
  Crash		| -0.5261
  Polar		| 3.7785
  FragIndex	| 1
  FragRMSD	| 0.360

