@<TRIPOS>MOLECULE
BindingDB_7766
 38 41 0 0 0
SMALL
NO_CHARGES


@<TRIPOS>ATOM
1    C        28.1340   15.3864   15.5669  C     
2    C        27.6983   13.4961   14.0518  C     
3    C        26.9164   13.3065   12.9239  C     
4    C        27.4750   14.8153   14.4630  C     
5    N        26.5901   15.3674   13.6294  N     
6    C        26.2584   14.4806   12.7191  C     
7    O        25.4822   14.7632   11.8192  O     
8    N        26.0754   12.0606   11.1052  N     
9    C        26.0926   11.1032   10.1425  C     
10   C        26.0042    9.2651    7.9662  C     
11   C        26.9771    9.1302    8.9752  C     
12   C        27.0171   10.0321   10.0561  C     
13   C        25.1044   11.2101    9.1375  C     
14   C        25.0576   10.3059    8.0608  C     
15   O        27.3009    8.5920    5.7267  O     
16   O        26.2891    6.6830    7.0894  O     
17   C        29.0396   14.5929   16.2990  C     
18   C        26.8620   12.1908   12.1728  C     
19   C        29.2625   13.2586   15.9028  C     
20   C        30.1100   11.2290   15.9022  C     
21   C        28.6119   12.7045   14.7918  C     
22   S        29.1045   11.0612   14.5333  S     
23   N        30.0942   12.3962   16.5000  N     
24   S        26.0423    8.1779    6.6078  S     
25   C        24.5880    8.2379    5.5422  C     
26   H        27.9724   16.3635   15.8220  H     
27   H        26.2604   16.2802   13.6749  H     
28   H        25.3991   12.7429   10.9930  H     
29   H        27.6719    8.3784    8.9296  H     
30   H        27.7460    9.9017   10.7597  H     
31   H        24.4078   11.9621    9.1793  H     
32   H        24.3325   10.4162    7.3468  H     
33   H        29.5346   14.9872   17.1014  H     
34   H        27.4229   11.4236   12.4323  H     
35   H        30.6770   10.4838   16.2258  H     
36   H        23.6886    8.0579    6.1321  H     
37   H        24.6757    7.4610    4.7763  H     
38   H        24.5212    9.2146    5.0599  H     
@<TRIPOS>BOND
     1    1    4 2
     2    1   17 1
     3    2    3 1
     4    2    4 1
     5    2   21 2
     6    3    6 1
     7    3   18 2
     8    4    5 1
     9    5    6 1
    10    6    7 2
    11    8    9 1
    12    8   18 1
    13    9   12 2
    14    9   13 1
    15   10   11 2
    16   10   14 1
    17   10   24 1
    18   11   12 1
    19   13   14 2
    20   15   24 2
    21   16   24 2
    22   17   19 2
    23   19   21 1
    24   19   23 1
    25   20   22 1
    26   20   23 2
    27   21   22 1
    28   24   25 1
    29    1   26 1
    30    5   27 1
    31    8   28 1
    32   11   29 1
    33   12   30 1
    34   13   31 1
    35   14   32 1
    36   17   33 1
    37   18   34 1
    38   20   35 1
    39   25   36 1
    40   25   37 1
    41   25   38 1
@<TRIPOS>PROPERTY_DATA
  Total_Score	| 6.6356
  Crash		| -0.8054
  Polar		| 2.8218
  FragIndex	| 1
  FragRMSD	| 0.449

