@<TRIPOS>MOLECULE
BindingDB_7771
 41 44 0 0 0
SMALL
NO_CHARGES


@<TRIPOS>ATOM
1    C        27.9239   15.0770   15.6676  C     
2    C        27.7540   13.3810   13.8904  C     
3    C        27.0618   13.2880   12.6914  C     
4    C        27.4072   14.6229   14.4402  C     
5    N        26.5456   15.2167   13.6150  N     
6    C        26.3194   14.4238   12.5936  C     
7    O        25.5937   14.7704   11.6753  O     
8    N        26.3231   12.1016   10.7787  N     
9    C        26.1422   10.9977   10.0028  C     
10   C        25.4851    8.7317    8.3943  C     
11   C        24.8028    9.9655    8.2371  C     
12   C        25.1244   11.0766    9.0324  C     
13   C        26.8502    9.7704   10.1358  C     
14   C        26.5161    8.6540    9.3564  C     
15   C        28.8014   14.2433   16.3790  C     
16   C        29.1283   12.9725   15.8526  C     
17   C        30.0421   10.9822   15.7460  C     
18   C        28.6380   12.5401   14.6104  C     
19   S        29.2275   10.9430   14.2463  S     
20   N        29.9145   12.0791   16.4556  N     
21   C        25.1695    7.5707    7.5272  C     
22   O        26.0479    6.3994    5.1794  O     
23   S        26.5903    7.1425    6.4848  S     
24   O        27.3790    8.4361    6.0089  O     
25   C        27.1044   12.2425   11.8462  C     
26   C        27.7301    6.0436    7.3550  C     
27   H        27.6534   15.9949   16.0371  H     
28   H        26.1507   16.0968   13.7533  H     
29   H        25.7484   12.8501   10.5638  H     
30   H        24.0750   10.0642    7.5221  H     
31   H        24.5922   11.9453    8.9060  H     
32   H        27.6197    9.6707   10.7959  H     
33   H        27.0308    7.7791    9.4963  H     
34   H        29.1682   14.5385   17.2855  H     
35   H        30.5946   10.2287   16.0646  H     
36   H        24.8881    6.6997    8.1334  H     
37   H        24.3174    7.7945    6.8700  H     
38   H        27.7364   11.5212   12.0520  H     
39   H        27.9789    6.4452    8.3402  H     
40   H        28.6513    5.9515    6.7759  H     
41   H        27.2769    5.0575    7.4793  H     
@<TRIPOS>BOND
     1    1    4 2
     2    1   15 1
     3    2    3 1
     4    2    4 1
     5    2   18 2
     6    3    6 1
     7    3   25 2
     8    4    5 1
     9    5    6 1
    10    6    7 2
    11    8    9 1
    12    8   25 1
    13    9   12 2
    14    9   13 1
    15   10   11 2
    16   10   14 1
    17   10   21 1
    18   11   12 1
    19   13   14 2
    20   15   16 2
    21   16   18 1
    22   16   20 1
    23   17   19 1
    24   17   20 2
    25   18   19 1
    26   21   23 1
    27   22   23 2
    28   23   24 2
    29   23   26 1
    30    1   27 1
    31    5   28 1
    32    8   29 1
    33   11   30 1
    34   12   31 1
    35   13   32 1
    36   14   33 1
    37   15   34 1
    38   17   35 1
    39   21   36 1
    40   21   37 1
    41   25   38 1
    42   26   39 1
    43   26   40 1
    44   26   41 1
@<TRIPOS>PROPERTY_DATA
  Total_Score	| 6.6484
  Crash		| -0.7534
  Polar		| 3.3196
  FragIndex	| 1
  FragRMSD	| 0.230

