@<TRIPOS>MOLECULE
BindingDB_7761
 42 45 0 0 0
SMALL
NO_CHARGES


@<TRIPOS>ATOM
1    C        28.1936   15.2427   15.5044  C     
2    C        27.5979   13.4223   13.9605  C     
3    C        26.7432   13.3063   12.8750  C     
4    C        27.4513   14.7356   14.4242  C     
5    N        26.5434   15.3508   13.6554  N     
6    C        26.1284   14.5080   12.7400  C     
7    O        25.3315   14.8440   11.8775  O     
8    N        25.7632   12.1087   11.0609  N     
9    C        25.8299   11.2186   10.0324  C     
10   C        25.8519    9.4224    7.8144  C     
11   C        26.9535    9.4796    8.6956  C     
12   C        26.9413   10.3677    9.7925  C     
13   C        24.7364   11.1524    9.1385  C     
14   C        24.7387   10.2503    8.0571  C     
15   O        27.3101    8.5339    5.7250  O     
16   S        25.9078    8.3339    6.4585  S     
17   O        25.8160    6.8654    7.0682  O     
18   C        29.1174   14.3953   16.1516  C     
19   C        26.6076   12.2210   12.0841  C     
20   N        24.6691    8.6256    5.3452  N     
21   C        29.2719   13.0684   15.6996  C     
22   C        30.0647   11.0167   15.5670  C     
23   C        28.5226   12.5696   14.6202  C     
24   S        28.9353   10.9161   14.2921  S     
25   N        30.1238   12.1636   16.2013  N     
26   C        24.1007    7.7355    4.5438  C     
27   O        23.3036    8.1823    3.7298  O     
28   C        24.3351    6.3055    4.5780  C     
29   H        28.0724   16.2097   15.8029  H     
30   H        26.2533   16.2819   13.7447  H     
31   H        24.9988   12.7075   11.0533  H     
32   H        27.7677    8.8860    8.5445  H     
33   H        27.7651   10.3955   10.3992  H     
34   H        23.9144   11.7443    9.2902  H     
35   H        23.9157   10.2089    7.4480  H     
36   H        29.6745   14.7529   16.9326  H     
37   H        27.1573   11.4374   12.2927  H     
38   H        24.3963    9.5543    5.2258  H     
39   H        30.6421   10.2492   15.8164  H     
40   H        25.4039    6.0958    4.4880  H     
41   H        23.8204    5.7931    3.7583  H     
42   H        23.9651    5.9059    5.5233  H     
@<TRIPOS>BOND
     1    1    4 2
     2    1   18 1
     3    2    3 1
     4    2    4 1
     5    2   23 2
     6    3    6 1
     7    3   19 2
     8    4    5 1
     9    5    6 1
    10    6    7 2
    11    8    9 1
    12    8   19 1
    13    9   12 2
    14    9   13 1
    15   10   11 2
    16   10   14 1
    17   10   16 1
    18   11   12 1
    19   13   14 2
    20   15   16 2
    21   16   17 2
    22   16   20 1
    23   18   21 2
    24   20   26 am
    25   21   23 1
    26   21   25 1
    27   22   24 1
    28   22   25 2
    29   23   24 1
    30   26   27 2
    31   26   28 1
    32    1   29 1
    33    5   30 1
    34    8   31 1
    35   11   32 1
    36   12   33 1
    37   13   34 1
    38   14   35 1
    39   18   36 1
    40   19   37 1
    41   20   38 1
    42   22   39 1
    43   28   40 1
    44   28   41 1
    45   28   42 1
@<TRIPOS>PROPERTY_DATA
  Total_Score	| 7.8358
  Crash		| -0.8033
  Polar		| 3.7393
  FragIndex	| 1
  FragRMSD	| 0.343

