@<TRIPOS>MOLECULE
BindingDB_7754
 47 51 0 0 0
SMALL
NO_CHARGES


@<TRIPOS>ATOM
1    C        27.4707   15.6197   14.9272  C     
2    C        27.2196   13.5769   13.5801  C     
3    C        26.4448   13.2326   12.4784  C     
4    C        26.8927   14.9044   13.8641  C     
5    N        25.9660   15.3105   12.9980  N     
6    C        25.6777   14.3170   12.1885  C     
7    O        24.7178   14.3532   11.4371  O     
8    N        25.8454   11.8203   10.6466  N     
9    C        25.9847   10.7480    9.8132  C     
10   C        26.2664    8.6776    7.8624  C     
11   C        27.0439    8.6582    9.0386  C     
12   C        26.9046    9.6770    9.9946  C     
13   C        25.1789   10.7309    8.6501  C     
14   C        25.3136    9.7139    7.6830  C     
15   O        25.2142    7.0214    6.0316  O     
16   S        26.6102    7.5418    6.5934  S     
17   O        27.2948    8.4254    5.4631  O     
18   C        28.4346   14.9805   15.7322  C     
19   C        26.5387   12.0909   11.7671  C     
20   N        27.6904    6.3155    7.0291  N     
21   C        28.7720   13.6360   15.4579  C     
22   C        29.7478   11.6719   15.6761  C     
23   C        28.1815   12.9305   14.3965  C     
24   S        28.7689   11.2981   14.3278  S     
25   N        29.6512   12.8946   16.1449  N     
26   C        27.5359    4.9736    6.8640  C     
27   C        28.1219    2.7263    7.6563  C     
28   C        28.2272    4.1232    7.7602  C     
29   C        26.7511    4.3823    5.8417  C     
30   C        26.6541    2.9858    5.7238  C     
31   C        27.3348    2.1561    6.6367  C     
32   H        27.1966   16.5850   15.0999  H     
33   H        25.5038   16.1619   13.0398  H     
34   H        25.1948   12.4819   10.3631  H     
35   H        27.7496    7.9287    9.1947  H     
36   H        27.5065    9.6300   10.8221  H     
37   H        24.4996   11.4836    8.4832  H     
38   H        24.7491    9.7538    6.8271  H     
39   H        28.8695   15.4840   16.5152  H     
40   H        27.1764   11.4073   12.0924  H     
41   H        28.4902    6.6117    7.5030  H     
42   H        30.3621   11.0050   16.0770  H     
43   H        28.6190    2.1251    8.3171  H     
44   H        28.8070    4.5185    8.5027  H     
45   H        26.2720    4.9597    5.1509  H     
46   H        26.0824    2.5727    4.9846  H     
47   H        27.2630    1.1431    6.5510  H     
@<TRIPOS>BOND
     1    1    4 2
     2    1   18 1
     3    2    3 1
     4    2    4 1
     5    2   23 2
     6    3    6 1
     7    3   19 2
     8    4    5 1
     9    5    6 1
    10    6    7 2
    11    8    9 1
    12    8   19 1
    13    9   12 2
    14    9   13 1
    15   10   11 2
    16   10   14 1
    17   10   16 1
    18   11   12 1
    19   13   14 2
    20   15   16 2
    21   16   17 2
    22   16   20 1
    23   18   21 2
    24   20   26 1
    25   21   23 1
    26   21   25 1
    27   22   24 1
    28   22   25 2
    29   23   24 1
    30   26   28 2
    31   26   29 1
    32   27   28 1
    33   27   31 2
    34   29   30 2
    35   30   31 1
    36    1   32 1
    37    5   33 1
    38    8   34 1
    39   11   35 1
    40   12   36 1
    41   13   37 1
    42   14   38 1
    43   18   39 1
    44   19   40 1
    45   20   41 1
    46   22   42 1
    47   27   43 1
    48   28   44 1
    49   29   45 1
    50   30   46 1
    51   31   47 1
@<TRIPOS>PROPERTY_DATA
  Total_Score	| 6.7327
  Crash		| -1.2565
  Polar		| 4.0330
  FragIndex	| 1
  FragRMSD	| 1.068

