@<TRIPOS>MOLECULE
BindingDB_50292723
 32 33 0 0 0
SMALL
NO_CHARGES


@<TRIPOS>ATOM
1    O        40.6009    0.8787   13.9239  O     
2    C        40.0743    0.9267   12.5829  C     
3    C        38.5273    1.1124   12.4649  C     
4    C        37.7859    1.3444   13.7865  C     
5    O        38.2162    2.5839   14.3379  O     
6    C        36.2868    1.0460   13.4438  C     
7    O        35.3174    2.1276   13.3845  O     
8    C        36.4785    0.1293   12.1998  C     
9    O        37.8862   -0.0703   12.0213  O     
10   N        35.9187   -1.2026   12.3713  N     
11   C        35.0352   -1.7424   11.5064  C     
12   O        34.5997   -1.1206   10.5497  O     
13   N        34.6002   -3.0011   11.6581  N     
14   C        35.0078   -3.7813   12.6573  C     
15   O        34.5855   -4.9299   12.7433  O     
16   C        35.8965   -3.2959   13.5653  C     
17   C        36.3317   -2.0118   13.4074  C     
18   P        35.7614    3.5818   13.1333  P     
19   O        36.3763    4.3343   14.3574  O     
20   O        36.7332    3.5202   11.9466  O     
21   O        34.6220    4.4411   12.8167  O     
22   H        40.3568    0.0118   14.3176  H     
23   H        40.5547    1.7687   12.0822  H     
24   H        40.3984    0.0164   12.0563  H     
25   H        38.2624    1.9481   11.7848  H     
26   H        38.0978    0.6192   14.5312  H     
27   H        37.6341    2.6642   15.1475  H     
28   H        35.8745    0.4394   14.2504  H     
29   H        36.1709    0.6601   11.2941  H     
30   H        33.9706   -3.3799   11.0169  H     
31   H        36.2434   -3.8823   14.2963  H     
32   H        37.0142   -1.7037   14.0564  H     
@<TRIPOS>BOND
     1    1    2 1
     2    3    2 1
     3    3    4 1
     4    3    9 1
     5    4    5 1
     6    4    6 1
     7    6    7 1
     8    6    8 1
     9    7   18 1
    10    8    9 1
    11    8   10 1
    12   10   11 1
    13   10   17 1
    14   11   12 2
    15   11   13 1
    16   13   14 1
    17   14   15 2
    18   14   16 1
    19   16   17 2
    20   18   19 1
    21   18   20 1
    22   18   21 2
    23    1   22 1
    24    2   23 1
    25    2   24 1
    26    3   25 1
    27    4   26 1
    28    5   27 1
    29    6   28 1
    30    8   29 1
    31   13   30 1
    32   16   31 1
    33   17   32 1
@<TRIPOS>PROPERTY_DATA
  Total_Score	| 4.6034
  Crash		| -1.8335
  Polar		| 5.9214
  FragIndex	| 1
  FragRMSD	| 0.979

