@<TRIPOS>MOLECULE
BindingDB_50292721
 74 78 0 0 0
SMALL
NO_CHARGES


@<TRIPOS>ATOM
1    C        39.0709    7.3355    7.0065  C     
2    C        40.1738    6.4133    7.2575  C     
3    C        40.3299    5.8624    8.4899  C     
4    N        41.3206    4.9644    8.7720  N     
5    C        42.1467    4.5886    7.7718  C     
6    O        43.0224    3.7446    7.9005  O     
7    N        42.0289    5.1397    6.5631  N     
8    C        41.0841    6.0351    6.2943  C     
9    O        41.0868    6.5054    5.1614  O     
10   C        41.5147    4.4439   10.1204  C     
11   C        42.7499    5.0624   10.8135  C     
12   C        42.4838    4.7799   12.3017  C     
13   C        40.9359    4.8552   12.3659  C     
14   O        40.4293    4.6756   11.0286  O     
15   C        40.3970    6.2017   12.9101  C     
16   O        40.4486    6.2006   14.3531  O     
17   P        39.4967    7.2120   15.0585  P     
18   O        40.2332    7.9307   16.0619  O     
19   O        38.8472    8.2068   14.0728  O     
20   O        38.3632    6.4466   15.7713  O     
21   O        42.9738    3.4490   12.6030  O     
22   P        42.9219    2.9673   14.0858  P     
23   O        41.7921    3.4517   14.8371  O     
24   O        43.0925    1.4236   14.1951  O     
25   P        41.9840    0.5513   13.5299  P     
26   O        41.7849    0.7612   12.1164  O     
27   O        42.6432   -0.8438   13.5513  O     
28   O        40.6942    0.2935   14.3623  O     
29   C        39.5366    1.1307   14.1689  C     
30   C        38.7039    0.8193   12.8973  C     
31   C        37.2817    1.4147   12.9232  C     
32   C        36.5528    0.5243   11.9005  C     
33   C        37.3797   -0.7921   11.8820  C     
34   O        38.4832   -0.5905   12.7808  O     
35   N        36.5966   -1.9609   12.2033  N     
36   C        35.5460   -2.4166   11.4820  C     
37   N        35.0577   -3.5571   12.0011  N     
38   C        35.8112   -3.8388   13.0717  C     
39   C        36.7794   -2.8415   13.2048  C     
40   N        37.6934   -2.8991   14.2064  N     
41   C        37.6768   -3.9345   15.0917  C     
42   N        36.7436   -4.9200   14.9738  N     
43   C        35.7987   -4.9052   13.9906  C     
44   N        34.8971   -5.8968   13.9081  N     
45   O        36.5419    1.1335   10.6023  O     
46   O        37.2729    2.8068   12.5229  O     
47   P        36.7188    3.8380   13.5509  P     
48   O        36.4907    5.0712   12.8513  O     
49   O        35.3609    3.3766   14.1190  O     
50   O        37.6952    4.0725   14.7243  O     
51   O        44.1586    3.5603   14.7922  O     
52   H        38.1191    6.8084    7.1454  H     
53   H        39.0846    7.7443    5.9876  H     
54   H        39.1167    8.1786    7.7060  H     
55   H        39.7043    6.1511    9.2098  H     
56   H        42.6583    4.8891    5.8629  H     
57   H        41.6331    3.3556   10.0677  H     
58   H        43.6867    4.6191   10.4730  H     
59   H        42.7774    6.1448   10.6422  H     
60   H        42.9814    5.5568   12.9027  H     
61   H        40.5374    4.0430   12.9753  H     
62   H        41.0120    7.0102   12.5098  H     
63   H        39.3766    6.3261   12.5394  H     
64   H        38.9174    0.9557   15.0492  H     
65   H        39.7977    2.1909   14.1771  H     
66   H        39.2423    1.1796   12.0133  H     
67   H        36.8230    1.2140   13.9044  H     
68   H        35.5126    0.3686   12.2149  H     
69   H        37.8099   -0.9458   10.8864  H     
70   H        35.1792   -1.9767   10.6346  H     
71   H        38.3685   -3.9781   15.8389  H     
72   H        34.9016   -6.6215   14.5573  H     
73   H        34.2296   -5.8913   13.2052  H     
74   H        36.4030    0.4004    9.9714  H     
@<TRIPOS>BOND
     1    1    2 1
     2    2    3 2
     3    2    8 1
     4    3    4 1
     5    4    5 1
     6   10    4 1
     7    5    6 2
     8    5    7 1
     9    7    8 1
    10    8    9 2
    11   10   11 1
    12   10   14 1
    13   11   12 1
    14   12   13 1
    15   12   21 1
    16   13   14 1
    17   13   15 1
    18   15   16 1
    19   16   17 1
    20   17   18 2
    21   17   19 1
    22   17   20 1
    23   21   22 1
    24   22   23 2
    25   22   24 1
    26   22   51 1
    27   24   25 1
    28   25   26 2
    29   25   27 1
    30   25   28 1
    31   28   29 1
    32   30   29 1
    33   30   31 1
    34   30   34 1
    35   31   32 1
    36   31   46 1
    37   32   33 1
    38   32   45 1
    39   33   34 1
    40   33   35 1
    41   35   36 1
    42   35   39 1
    43   36   37 2
    44   37   38 1
    45   38   39 2
    46   38   43 1
    47   39   40 1
    48   40   41 2
    49   41   42 1
    50   42   43 2
    51   43   44 1
    52   46   47 1
    53   47   48 2
    54   47   49 1
    55   47   50 1
    56    1   52 1
    57    1   53 1
    58    1   54 1
    59    3   55 1
    60    7   56 1
    61   10   57 1
    62   11   58 1
    63   11   59 1
    64   12   60 1
    65   13   61 1
    66   15   62 1
    67   15   63 1
    68   29   64 1
    69   29   65 1
    70   30   66 1
    71   31   67 1
    72   32   68 1
    73   33   69 1
    74   36   70 1
    75   41   71 1
    76   44   72 1
    77   44   73 1
    78   45   74 1
@<TRIPOS>PROPERTY_DATA
  Total_Score	| 8.6725
  Crash		| -1.6902
  Polar		| 9.0986
  FragIndex	| 1
  FragRMSD	| 0.795

