@<TRIPOS>MOLECULE
BindingDB_50292724
 32 33 0 0 0
SMALL
NO_CHARGES


@<TRIPOS>ATOM
1    C        35.9769   -3.7514   13.4356  C     
2    C        36.6973   -2.6601   13.1111  C     
3    N        36.3436   -1.8527   12.0633  N     
4    C        35.2168   -2.1579   11.3800  C     
5    N        34.5102   -3.2424   11.6950  N     
6    C        34.8727   -4.0414   12.6943  C     
7    O        34.2000   -5.0333   12.9316  O     
8    O        34.7858   -1.4862   10.4530  O     
9    C        37.1593   -0.7049   11.6832  C     
10   O        38.4395   -0.6337   12.3446  O     
11   C        38.7885    0.7493   12.4683  C     
12   C        37.4578    1.4385   12.8218  C     
13   C        36.4775    0.6742   11.9128  C     
14   O        35.1700    0.6215   12.4803  O     
15   O        37.5129    2.8443   12.4944  O     
16   C        39.9221    0.9468   13.5039  C     
17   O        39.4876    0.7387   14.8456  O     
18   P        36.8269    3.8312   13.4837  P     
19   O        35.4640    3.3324   14.0004  O     
20   O        37.7453    4.1118   14.6866  O     
21   O        36.6158    5.0673   12.7780  O     
22   H        36.2451   -4.3263   14.2022  H     
23   H        37.4933   -2.4520   13.6686  H     
24   H        33.7168   -3.4588   11.1768  H     
25   H        37.4035   -0.8046   10.6185  H     
26   H        39.1501    1.1145   11.4986  H     
27   H        37.2241    1.2260   13.8741  H     
28   H        36.3924    1.1924   10.9522  H     
29   H        35.2761    0.2520   13.3807  H     
30   H        40.7192    0.2300   13.2977  H     
31   H        40.3372    1.9531   13.4160  H     
32   H        39.1107    1.5948   15.1369  H     
@<TRIPOS>BOND
     1    1    2 2
     2    1    6 1
     3    2    3 1
     4    3    4 1
     5    9    3 1
     6    4    5 1
     7    4    8 2
     8    5    6 1
     9    6    7 2
    10    9   10 1
    11    9   13 1
    12   10   11 1
    13   11   12 1
    14   11   16 1
    15   12   13 1
    16   12   15 1
    17   13   14 1
    18   15   18 1
    19   16   17 1
    20   18   19 1
    21   18   20 1
    22   18   21 2
    23    1   22 1
    24    2   23 1
    25    5   24 1
    26    9   25 1
    27   11   26 1
    28   12   27 1
    29   13   28 1
    30   14   29 1
    31   16   30 1
    32   16   31 1
    33   17   32 1
@<TRIPOS>PROPERTY_DATA
  Total_Score	| 6.7563
  Crash		| -0.7739
  Polar		| 7.3640
  FragIndex	| 1
  FragRMSD	| 0.106

