@<TRIPOS>MOLECULE
BindingDB_50292720
 42 44 0 0 0
SMALL
NO_CHARGES


@<TRIPOS>ATOM
1    C        35.9657   -3.3795   13.5229  C     
2    C        36.4234   -2.1254   13.3177  C     
3    N        35.9373   -1.3346   12.3115  N     
4    C        34.9904   -1.8611   11.4963  C     
5    N        34.5590   -3.1133   11.6847  N     
6    C        35.0269   -3.8694   12.6693  C     
7    O        34.6026   -5.0119   12.7973  O     
8    O        34.4814   -1.2551   10.5666  O     
9    C        36.4830    0.0053   12.1032  C     
10   O        37.8859   -0.1198   11.6755  O     
11   C        38.6834    0.8694   12.3454  C     
12   C        37.7355    1.8077   13.1421  C     
13   C        36.4628    0.9590   13.3126  C     
14   O        35.2618    1.7353   13.4149  O     
15   O        37.5030    2.9996   12.3870  O     
16   C        39.7424    0.1304   13.2134  C     
17   N        40.8244   -0.6954   12.5382  N     
18   C        41.6226   -1.4860   13.5241  C     
19   C        42.8260   -2.1952   12.8551  C     
20   O        42.3623   -3.0314   11.7779  O     
21   C        41.6421   -2.3108   10.7571  C     
22   C        40.4332   -1.5298   11.3562  C     
23   H        36.3094   -3.9264   14.2839  H     
24   H        37.1198   -1.7850   13.9313  H     
25   H        33.8836   -3.4789   11.0865  H     
26   H        35.9925    0.5216   11.2771  H     
27   H        39.2198    1.4432   11.5781  H     
28   H        38.1465    2.0805   14.1160  H     
29   H        36.5590    0.3995   14.2458  H     
30   H        35.0444    2.0501   12.5137  H     
31   H        37.0455    3.6074   13.0148  H     
32   H        40.2707    0.8921   13.7988  H     
33   H        39.1809   -0.4706   13.9331  H     
34   H        41.4827   -0.0148   12.1533  H     
35   H        42.0073   -0.8328   14.3122  H     
36   H        40.9888   -2.2531   13.9831  H     
37   H        43.5524   -1.4608   12.4914  H     
38   H        43.3267   -2.8248   13.5940  H     
39   H        42.3052   -1.6185   10.2380  H     
40   H        41.2691   -3.0300   10.0259  H     
41   H        39.6636   -2.2578   11.6504  H     
42   H        40.0218   -0.9000   10.5719  H     
@<TRIPOS>BOND
     1    1    2 2
     2    1    6 1
     3    2    3 1
     4    3    4 1
     5    9    3 1
     6    4    5 1
     7    4    8 2
     8    5    6 1
     9    6    7 2
    10    9   10 1
    11    9   13 1
    12   10   11 1
    13   11   12 1
    14   11   16 1
    15   12   13 1
    16   12   15 1
    17   13   14 1
    18   16   17 1
    19   17   18 1
    20   17   22 1
    21   18   19 1
    22   19   20 1
    23   20   21 1
    24   21   22 1
    25    1   23 1
    26    2   24 1
    27    5   25 1
    28    9   26 1
    29   11   27 1
    30   12   28 1
    31   13   29 1
    32   14   30 1
    33   15   31 1
    34   16   32 1
    35   16   33 1
    36   17   34 1
    37   18   35 1
    38   18   36 1
    39   19   37 1
    40   19   38 1
    41   21   39 1
    42   21   40 1
    43   22   41 1
    44   22   42 1
@<TRIPOS>PROPERTY_DATA
  Total_Score	| 5.7616
  Crash		| -0.4436
  Polar		| 5.2780
  FragIndex	| 1
  FragRMSD	| 0.696

