@<TRIPOS>MOLECULE
BindingDB_50118239
 36 37 0 0 0
SMALL
NO_CHARGES


@<TRIPOS>ATOM
1    C        37.8597   -1.3667   12.6723  C     
2    C        35.6916   -4.1212   13.7163  C     
3    C        36.6227   -3.1415   13.6917  C     
4    N        36.6908   -2.2327   12.6563  N     
5    C        35.7190   -2.2609   11.7274  C     
6    N        34.8277   -3.2550   11.7324  N     
7    C        34.7764   -4.1670   12.7222  C     
8    O        33.9204   -5.0548   12.6998  O     
9    O        35.6005   -1.4291   10.8306  O     
10   O        37.6416   -0.3030   13.6403  O     
11   C        38.0660    0.9558   13.1109  C     
12   C        39.0694    0.6169   12.0020  C     
13   C        38.4827   -0.6845   11.4081  C     
14   C        36.8099    1.7824   12.7007  C     
15   O        37.0746    3.1993   12.5334  O     
16   O        39.5015   -1.5240   10.8274  O     
17   O        40.4030    0.4430   12.5090  O     
18   P        36.6361    4.1584   13.6895  P     
19   O        35.3419    3.7529   14.1820  O     
20   O        37.6458    4.0073   14.8482  O     
21   O        36.6275    5.5565   13.0089  O     
22   P        36.5086    6.7866   13.9533  P     
23   O        37.6853    7.6994   13.5334  O     
24   O        36.6391    6.6468   15.3883  O     
25   O        35.2328    7.5840   13.5895  O     
26   H        38.6959   -1.9578   13.0927  H     
27   H        35.6867   -4.7852   14.4512  H     
28   H        37.2803   -3.1137   14.4522  H     
29   H        34.1850   -3.3296   11.0014  H     
30   H        38.5699    1.4985   13.8905  H     
31   H        39.0962    1.3878   11.2442  H     
32   H        37.7653   -0.5107   10.5997  H     
33   H        36.3978    1.3706   11.7606  H     
34   H        36.0767    1.6469   13.5151  H     
35   H        39.3596   -1.4896    9.8347  H     
36   H        40.3155   -0.2723   13.1824  H     
@<TRIPOS>BOND
     1    1    4 1
     2    1   10 1
     3    1   13 1
     4    2    3 2
     5    2    7 1
     6    3    4 1
     7    4    5 1
     8    5    6 1
     9    5    9 2
    10    6    7 1
    11    7    8 2
    12   10   11 1
    13   11   12 1
    14   11   14 1
    15   12   13 1
    16   12   17 1
    17   13   16 1
    18   14   15 1
    19   15   18 1
    20   18   19 2
    21   18   20 1
    22   18   21 1
    23   21   22 1
    24   22   23 1
    25   22   24 2
    26   22   25 1
    27    1   26 1
    28    2   27 1
    29    3   28 1
    30    6   29 1
    31   11   30 1
    32   12   31 1
    33   13   32 1
    34   14   33 1
    35   14   34 1
    36   16   35 1
    37   17   36 1
@<TRIPOS>PROPERTY_DATA
  Total_Score	| 5.7652
  Crash		| -1.1511
  Polar		| 6.7533
  FragIndex	| 1
  FragRMSD	| 1.291

