@<TRIPOS>MOLECULE
BindingDB_50331792
 29 30 0 0 0
SMALL
NO_CHARGES


@<TRIPOS>ATOM
1    O        36.8403    2.6572   12.0214  O     
2    C        37.2665    1.7096   12.9943  C     
3    C        36.2501    0.5681   13.0843  C     
4    C        38.5474    0.9691   12.5140  C     
5    C        36.6943   -0.3585   11.9365  C     
6    O        38.1360   -0.2964   11.9408  O     
7    C        39.5102    0.7263   13.6059  C     
8    O        40.2767   -0.3866   13.6464  O     
9    N        36.1566   -1.6966   12.1159  N     
10   C        35.0665   -2.1032   11.4378  C     
11   N        34.5113   -3.2786   11.7048  N     
12   C        34.9936   -4.0833   12.6437  C     
13   C        36.1227   -3.7298   13.3563  C     
14   C        36.6822   -2.5292   13.0651  C     
15   O        34.5066   -1.4410   10.5776  O     
16   O        34.4096   -5.1434   12.8218  O     
17   C        36.7444   -4.5927   14.3542  C     
18   O        39.7514    1.6971   14.5131  O     
19   H        35.8459    2.7023   12.0756  H     
20   H        37.3846    2.2221   13.9615  H     
21   H        36.3682    0.0651   14.0630  H     
22   H        35.2176    0.8912   12.9763  H     
23   H        39.0578    1.5352   11.7291  H     
24   H        36.3900    0.0893   10.9861  H     
25   H        33.7285   -3.5538   11.2062  H     
26   H        37.4958   -2.2531   13.5619  H     
27   H        36.8827   -4.0444   15.2896  H     
28   H        37.7251   -4.9104   13.9927  H     
29   H        36.1555   -5.4880   14.5758  H     
@<TRIPOS>BOND
     1    2    1 1
     2    2    3 1
     3    2    4 1
     4    3    5 1
     5    4    6 1
     6    4    7 1
     7    5    6 1
     8    5    9 1
     9    7    8 1
    10    7   18 2
    11    9   10 1
    12    9   14 1
    13   10   11 1
    14   10   15 2
    15   11   12 1
    16   12   13 1
    17   12   16 2
    18   13   14 2
    19   13   17 1
    20    1   19 1
    21    2   20 1
    22    3   21 1
    23    3   22 1
    24    4   23 1
    25    5   24 1
    26   11   25 1
    27   14   26 1
    28   17   27 1
    29   17   28 1
    30   17   29 1
@<TRIPOS>PROPERTY_DATA
  Total_Score	| 4.2707
  Crash		| -0.5995
  Polar		| 3.8108
  FragIndex	| 1
  FragRMSD	| 0.521

