@<TRIPOS>MOLECULE
BindingDB_50342010
 68 72 0 0 0
SMALL
NO_CHARGES


@<TRIPOS>ATOM
1    C        39.2807    1.3743   14.1750  C     
2    C        38.4026    1.0270   12.9313  C     
3    C        36.9865    1.6319   12.9549  C     
4    C        36.2711    0.7350   11.9283  C     
5    C        37.0714   -0.5972   11.9145  C     
6    O        38.1732   -0.3855   12.8170  O     
7    N        36.2701   -1.7781   12.2018  N     
8    C        35.2044   -2.0986   11.4287  C     
9    O        34.8124   -1.4020   10.5004  O     
10   N        34.5191   -3.2158   11.6539  N     
11   C        34.8573   -4.0576   12.6294  C     
12   O        34.2136   -5.0803   12.7823  O     
13   C        35.9152   -3.7700   13.4371  C     
14   C        36.6044   -2.6391   13.2139  C     
15   P        36.6144    4.0846   13.6068  P     
16   O        35.3089    3.7497   14.1320  O     
17   O        36.9916    3.0230   12.5270  O     
18   O        37.6376    7.6817   13.4882  O     
19   O        37.6646    4.0428   14.7398  O     
20   O        36.6179    5.4868   12.9302  O     
21   P        36.4866    6.7344   13.8589  P     
22   O        36.5598    6.5536   15.2902  O     
23   O        35.1885    7.4860   13.5091  O     
24   O        39.9613    0.2005   14.6800  O     
25   P        41.5176    0.1256   14.6009  P     
26   O        42.0462   -0.1972   13.1759  O     
27   O        41.8366   -1.0583   15.3578  O     
28   O        42.2488    1.2847   15.3153  O     
29   O        40.1745   -0.7857   10.6701  O     
30   C        41.3577   -0.4301    9.9540  C     
31   C        42.4300    0.3054   10.8224  C     
32   C        41.9438    0.8461   12.1866  C     
33   C        42.8554    2.0675   12.3924  C     
34   O        44.1138    1.6981   12.9753  O     
35   C        43.0016    2.5915   10.9450  C     
36   O        42.9752    1.4237   10.0929  O     
37   N        42.0000    3.5148   10.4621  N     
38   C        40.9744    4.1162   11.1241  C     
39   N        40.2864    4.9291   10.3062  N     
40   C        40.8748    4.8459    9.1038  C     
41   C        40.6184    5.4760    7.8728  C     
42   N        39.6163    6.3593    7.7213  N     
43   N        41.4153    5.1902    6.8125  N     
44   C        42.4531    4.3111    6.9143  C     
45   N        42.7289    3.7021    8.1052  N     
46   C        41.9465    3.9576    9.1937  C     
47   H        39.9350    2.2189   13.9207  H     
48   H        38.6454    1.7038   14.9989  H     
49   H        38.9064    1.3671   12.0191  H     
50   H        36.5270    1.4398   13.9381  H     
51   H        35.2250    0.5981   12.2177  H     
52   H        36.3014    1.2015   10.9338  H     
53   H        37.5196   -0.7240   10.9223  H     
54   H        33.7642   -3.4325   11.0879  H     
55   H        36.1793   -4.3898   14.1700  H     
56   H        37.3738   -2.4537   13.8167  H     
57   H        39.5276   -1.0208    9.9733  H     
58   H        41.8037   -1.3536    9.5573  H     
59   H        41.0703    0.2047    9.0978  H     
60   H        43.2695   -0.3862   10.9994  H     
61   H        40.9312    1.1926   12.0461  H     
62   H        42.4052    2.8078   13.0515  H     
63   H        44.4339    0.9275   12.4638  H     
64   H        43.9784    3.0796   10.8569  H     
65   H        40.7357    3.9645   12.0947  H     
66   H        39.4731    6.7865    6.8590  H     
67   H        39.0195    6.5516    8.4631  H     
68   H        43.0453    4.1292    6.1103  H     
@<TRIPOS>BOND
     1    2    1 1
     2    1   24 1
     3    2    3 1
     4    2    6 1
     5    3    4 1
     6    3   17 1
     7    4    5 1
     8    5    6 1
     9    5    7 1
    10    7    8 1
    11    7   14 1
    12    8    9 2
    13    8   10 1
    14   10   11 1
    15   11   12 2
    16   11   13 1
    17   13   14 2
    18   15   16 2
    19   15   17 1
    20   15   19 1
    21   15   20 1
    22   18   21 1
    23   20   21 1
    24   21   22 2
    25   21   23 1
    26   24   25 1
    27   25   26 1
    28   25   27 2
    29   25   28 1
    30   32   26 1
    31   29   30 1
    32   31   30 1
    33   31   32 1
    34   31   36 1
    35   32   33 1
    36   33   34 1
    37   33   35 1
    38   35   36 1
    39   35   37 1
    40   37   38 1
    41   37   46 1
    42   38   39 2
    43   39   40 1
    44   40   41 1
    45   40   46 2
    46   41   42 1
    47   41   43 2
    48   43   44 1
    49   44   45 2
    50   45   46 1
    51    1   47 1
    52    1   48 1
    53    2   49 1
    54    3   50 1
    55    4   51 1
    56    4   52 1
    57    5   53 1
    58   10   54 1
    59   13   55 1
    60   14   56 1
    61   29   57 1
    62   30   58 1
    63   30   59 1
    64   31   60 1
    65   32   61 1
    66   33   62 1
    67   34   63 1
    68   35   64 1
    69   38   65 1
    70   42   66 1
    71   42   67 1
    72   44   68 1
@<TRIPOS>PROPERTY_DATA
  Total_Score	| 12.2244
  Crash		| -2.2872
  Polar		| 10.4132
  FragIndex	| 1
  FragRMSD	| 0.908

