@<TRIPOS>MOLECULE
BindingDB_50292722
 32 33 0 0 0
SMALL
NO_CHARGES


@<TRIPOS>ATOM
1    O        40.2741    0.4987   14.3501  O     
2    C        40.3371    0.6802   12.9377  C     
3    C        38.9314    0.6960   12.2925  C     
4    C        37.8371    1.4030   13.1419  C     
5    O        37.5561    2.7072   12.5726  O     
6    C        36.6587    0.4069   13.0620  C     
7    O        35.3839    0.9817   12.8000  O     
8    C        37.0516   -0.5728   11.9413  C     
9    O        38.4811   -0.6471   12.0501  O     
10   N        36.3626   -1.8462   12.0939  N     
11   C        35.2505   -2.1387   11.3814  C     
12   O        34.7833   -1.4031   10.5214  O     
13   N        34.5738   -3.2591   11.6300  N     
14   C        34.9558   -4.1086   12.5803  C     
15   C        36.0688   -3.8520   13.3209  C     
16   C        36.7594   -2.7248   13.0660  C     
17   P        36.8703    3.7556   13.5001  P     
18   O        36.7156    5.0555   12.6961  O     
19   O        37.6910    4.0851   14.6357  O     
20   O        35.4644    3.3255   13.9714  O     
21   O        34.2862   -5.1101   12.7846  O     
22   H        39.9092   -0.4022   14.4804  H     
23   H        40.8452    1.6242   12.7307  H     
24   H        40.9294   -0.1311   12.5084  H     
25   H        39.0228    1.1915   11.3201  H     
26   H        38.1761    1.4672   14.1849  H     
27   H        36.5983   -0.1389   14.0108  H     
28   H        34.9032    0.8541   13.6477  H     
29   H        36.8299   -0.1244   10.9626  H     
30   H        33.7755   -3.4561   11.1135  H     
31   H        36.3628   -4.4745   14.0390  H     
32   H        37.5619   -2.5346   13.6226  H     
@<TRIPOS>BOND
     1    1    2 1
     2    3    2 1
     3    3    4 1
     4    3    9 1
     5    4    5 1
     6    4    6 1
     7    5   17 1
     8    6    7 1
     9    6    8 1
    10    8    9 1
    11    8   10 1
    12   10   11 1
    13   10   16 1
    14   11   12 2
    15   11   13 1
    16   13   14 1
    17   14   15 1
    18   14   21 2
    19   15   16 2
    20   17   18 1
    21   17   19 2
    22   17   20 1
    23    1   22 1
    24    2   23 1
    25    2   24 1
    26    3   25 1
    27    4   26 1
    28    6   27 1
    29    7   28 1
    30    8   29 1
    31   13   30 1
    32   15   31 1
    33   16   32 1
@<TRIPOS>PROPERTY_DATA
  Total_Score	| 5.8109
  Crash		| -0.8370
  Polar		| 7.3299
  FragIndex	| 1
  FragRMSD	| 0.852

