@<TRIPOS>MOLECULE
BindingDB_50298711
 33 34 0 0 0
SMALL
NO_CHARGES


@<TRIPOS>ATOM
1    O        40.5946    0.2418   14.0540  O     
2    C        40.3104    0.8089   12.7774  C     
3    C        38.8038    1.1086   12.5925  C     
4    C        38.0468    1.3903   13.9027  C     
5    O        38.3242    2.6941   14.3950  O     
6    C        36.5728    1.0587   13.5481  C     
7    C        36.7197    0.1453   12.2876  C     
8    O        38.1252   -0.0116   12.0209  O     
9    N        36.1341   -1.1882   12.4182  N     
10   C        35.1630   -1.6407   11.5948  C     
11   O        34.6912   -0.9977   10.6679  O     
12   N        34.6590   -2.8597   11.7534  N     
13   C        35.0931   -3.6948   12.7287  C     
14   N        34.5342   -4.9097   12.8511  N     
15   C        36.1048   -3.2706   13.5736  C     
16   C        36.6072   -2.0352   13.3901  C     
17   P        35.8023    3.5801   13.1193  P     
18   O        36.6711    3.8082   11.9942  O     
19   O        35.5381    2.0767   13.4106  O     
20   O        34.4473    4.2387   12.8036  O     
21   O        36.2883    4.3269   14.3774  O     
22   H        40.1408   -0.6273   14.0565  H     
23   H        40.8850    1.7318   12.6721  H     
24   H        40.6403    0.1109   12.0052  H     
25   H        38.7114    1.9612   11.9133  H     
26   H        38.3859    0.6855   14.6680  H     
27   H        37.6967    2.8146   15.1403  H     
28   H        36.1919    0.4592   14.3770  H     
29   H        36.3105    0.6917   11.4311  H     
30   H        34.8325   -5.5165   13.5468  H     
31   H        33.8291   -5.1816   12.2422  H     
32   H        36.4544   -3.8628   14.2919  H     
33   H        37.3442   -1.7453   13.9927  H     
@<TRIPOS>BOND
     1    1    2 1
     2    3    2 1
     3    3    4 1
     4    3    8 1
     5    4    5 1
     6    4    6 1
     7    6    7 1
     8    6   19 1
     9    7    8 1
    10    7    9 1
    11    9   10 1
    12    9   16 1
    13   10   11 2
    14   10   12 1
    15   12   13 2
    16   13   14 1
    17   13   15 1
    18   15   16 2
    19   17   18 2
    20   17   19 1
    21   17   20 1
    22   17   21 1
    23    1   22 1
    24    2   23 1
    25    2   24 1
    26    3   25 1
    27    4   26 1
    28    5   27 1
    29    6   28 1
    30    7   29 1
    31   14   30 1
    32   14   31 1
    33   15   32 1
    34   16   33 1
@<TRIPOS>PROPERTY_DATA
  Total_Score	| 2.3269
  Crash		| -1.3284
  Polar		| 4.3619
  FragIndex	| 1
  FragRMSD	| 1.028

