@<TRIPOS>MOLECULE
BindingDB_50342006
 46 48 0 0 0
SMALL
NO_CHARGES


@<TRIPOS>ATOM
1    C        37.7290    1.8044   13.1475  C     
2    C        36.5293    0.8555   13.2930  C     
3    C        36.7527   -0.1431   12.1348  C     
4    O        38.1774   -0.3055   12.0453  O     
5    C        38.8042    0.9332   12.4341  C     
6    N        36.0999   -1.4350   12.3103  N     
7    O        35.2674    1.5341   13.2657  O     
8    O        37.3993    2.9404   12.3414  O     
9    C        40.0628    0.6076   13.2938  C     
10   N        41.2118   -0.0573   12.5761  N     
11   C        42.3232   -0.3968   13.5304  C     
12   C        43.5182   -1.1253   12.8563  C     
13   C        44.0589   -0.3167   11.6400  C     
14   C        42.8945    0.0012   10.6643  C     
15   C        41.7268    0.7174   11.3959  C     
16   C        45.1748   -0.9849   10.9263  C     
17   O        45.1832   -2.3274   10.7433  O     
18   O        45.9787   -0.2516   10.1191  O     
19   C        36.4966   -2.2577   13.3306  C     
20   C        35.9103   -3.4500   13.5480  C     
21   C        34.9190   -3.8439   12.7044  C     
22   N        34.5555   -3.0646   11.6910  N     
23   C        35.1202   -1.8731   11.4864  C     
24   O        34.6890   -1.2289   10.5423  O     
25   O        34.3489   -4.9118   12.8647  O     
26   H        38.0594    2.1593   14.1267  H     
27   H        36.6097    0.3496   14.2582  H     
28   H        36.4356    0.3505   11.2062  H     
29   H        39.1326    1.4415   11.5173  H     
30   H        35.0943    1.7752   12.3337  H     
31   H        36.8105    3.4923   12.9007  H     
32   H        40.4209    1.5349   13.7585  H     
33   H        39.7257   -0.0515   14.1014  H     
34   H        40.8592   -0.9439   12.2099  H     
35   H        42.6991    0.5131   14.0115  H     
36   H        41.9419   -1.0554   14.3148  H     
37   H        44.3185   -1.2561   13.5905  H     
38   H        43.1895   -2.1178   12.5323  H     
39   H        44.4552    0.6296   12.0216  H     
40   H        43.2517    0.6471    9.8541  H     
41   H        42.5215   -0.9271   10.2151  H     
42   H        40.9211    0.8531   10.6623  H     
43   H        42.0589    1.7131   11.7103  H     
44   H        37.2394   -1.9883   13.9371  H     
45   H        36.2008   -4.0270   14.3035  H     
46   H        33.8528   -3.3630   11.0912  H     
@<TRIPOS>BOND
     1    1    2 1
     2    1    5 1
     3    1    8 1
     4    2    3 1
     5    2    7 1
     6    3    4 1
     7    3    6 1
     8    4    5 1
     9    5    9 1
    10    6   19 1
    11    6   23 1
    12    9   10 1
    13   10   11 1
    14   10   15 1
    15   11   12 1
    16   12   13 1
    17   13   14 1
    18   13   16 1
    19   14   15 1
    20   16   17 1
    21   16   18 2
    22   19   20 2
    23   20   21 1
    24   21   22 1
    25   21   25 2
    26   22   23 1
    27   23   24 2
    28    1   26 1
    29    2   27 1
    30    3   28 1
    31    5   29 1
    32    7   30 1
    33    8   31 1
    34    9   32 1
    35    9   33 1
    36   10   34 1
    37   11   35 1
    38   11   36 1
    39   12   37 1
    40   12   38 1
    41   13   39 1
    42   14   40 1
    43   14   41 1
    44   15   42 1
    45   15   43 1
    46   19   44 1
    47   20   45 1
    48   22   46 1
@<TRIPOS>PROPERTY_DATA
  Total_Score	| 7.4112
  Crash		| -0.5322
  Polar		| 6.8122
  FragIndex	| 1
  FragRMSD	| 0.544

