@<TRIPOS>MOLECULE
BindingDB_50327817
 48 50 0 0 0
SMALL
NO_CHARGES


@<TRIPOS>ATOM
1    N        26.1632   25.3190  114.8875  N     
2    C        25.4060   25.5522  115.9515  C     
3    N        24.4326   26.4441  115.9664  N     
4    O        25.5895   24.8731  116.9676  O     
5    C        24.0256   27.3128  114.8879  C     
6    C        23.1565   28.4924  115.4276  C     
7    C        21.6569   28.1278  115.5368  C     
8    N        21.0725   27.5073  114.3494  N     
9    C        21.9834   27.1845  113.2565  C     
10   C        23.3010   26.5249  113.7417  C     
11   C        19.7395   27.2793  114.2892  C     
12   C        18.7174   27.5736  115.2937  C     
13   O        19.2800   26.7573  113.2657  O     
14   C        27.2820   24.4331  114.8356  C     
15   C        27.0056   23.2146  113.9385  C     
16   C        27.2444   23.0230  115.4513  C     
17   C        28.5478   22.5789  116.0390  C     
18   C        28.6314   22.4299  117.4417  C     
19   C        29.8171   22.0023  118.0711  C     
20   C        30.9609   21.7244  117.3053  C     
21   C        30.9082   21.8747  115.9101  C     
22   C        29.7075   22.2923  115.2800  C     
23   C        17.8131   26.3651  115.6533  C     
24   H        25.9939   25.8295  114.0826  H     
25   H        23.9568   26.5492  116.8081  H     
26   H        24.9227   27.7788  114.4628  H     
27   H        23.5253   28.8126  116.4037  H     
28   H        23.2413   29.3469  114.7466  H     
29   H        21.1284   29.0639  115.7547  H     
30   H        21.5405   27.4532  116.3867  H     
31   H        22.2331   28.1156  112.7291  H     
32   H        21.5526   26.5105  112.5058  H     
33   H        23.0715   25.5000  114.0705  H     
34   H        23.9768   26.4332  112.8850  H     
35   H        19.1573   27.9302  116.2334  H     
36   H        18.0725   28.3702  114.9148  H     
37   H        28.2623   24.8776  114.6409  H     
38   H        25.9718   23.0234  113.6474  H     
39   H        27.8146   22.9204  113.2613  H     
40   H        26.3195   22.8714  116.0283  H     
41   H        27.8160   22.6295  118.0260  H     
42   H        29.8412   21.8903  119.0895  H     
43   H        31.8239   21.4217  117.7588  H     
44   H        31.7411   21.6739  115.3536  H     
45   H        29.6915   22.3761  114.2614  H     
46   H        18.4120   25.4840  115.9177  H     
47   H        17.1722   26.6177  116.5064  H     
48   H        17.1737   26.1201  114.8051  H     
@<TRIPOS>BOND
     1    2    3 am
     2   11   12 1
     3    1    2 am
     4   11   13 2
     5    2    4 2
     6   14    1 1
     7   14   15 1
     8   16   15 1
     9   16   14 1
    10    3    5 1
    11    5   10 1
    12   16   17 1
    13    6    7 1
    14   17   18 2
    15    7    8 1
    16   18   19 1
    17    8    9 1
    18   19   20 2
    19    9   10 1
    20   20   21 1
    21    5    6 1
    22   21   22 2
    23   22   17 1
    24    8   11 am
    25   12   23 1
    26    1   24 1
    27    3   25 1
    28    5   26 1
    29    6   27 1
    30    6   28 1
    31    7   29 1
    32    7   30 1
    33    9   31 1
    34    9   32 1
    35   10   33 1
    36   10   34 1
    37   12   35 1
    38   12   36 1
    39   14   37 1
    40   15   38 1
    41   15   39 1
    42   16   40 1
    43   18   41 1
    44   19   42 1
    45   20   43 1
    46   21   44 1
    47   22   45 1
    48   23   46 1
    49   23   47 1
    50   23   48 1
@<TRIPOS>PROPERTY_DATA
  Total_Score	| 7.1746
  Crash		| -2.9737
  Polar		| 1.5526
  FragIndex	| 1
  FragRMSD	| 0.613

