@<TRIPOS>MOLECULE
BindingDB_50297400
 52 54 0 0 0
SMALL
NO_CHARGES


@<TRIPOS>ATOM
1    C        27.9179   21.7193  115.3542  C     
2    C        29.1581   21.8435  116.2058  C     
3    C        26.8437   22.8591  115.5005  C     
4    C        27.2681   20.3747  115.4721  C     
5    C        29.1120   21.6509  117.6101  C     
6    C        30.2932   21.6213  118.3792  C     
7    C        31.5463   21.8320  117.7755  C     
8    C        31.6141   22.0416  116.3884  C     
9    C        30.4389   22.0224  115.6123  C     
10   C        26.6123   19.9875  116.6697  C     
11   C        25.8903   18.7880  116.7585  C     
12   C        25.7801   17.9399  115.6322  C     
13   C        26.4377   18.2963  114.4349  C     
14   C        27.1923   19.4841  114.3661  C     
15   C        27.2468   24.1733  114.7825  C     
16   N        26.2509   25.2155  114.8255  N     
17   C        25.4819   25.5751  115.8590  C     
18   C        24.5507   26.6239  115.7779  C     
19   O        25.5994   24.9211  116.8989  O     
20   C        24.4100   27.4319  114.6175  C     
21   C        23.4756   28.4864  114.5434  C     
22   C        22.6464   28.7714  115.6457  C     
23   C        22.7569   27.9884  116.8145  C     
24   C        23.6889   26.9307  116.8704  C     
25   F        32.6455   21.8000  118.4823  F     
26   S        24.8374   16.4737  115.6860  S     
27   C        23.7222   16.3352  117.1035  C     
28   O        23.9957   16.3473  114.3445  O     
29   O        25.8420   15.2392  115.7188  O     
30   C        21.7838   29.7512  115.5946  C     
31   N        21.0214   30.6124  115.5685  N     
32   H        28.2336   21.8092  114.3135  H     
33   H        25.8977   22.5333  115.0524  H     
34   H        26.6118   23.0671  116.5509  H     
35   H        28.2210   21.5025  118.0853  H     
36   H        30.2428   21.4540  119.3845  H     
37   H        32.5178   22.1980  115.9367  H     
38   H        30.5260   22.1323  114.6009  H     
39   H        26.6097   20.6062  117.4777  H     
40   H        25.4271   18.5521  117.6387  H     
41   H        26.3693   17.6912  113.6060  H     
42   H        27.6518   19.7053  113.4779  H     
43   H        28.2019   24.5524  115.1903  H     
44   H        27.3951   23.9464  113.7133  H     
45   H        26.1278   25.7107  113.9937  H     
46   H        24.9986   27.2671  113.8061  H     
47   H        23.4268   29.0347  113.6871  H     
48   H        22.1671   28.1855  117.6319  H     
49   H        23.7227   26.3852  117.7360  H     
50   H        24.3018   16.3228  118.0277  H     
51   H        23.1474   15.4131  117.0315  H     
52   H        23.0337   17.1797  117.1218  H     
@<TRIPOS>BOND
     1    1    2 1
     2    1    3 1
     3    1    4 1
     4    2    5 2
     5    2    9 1
     6    3   15 1
     7    4   10 2
     8    4   14 1
     9    5    6 1
    10    6    7 2
    11    7    8 1
    12    7   25 1
    13    8    9 2
    14   10   11 1
    15   11   12 2
    16   12   13 1
    17   12   26 1
    18   13   14 2
    19   15   16 1
    20   16   17 am
    21   17   18 1
    22   17   19 2
    23   18   20 2
    24   18   24 1
    25   20   21 1
    26   21   22 2
    27   22   23 1
    28   22   30 1
    29   23   24 2
    30   26   27 1
    31   26   28 2
    32   26   29 2
    33   30   31 3
    34    1   32 1
    35    3   33 1
    36    3   34 1
    37    5   35 1
    38    6   36 1
    39    8   37 1
    40    9   38 1
    41   10   39 1
    42   11   40 1
    43   13   41 1
    44   14   42 1
    45   15   43 1
    46   15   44 1
    47   16   45 1
    48   20   46 1
    49   21   47 1
    50   23   48 1
    51   24   49 1
    52   27   50 1
    53   27   51 1
    54   27   52 1
@<TRIPOS>PROPERTY_DATA
  Total_Score	| 10.3277
  Crash		| -2.3940
  Polar		| 2.1148
  FragIndex	| 1
  FragRMSD	| 0.929

