@<TRIPOS>MOLECULE
BindingDB_50310818
 51 54 0 0 0
SMALL
NO_CHARGES


@<TRIPOS>ATOM
1    C        23.8897   26.6492  113.5059  C     
2    N        23.9830   26.6549  114.9626  N     
3    C        23.5095   27.8835  115.5942  C     
4    C        22.0206   28.2480  115.2060  C     
5    C        22.0592   28.4173  113.6401  C     
6    C        22.5190   27.1184  112.9485  C     
7    C        24.6174   25.6831  115.6562  C     
8    N        25.2918   24.7094  115.0489  N     
9    O        24.6342   25.6897  116.8838  O     
10   C        20.9821   27.2434  115.6837  C     
11   C        19.8155   26.9588  114.9148  C     
12   C        18.8361   26.0515  115.3544  C     
13   C        18.9655   25.4378  116.6105  C     
14   C        20.0750   25.7385  117.4166  C     
15   C        21.0664   26.6198  116.9582  C     
16   C        21.6450   29.6233  115.8414  C     
17   C        26.1213   23.7006  115.6336  C     
18   C        27.6006   23.6315  115.1857  C     
19   C        26.5662   22.6524  114.6013  C     
20   C        28.6863   22.9290  115.9097  C     
21   C        28.6695   22.7781  117.3103  C     
22   C        29.7155   22.1099  117.9757  C     
23   C        30.8049   21.6049  117.2492  C     
24   C        30.8431   21.7648  115.8549  C     
25   C        29.7894   22.4209  115.1906  C     
26   H        24.6704   27.3052  113.1179  H     
27   H        24.0485   25.6650  113.0745  H     
28   H        23.6357   27.8988  116.6795  H     
29   H        24.1676   28.6779  115.2412  H     
30   H        21.0970   28.7251  113.2292  H     
31   H        22.7598   29.2108  113.3666  H     
32   H        22.5918   27.2844  111.8726  H     
33   H        21.7740   26.3397  113.1026  H     
34   H        25.2769   24.7122  114.0855  H     
35   H        19.6467   27.4153  114.0211  H     
36   H        18.0159   25.8585  114.7747  H     
37   H        18.2425   24.7933  116.9430  H     
38   H        20.1602   25.3328  118.3500  H     
39   H        21.8364   26.8160  117.5989  H     
40   H        21.6907   29.5709  116.9312  H     
41   H        20.6368   29.9326  115.5522  H     
42   H        22.3322   30.3995  115.5091  H     
43   H        25.8418   23.2518  116.5904  H     
44   H        27.9088   24.4009  114.4722  H     
45   H        26.5684   21.6230  114.9709  H     
46   H        26.3056   22.8299  113.5579  H     
47   H        27.8933   23.1462  117.8593  H     
48   H        29.6804   21.9955  118.9914  H     
49   H        31.5680   21.1269  117.7328  H     
50   H        31.6348   21.3993  115.3227  H     
51   H        29.8332   22.5297  114.1751  H     
@<TRIPOS>BOND
     1    1    2 1
     2    1    6 1
     3    2    3 1
     4    2    7 1
     5    3    4 1
     6    4    5 1
     7    4   10 1
     8    4   16 1
     9    5    6 1
    10    7    8 am
    11    7    9 2
    12   17    8 1
    13   10   11 2
    14   10   15 1
    15   11   12 1
    16   12   13 2
    17   13   14 1
    18   14   15 2
    19   17   18 1
    20   17   19 1
    21   18   19 1
    22   18   20 1
    23   20   21 2
    24   20   25 1
    25   21   22 1
    26   22   23 2
    27   23   24 1
    28   24   25 2
    29    1   26 1
    30    1   27 1
    31    3   28 1
    32    3   29 1
    33    5   30 1
    34    5   31 1
    35    6   32 1
    36    6   33 1
    37    8   34 1
    38   11   35 1
    39   12   36 1
    40   13   37 1
    41   14   38 1
    42   15   39 1
    43   16   40 1
    44   16   41 1
    45   16   42 1
    46   17   43 1
    47   18   44 1
    48   19   45 1
    49   19   46 1
    50   21   47 1
    51   22   48 1
    52   23   49 1
    53   24   50 1
    54   25   51 1
@<TRIPOS>PROPERTY_DATA
  Total_Score	| 8.7103
  Crash		| -3.1610
  Polar		| 2.2403
  FragIndex	| 1
  FragRMSD	| 0.582

