@<TRIPOS>MOLECULE
BindingDB_50336821
 34 36 0 0 0
SMALL
NO_CHARGES


@<TRIPOS>ATOM
1    C        23.4789   28.3936  114.4892  C     
2    C        22.6834   28.8483  115.5611  C     
3    C        22.7357   28.1830  116.7978  C     
4    C        23.5680   27.0621  116.9575  C     
5    C        24.3641   26.5710  115.8837  C     
6    C        24.3108   27.2713  114.6544  C     
7    C        25.1633   25.4337  116.0602  C     
8    N        25.7397   24.7807  115.0492  N     
9    C        26.5331   23.6030  115.1966  C     
10   C        28.0534   23.8130  115.0872  C     
11   C        27.2834   23.1152  113.9501  C     
12   C        28.9879   22.9747  115.8642  C     
13   C        28.8585   22.8253  117.2615  C     
14   C        29.7879   22.0693  117.9893  C     
15   C        30.8855   21.4701  117.3318  C     
16   C        31.0389   21.6420  115.9430  C     
17   C        30.1005   22.3959  115.2143  C     
18   O        25.2965   24.9754  117.1896  O     
19   C        21.8936   29.8719  115.4117  C     
20   N        21.1914   30.7746  115.2952  N     
21   H        23.4641   28.8685  113.5817  H     
22   H        22.1658   28.4960  117.5914  H     
23   H        23.5702   26.5985  117.8651  H     
24   H        24.8839   26.9819  113.8530  H     
25   H        25.6094   25.1118  114.1537  H     
26   H        26.1843   22.7921  115.8386  H     
27   H        28.3845   24.8209  114.8141  H     
28   H        27.3883   22.0321  113.8674  H     
29   H        27.1746   23.7037  113.0379  H     
30   H        28.0862   23.2676  117.7609  H     
31   H        29.6773   21.9528  118.9983  H     
32   H        31.5544   20.9097  117.8607  H     
33   H        31.8379   21.2289  115.4643  H     
34   H        30.2336   22.5297  114.2138  H     
@<TRIPOS>BOND
     1    1    2 2
     2    1    6 1
     3    2    3 1
     4    2   19 1
     5    3    4 2
     6    4    5 1
     7    5    6 2
     8    5    7 1
     9    7    8 am
    10    7   18 2
    11    9    8 1
    12    9   10 1
    13    9   11 1
    14   10   11 1
    15   10   12 1
    16   12   13 2
    17   12   17 1
    18   13   14 1
    19   14   15 2
    20   15   16 1
    21   16   17 2
    22   19   20 3
    23    1   21 1
    24    3   22 1
    25    4   23 1
    26    6   24 1
    27    8   25 1
    28    9   26 1
    29   10   27 1
    30   11   28 1
    31   11   29 1
    32   13   30 1
    33   14   31 1
    34   15   32 1
    35   16   33 1
    36   17   34 1
@<TRIPOS>PROPERTY_DATA
  Total_Score	| 7.3235
  Crash		| -1.5852
  Polar		| 2.0080
  FragIndex	| 1
  FragRMSD	| 0.060

