@<TRIPOS>MOLECULE
BindingDB_50297410
 41 43 0 0 0
SMALL
NO_CHARGES


@<TRIPOS>ATOM
1    C        29.9960   22.4371  115.7176  C     
2    C        28.7940   22.4603  116.4660  C     
3    C        28.8580   22.1472  117.8500  C     
4    C        30.0726   21.8288  118.4747  C     
5    C        31.2572   21.8235  117.7133  C     
6    C        31.2180   22.1134  116.3368  C     
7    C        27.4531   22.5946  115.8306  C     
8    C        27.3449   23.7834  114.7925  C     
9    N        26.3269   24.8220  114.8328  N     
10   C        25.5276   25.2850  115.8071  C     
11   C        24.6789   26.4267  115.7066  C     
12   O        25.5867   24.6678  116.8659  O     
13   C        24.5469   27.1896  114.5097  C     
14   C        23.6671   28.2964  114.4099  C     
15   C        22.9123   28.6675  115.5383  C     
16   N        23.0440   27.9606  116.6731  N     
17   C        23.8815   26.8960  116.7924  C     
18   C        27.1434   21.2002  115.3113  C     
19   C        27.5795   20.7414  114.0303  C     
20   C        27.3063   19.4050  113.6194  C     
21   C        26.6040   18.5293  114.4777  C     
22   C        26.2459   18.9603  115.7702  C     
23   C        26.5249   20.2773  116.1793  C     
24   H        29.9651   22.6247  114.7086  H     
25   H        27.9923   22.0865  118.4284  H     
26   H        30.0826   21.5863  119.4664  H     
27   H        32.1259   21.5726  118.1535  H     
28   H        32.0931   22.1013  115.7921  H     
29   H        26.7516   22.8605  116.6261  H     
30   H        28.3041   24.3085  114.7902  H     
31   H        27.1996   23.3127  113.7996  H     
32   H        26.2119   25.2601  113.9838  H     
33   H        25.0968   26.9560  113.6939  H     
34   H        23.5782   28.8250  113.5467  H     
35   H        22.2538   29.4739  115.5036  H     
36   H        23.8870   26.4323  117.7060  H     
37   H        28.0793   21.3654  113.3820  H     
38   H        27.6298   19.0525  112.7194  H     
39   H        26.3937   17.5638  114.1734  H     
40   H        25.7616   18.3203  116.4241  H     
41   H        26.2393   20.5508  117.1134  H     
@<TRIPOS>BOND
     1    1    2 2
     2    1    6 1
     3    2    3 1
     4    2    7 1
     5    3    4 2
     6    4    5 1
     7    5    6 2
     8    7    8 1
     9    7   18 1
    10    8    9 1
    11    9   10 am
    12   10   11 1
    13   10   12 2
    14   11   13 2
    15   11   17 1
    16   13   14 1
    17   14   15 2
    18   15   16 1
    19   16   17 2
    20   18   19 2
    21   18   23 1
    22   19   20 1
    23   20   21 2
    24   21   22 1
    25   22   23 2
    26    1   24 1
    27    3   25 1
    28    4   26 1
    29    5   27 1
    30    6   28 1
    31    7   29 1
    32    8   30 1
    33    8   31 1
    34    9   32 1
    35   13   33 1
    36   14   34 1
    37   15   35 1
    38   17   36 1
    39   19   37 1
    40   20   38 1
    41   21   39 1
    42   22   40 1
    43   23   41 1
@<TRIPOS>PROPERTY_DATA
  Total_Score	| 8.1443
  Crash		| -1.8273
  Polar		| 2.0680
  FragIndex	| 1
  FragRMSD	| 0.678

