@<TRIPOS>MOLECULE
BindingDB_50297396
 45 47 0 0 0
SMALL
NO_CHARGES


@<TRIPOS>ATOM
1    C        27.9695   21.7619  115.2330  C     
2    C        27.2978   20.4155  115.3107  C     
3    C        26.9754   22.9512  115.5452  C     
4    C        29.2369   21.7938  116.0495  C     
5    C        26.5411   20.0293  116.4454  C     
6    C        25.8508   18.8022  116.4763  C     
7    C        25.8817   17.9547  115.3573  C     
8    C        26.6348   18.3127  114.2217  C     
9    C        27.3450   19.5241  114.2063  C     
10   C        30.4803   22.1099  115.4440  C     
11   C        31.6779   22.1096  116.1862  C     
12   C        31.6628   21.7942  117.5580  C     
13   C        30.4385   21.4858  118.1815  C     
14   C        29.2414   21.5129  117.4408  C     
15   C        27.3246   24.2784  114.8102  C     
16   C        24.5989   26.7372  115.7315  C     
17   C        23.7809   27.1346  116.8248  C     
18   C        22.8447   28.1852  116.7058  C     
19   C        22.6905   28.8648  115.4903  C     
20   C        23.4869   28.4944  114.3938  C     
21   C        24.4264   27.4501  114.5145  C     
22   O        25.5143   24.9892  116.8547  O     
23   C        25.5143   25.6747  115.8413  C     
24   N        26.3552   25.3414  114.8551  N     
25   H        28.2478   21.9087  114.1804  H     
26   H        25.9566   22.6843  115.2348  H     
27   H        26.9595   23.1276  116.6291  H     
28   H        26.4550   20.6480  117.2543  H     
29   H        25.3133   18.5391  117.3048  H     
30   H        25.3644   17.0660  115.3699  H     
31   H        26.6595   17.6934  113.4117  H     
32   H        27.9020   19.7527  113.3774  H     
33   H        30.5264   22.3487  114.4458  H     
34   H        32.5658   22.3507  115.7379  H     
35   H        32.5386   21.7791  118.0959  H     
36   H        30.4284   21.2472  119.1782  H     
37   H        28.3640   21.3102  117.9325  H     
38   H        28.2801   24.6673  115.1726  H     
39   H        27.4508   24.0683  113.7522  H     
40   H        23.8620   26.6632  117.7335  H     
41   H        22.2747   28.4488  117.5108  H     
42   H        22.0063   29.6202  115.4051  H     
43   H        23.3901   28.9894  113.5060  H     
44   H        24.9838   27.2195  113.6832  H     
45   H        26.3496   25.9104  114.0640  H     
@<TRIPOS>BOND
     1    1    2 1
     2    1    3 1
     3    1    4 1
     4    2    5 2
     5    2    9 1
     6    3   15 1
     7    4   10 2
     8    4   14 1
     9    5    6 1
    10    6    7 2
    11    7    8 1
    12    8    9 2
    13   10   11 1
    14   11   12 2
    15   12   13 1
    16   13   14 2
    17   15   24 1
    18   16   17 2
    19   16   21 1
    20   16   23 1
    21   17   18 1
    22   18   19 2
    23   19   20 1
    24   20   21 2
    25   22   23 2
    26   23   24 am
    27    1   25 1
    28    3   26 1
    29    3   27 1
    30    5   28 1
    31    6   29 1
    32    7   30 1
    33    8   31 1
    34    9   32 1
    35   10   33 1
    36   11   34 1
    37   12   35 1
    38   13   36 1
    39   14   37 1
    40   15   38 1
    41   15   39 1
    42   17   40 1
    43   18   41 1
    44   19   42 1
    45   20   43 1
    46   21   44 1
    47   24   45 1
@<TRIPOS>PROPERTY_DATA
  Total_Score	| 9.1528
  Crash		| -1.8588
  Polar		| 2.2386
  FragIndex	| 1
  FragRMSD	| 1.017

