@<TRIPOS>MOLECULE
BindingDB_50297413
 44 46 0 0 0
SMALL
NO_CHARGES


@<TRIPOS>ATOM
1    C        23.4198   28.5623  114.4273  C     
2    C        22.6787   28.8962  115.5738  C     
3    N        22.8423   28.1840  116.7151  N     
4    C        23.7227   27.1549  116.8097  C     
5    C        24.5407   26.7688  115.7052  C     
6    C        24.3476   27.5072  114.5001  C     
7    C        25.4789   25.7297  115.8104  C     
8    N        26.2882   25.4062  114.8082  N     
9    O        25.5179   25.0651  116.8398  O     
10   C        27.2781   24.3698  114.7645  C     
11   C        26.8091   22.9798  115.2488  C     
12   C        27.8905   21.8610  115.1332  C     
13   C        29.0389   21.9636  116.0949  C     
14   C        27.2790   20.4860  115.2011  C     
15   C        26.6189   20.0055  116.3662  C     
16   C        26.0670   18.7119  116.4132  C     
17   C        26.1222   17.8824  115.2840  C     
18   C        26.7490   18.3342  114.1070  C     
19   C        27.3333   19.6186  114.0787  C     
20   C        28.8528   22.0096  117.5006  C     
21   C        29.9395   21.9257  118.3861  C     
22   C        31.2501   21.8376  117.8874  C     
23   C        31.4708   21.8571  116.4997  C     
24   C        30.3767   21.9155  115.6153  C     
25   H        23.2835   29.0731  113.5542  H     
26   H        21.9987   29.6564  115.5479  H     
27   H        23.7855   26.6728  117.7104  H     
28   H        24.8876   27.2925  113.6578  H     
29   H        26.2492   25.9585  114.0192  H     
30   H        27.5923   24.2949  113.7152  H     
31   H        28.1610   24.6802  115.3252  H     
32   H        26.4569   23.0683  116.2772  H     
33   H        25.9395   22.6927  114.6394  H     
34   H        28.3006   21.9924  114.1232  H     
35   H        26.5204   20.5910  117.1862  H     
36   H        25.6098   18.3806  117.2708  H     
37   H        25.7035   16.9430  115.3175  H     
38   H        26.7908   17.7275  113.2904  H     
39   H        27.8037   19.9098  113.2195  H     
40   H        27.9165   22.0866  117.8994  H     
41   H        29.7684   21.9153  119.3944  H     
42   H        32.0419   21.7818  118.5291  H     
43   H        32.4207   21.8159  116.1315  H     
44   H        30.5659   21.9016  114.6134  H     
@<TRIPOS>BOND
     1    1    2 2
     2    1    6 1
     3    2    3 1
     4    3    4 2
     5    4    5 1
     6    5    6 2
     7    5    7 1
     8    7    8 am
     9    7    9 2
    10    8   10 1
    11   10   11 1
    12   11   12 1
    13   12   13 1
    14   12   14 1
    15   13   20 2
    16   13   24 1
    17   14   15 2
    18   14   19 1
    19   15   16 1
    20   16   17 2
    21   17   18 1
    22   18   19 2
    23   20   21 1
    24   21   22 2
    25   22   23 1
    26   23   24 2
    27    1   25 1
    28    2   26 1
    29    4   27 1
    30    6   28 1
    31    8   29 1
    32   10   30 1
    33   10   31 1
    34   11   32 1
    35   11   33 1
    36   12   34 1
    37   15   35 1
    38   16   36 1
    39   17   37 1
    40   18   38 1
    41   19   39 1
    42   20   40 1
    43   21   41 1
    44   22   42 1
    45   23   43 1
    46   24   44 1
@<TRIPOS>PROPERTY_DATA
  Total_Score	| 9.2914
  Crash		| -1.7005
  Polar		| 2.2019
  FragIndex	| 1
  FragRMSD	| 0.922

