@<TRIPOS>MOLECULE
BindingDB_50297397
 44 46 0 0 0
SMALL
NO_CHARGES


@<TRIPOS>ATOM
1    C        27.8062   21.7528  115.0771  C     
2    C        27.2269   20.3703  115.1444  C     
3    C        26.7083   22.8696  115.1329  C     
4    C        28.9349   21.8819  116.0575  C     
5    C        27.3906   19.4768  114.0459  C     
6    C        26.8913   18.1583  114.1004  C     
7    C        26.2389   17.6994  115.2560  C     
8    C        26.0606   18.5683  116.3550  C     
9    C        26.5339   19.8980  116.2885  C     
10   C        28.6894   22.0265  117.4466  C     
11   C        29.7525   22.0225  118.3728  C     
12   C        31.0825   21.9117  117.9288  C     
13   C        31.3484   21.7791  116.5513  C     
14   C        30.2835   21.7429  115.6308  C     
15   C        27.2506   24.2881  114.7914  C     
16   C        24.5475   26.7637  115.6544  C     
17   C        23.7311   27.1728  116.7458  C     
18   C        22.8104   28.2284  116.6072  C     
19   N        22.7038   28.8591  115.4174  N     
20   C        23.4457   28.5252  114.3382  C     
21   C        24.3866   27.4806  114.4381  C     
22   N        26.2671   25.3297  114.7879  N     
23   C        25.4598   25.6966  115.7831  C     
24   O        25.5151   25.0515  116.8265  O     
25   H        28.2393   21.8754  114.0849  H     
26   H        25.9453   22.6284  114.3828  H     
27   H        26.2007   22.8891  116.1043  H     
28   H        27.8847   19.7675  113.2002  H     
29   H        27.0134   17.5320  113.2974  H     
30   H        25.9050   16.7242  115.3081  H     
31   H        25.5750   18.2279  117.1891  H     
32   H        26.3530   20.5155  117.0868  H     
33   H        27.7297   22.1177  117.7965  H     
34   H        29.5572   22.1125  119.3715  H     
35   H        31.8604   21.9067  118.5996  H     
36   H        32.3160   21.6988  116.2259  H     
37   H        30.5055   21.6098  114.6389  H     
38   H        28.0656   24.5625  115.4713  H     
39   H        27.6628   24.2586  113.7749  H     
40   H        23.7931   26.7137  117.6579  H     
41   H        22.2236   28.5235  117.3889  H     
42   H        23.3233   29.0359  113.4626  H     
43   H        24.9382   27.2608  113.6119  H     
44   H        26.2277   25.8610  113.9778  H     
@<TRIPOS>BOND
     1    1    2 1
     2    1    3 1
     3    1    4 1
     4    2    5 2
     5    2    9 1
     6    3   15 1
     7    4   10 2
     8    4   14 1
     9    5    6 1
    10    6    7 2
    11    7    8 1
    12    8    9 2
    13   10   11 1
    14   11   12 2
    15   12   13 1
    16   13   14 2
    17   15   22 1
    18   16   17 2
    19   16   21 1
    20   16   23 1
    21   17   18 1
    22   18   19 2
    23   19   20 1
    24   20   21 2
    25   22   23 am
    26   23   24 2
    27    1   25 1
    28    3   26 1
    29    3   27 1
    30    5   28 1
    31    6   29 1
    32    7   30 1
    33    8   31 1
    34    9   32 1
    35   10   33 1
    36   11   34 1
    37   12   35 1
    38   13   36 1
    39   14   37 1
    40   15   38 1
    41   15   39 1
    42   17   40 1
    43   18   41 1
    44   20   42 1
    45   21   43 1
    46   22   44 1
@<TRIPOS>PROPERTY_DATA
  Total_Score	| 8.8069
  Crash		| -1.8357
  Polar		| 2.1840
  FragIndex	| 1
  FragRMSD	| 0.985

