@<TRIPOS>MOLECULE
BindingDB_50297416
 46 48 0 0 0
SMALL
NO_CHARGES


@<TRIPOS>ATOM
1    C        27.9756   21.7501  115.2648  C     
2    C        27.2948   20.4057  115.3440  C     
3    C        27.0056   22.9517  115.5862  C     
4    C        29.2409   21.7640  116.0799  C     
5    C        26.6325   19.9727  116.5262  C     
6    C        25.9489   18.7486  116.5723  C     
7    C        25.8923   17.9247  115.4345  C     
8    C        26.5556   18.3192  114.2578  C     
9    C        27.2538   19.5419  114.2181  C     
10   C        30.4874   22.0894  115.4863  C     
11   C        31.6747   22.1240  116.2486  C     
12   C        31.6456   21.8134  117.6214  C     
13   C        30.4234   21.4722  118.2250  C     
14   C        29.2391   21.4591  117.4668  C     
15   C        27.2358   24.2431  114.7372  C     
16   N        26.3049   25.3411  114.8587  N     
17   C        25.4584   25.6517  115.8439  C     
18   C        24.5369   26.7154  115.7628  C     
19   C        24.3583   27.4768  114.5745  C     
20   C        23.4320   28.5406  114.4987  C     
21   C        22.6481   28.8814  115.6224  C     
22   C        22.7839   28.1346  116.8133  C     
23   C        23.7157   27.0789  116.8720  C     
24   O        25.4778   24.9959  116.8802  O     
25   C        21.8202   29.8820  115.5728  C     
26   N        21.0906   30.7705  115.5500  N     
27   F        25.2079   16.8157  115.4681  F     
28   F        32.7400   21.8802  118.3373  F     
29   H        28.2490   21.8861  114.2114  H     
30   H        25.9656   22.6411  115.3942  H     
31   H        27.0722   23.2099  116.6534  H     
32   H        26.6138   20.5679  117.3579  H     
33   H        25.4647   18.4698  117.4278  H     
34   H        26.5162   17.7302  113.4244  H     
35   H        27.7276   19.8022  113.3498  H     
36   H        30.5400   22.3221  114.4908  H     
37   H        32.5588   22.3944  115.8094  H     
38   H        30.3965   21.2371  119.2210  H     
39   H        28.3687   21.2258  117.9457  H     
40   H        28.2506   24.6247  114.9234  H     
41   H        27.1770   23.9486  113.6848  H     
42   H        26.3139   25.9490  114.1018  H     
43   H        24.9084   27.2741  113.7316  H     
44   H        23.3473   29.0725  113.6181  H     
45   H        22.2159   28.3577  117.6424  H     
46   H        23.7779   26.5734  117.7628  H     
@<TRIPOS>BOND
     1    1    2 1
     2    1    3 1
     3    1    4 1
     4    2    5 2
     5    2    9 1
     6    3   15 1
     7    4   10 2
     8    4   14 1
     9    5    6 1
    10    6    7 2
    11    7    8 1
    12    7   27 1
    13    8    9 2
    14   10   11 1
    15   11   12 2
    16   12   13 1
    17   12   28 1
    18   13   14 2
    19   15   16 1
    20   16   17 am
    21   17   18 1
    22   17   24 2
    23   18   19 2
    24   18   23 1
    25   19   20 1
    26   20   21 2
    27   21   22 1
    28   21   25 1
    29   22   23 2
    30   25   26 3
    31    1   29 1
    32    3   30 1
    33    3   31 1
    34    5   32 1
    35    6   33 1
    36    8   34 1
    37    9   35 1
    38   10   36 1
    39   11   37 1
    40   13   38 1
    41   14   39 1
    42   15   40 1
    43   15   41 1
    44   16   42 1
    45   19   43 1
    46   20   44 1
    47   22   45 1
    48   23   46 1
@<TRIPOS>PROPERTY_DATA
  Total_Score	| 9.4648
  Crash		| -1.6023
  Polar		| 2.1638
  FragIndex	| 1
  FragRMSD	| 0.941

