@<TRIPOS>MOLECULE
BindingDB_15381
 51 53 0 0 0
SMALL
NO_CHARGES


@<TRIPOS>ATOM
1    C        -1.5341   11.0057   25.6953  C     
2    C        -0.8801    9.8076   27.6464  C     
3    N         0.4161    9.7677   27.2252  N     
4    N        -1.8318   10.4155   26.8846  N     
5    N        -2.4822   11.5980   24.9503  N     
6    C        -0.2015   10.9731   25.2607  C     
7    C         0.7567   10.3384   26.0399  C     
8    C         1.6994   11.1689   24.2665  C     
9    N         0.3873   11.4679   24.1756  N     
10   N         1.9347   10.4413   25.3943  N     
11   C         3.1683    9.8719   25.8628  C     
12   C         3.2684    8.3251   25.6949  C     
13   C         3.1828    7.8093   24.2294  C     
14   C         2.6548   11.6327   23.2312  C     
15   C         3.6491   12.6245   23.7519  C     
16   C         5.0086   12.2497   23.7947  C     
17   C         5.9968   13.0775   24.3606  C     
18   C         3.2965   13.9171   24.2230  C     
19   C         5.6077   14.3246   24.8980  C     
20   C         4.2580   14.7621   24.8264  C     
21   O         7.3295   12.7519   24.4674  O     
22   C         7.8633   11.5491   23.8828  C     
23   Cl        1.7009   14.4928   24.0532  Cl    
24   O         6.5658   15.1242   25.4705  O     
25   C         6.9866   14.6949   26.7813  C     
26   O         3.7653   15.9239   25.3912  O     
27   C         4.5740   17.0573   25.7158  C     
28   C         1.8961    7.5843   23.8158  C     
29   C         0.7629    7.3606   23.4849  C     
30   F        -1.2216    9.2582   28.7759  F     
31   H        -2.2353   12.0160   24.1117  H     
32   H        -3.4117   11.5954   25.2236  H     
33   H         4.0156   10.3125   25.3367  H     
34   H         3.2879   10.1148   26.9244  H     
35   H         4.2438    8.0247   26.0756  H     
36   H         2.5137    7.8316   26.3213  H     
37   H         3.6542    8.5217   23.5403  H     
38   H         3.7198    6.8587   24.1529  H     
39   H         3.1347   10.7379   22.8239  H     
40   H         2.1172   12.1069   22.4061  H     
41   H         5.2735   11.3387   23.4200  H     
42   H         7.3280   10.6656   24.2347  H     
43   H         8.9069   11.4526   24.1797  H     
44   H         7.8151   11.6033   22.7942  H     
45   H         6.1477   14.6506   27.4757  H     
46   H         7.7010   15.4226   27.1678  H     
47   H         7.4687   13.7228   26.7355  H     
48   H         5.2133   16.8395   26.5751  H     
49   H         3.9058   17.8689   25.9993  H     
50   H         5.1805   17.3794   24.8647  H     
51   H        -0.1081    7.1944   23.2299  H     
@<TRIPOS>BOND
     1    1    4 1
     2    1    5 1
     3    1    6 2
     4    2    3 1
     5    2    4 2
     6    2   30 1
     7    3    7 2
     8    6    7 1
     9    6    9 1
    10    7   10 1
    11    8    9 2
    12    8   10 1
    13    8   14 1
    14   10   11 1
    15   11   12 1
    16   12   13 1
    17   13   28 1
    18   14   15 1
    19   15   16 2
    20   15   18 1
    21   16   17 1
    22   17   19 2
    23   17   21 1
    24   18   20 2
    25   18   23 1
    26   19   20 1
    27   19   24 1
    28   20   26 1
    29   21   22 1
    30   24   25 1
    31   26   27 1
    32   28   29 3
    33    5   31 1
    34    5   32 1
    35   11   33 1
    36   11   34 1
    37   12   35 1
    38   12   36 1
    39   13   37 1
    40   13   38 1
    41   14   39 1
    42   14   40 1
    43   16   41 1
    44   22   42 1
    45   22   43 1
    46   22   44 1
    47   25   45 1
    48   25   46 1
    49   25   47 1
    50   27   48 1
    51   27   49 1
    52   27   50 1
    53   29   51 1
@<TRIPOS>PROPERTY_DATA
  Total_Score	| 8.9213
  Crash		| -1.4956
  Polar		| 1.2550
  FragIndex	| 1
  FragRMSD	| 0.376

