@<TRIPOS>MOLECULE
BindingDB_15385
 43 46 0 0 0
SMALL
NO_CHARGES


@<TRIPOS>ATOM
1    C        -1.3954   11.0965   25.6256  C     
2    C        -0.9379    9.8417   27.5907  C     
3    N         0.3631    9.6508   27.2100  N     
4    N        -1.8031   10.5456   26.8016  N     
5    N        -2.2531   11.7834   24.8551  N     
6    C        -0.0535   10.9333   25.2420  C     
7    C         0.8101   10.1897   26.0441  C     
8    C         1.9093   11.0178   24.3560  C     
9    N         0.6335   11.4239   24.2098  N     
10   C         2.9496   11.4862   23.4033  C     
11   C         3.7569   12.6326   23.9032  C     
12   C         5.1703   12.6441   23.7504  C     
13   C         5.9353   13.7790   24.0960  C     
14   C         3.1282   13.7893   24.4414  C     
15   F        -1.3633    9.3698   28.7367  F     
16   N         2.0274   10.2216   25.4572  N     
17   C         3.2272    9.5864   25.9656  C     
18   C         3.9270    8.4927   25.0990  C     
19   C         3.0398    7.5332   24.2378  C     
20   C         2.4478    8.1236   22.9405  C     
21   C         3.9017   14.9115   24.8001  C     
22   C         5.2789   14.9062   24.6226  C     
23   C         4.7091   16.7887   25.5061  C     
24   O         3.4714   16.0834   25.3040  O     
25   O         5.8462   16.0779   24.9871  O     
26   H        -1.9525   12.1427   24.0097  H     
27   H        -3.1934   11.8738   25.0960  H     
28   H         3.5889   10.6404   23.1354  H     
29   H         2.4688   11.8079   22.4729  H     
30   H         5.6603   11.8380   23.3571  H     
31   H         6.9513   13.7954   23.9661  H     
32   H         2.1106   13.8227   24.5673  H     
33   H         3.9575   10.3785   26.1467  H     
34   H         3.0250    9.1087   26.9408  H     
35   H         4.6474    8.9604   24.4162  H     
36   H         4.5251    7.8468   25.7588  H     
37   H         3.6677    6.6646   23.9492  H     
38   H         2.2103    7.1116   24.8546  H     
39   H         1.6462    8.8150   23.1848  H     
40   H         2.0397    7.3354   22.3141  H     
41   H         3.2313    8.6409   22.3781  H     
42   H         4.6476   17.7553   25.0123  H     
43   H         4.8602   16.9560   26.5739  H     
@<TRIPOS>BOND
     1    1    4 1
     2    1    5 1
     3    1    6 2
     4    2    3 1
     5    2    4 2
     6    2   15 1
     7    3    7 2
     8    6    7 1
     9    6    9 1
    10    7   16 1
    11    8    9 2
    12    8   10 1
    13    8   16 1
    14   10   11 1
    15   11   12 2
    16   11   14 1
    17   12   13 1
    18   13   22 2
    19   14   21 2
    20   16   17 1
    21   17   18 1
    22   18   19 1
    23   19   20 1
    24   21   22 1
    25   21   24 1
    26   22   25 1
    27   23   24 1
    28   23   25 1
    29    5   26 1
    30    5   27 1
    31   10   28 1
    32   10   29 1
    33   12   30 1
    34   13   31 1
    35   14   32 1
    36   17   33 1
    37   17   34 1
    38   18   35 1
    39   18   36 1
    40   19   37 1
    41   19   38 1
    42   20   39 1
    43   20   40 1
    44   20   41 1
    45   23   42 1
    46   23   43 1
@<TRIPOS>PROPERTY_DATA
  Total_Score	| 7.3229
  Crash		| -0.7539
  Polar		| 1.3249
  FragIndex	| 1
  FragRMSD	| 0.678

