@<TRIPOS>MOLECULE
BindingDB_50165297
 51 53 0 0 0
SMALL
NO_CHARGES


@<TRIPOS>ATOM
1    N        -1.9787   10.4470   26.6952  N     
2    C        -1.1415    9.7379   27.5052  C     
3    N         0.1897    9.6565   27.2131  N     
4    C        -1.5207   11.1033   25.5928  C     
5    N        -2.3588   11.7916   24.8052  N     
6    C        -0.1521   11.0371   25.2983  C     
7    C         0.6894   10.2843   26.1146  C     
8    N         1.9266   10.3473   25.5833  N     
9    C         1.8481   11.1777   24.5036  C     
10   N         0.5727   11.5810   24.3231  N     
11   C         3.0930    9.6932   26.1266  C     
12   C         3.1190    8.1426   25.9919  C     
13   C         2.1081    7.3440   26.8658  C     
14   C         0.9100    7.0813   26.2531  C     
15   C        -0.1339    6.8378   25.7249  C     
16   C         2.9009   11.6244   23.5610  C     
17   C         4.0159   12.3633   24.2213  C     
18   C         3.7591   13.4533   25.0815  C     
19   C         4.8077   14.1424   25.7182  C     
20   C         6.1464   13.7529   25.4854  C     
21   C         6.4381   12.6561   24.6362  C     
22   C         5.3620   11.9921   24.0011  C     
23   O         7.1432   14.4077   26.1653  O     
24   C         7.9039   15.3272   25.3541  C     
25   O         4.4890   15.0707   26.6735  O     
26   C         4.3532   16.4203   26.1948  C     
27   O         7.7646   12.2772   24.5589  O     
28   C         8.1649   11.1647   23.7412  C     
29   H        -1.5181    9.2633   28.3298  H     
30   H        -2.0152   12.2585   24.0271  H     
31   H        -3.3075   11.8069   24.9943  H     
32   H         3.9814   10.0607   25.6170  H     
33   H         3.2137    9.9747   27.1753  H     
34   H         3.0184    7.8710   24.9365  H     
35   H         4.1170    7.8174   26.3006  H     
36   H         2.5468    6.3751   27.1202  H     
37   H         1.9235    7.8734   27.8027  H     
38   H        -0.9381    6.6484   25.3169  H     
39   H         3.2651   10.7431   23.0238  H     
40   H         2.4770   12.2993   22.8093  H     
41   H         2.7961   13.7306   25.2854  H     
42   H         5.5555   11.1986   23.3835  H     
43   H         8.5656   14.7993   24.6677  H     
44   H         8.5298   15.9336   26.0076  H     
45   H         7.2623   15.9985   24.7785  H     
46   H         5.3256   16.8527   25.9570  H     
47   H         3.9154   17.0146   26.9969  H     
48   H         3.7000   16.4944   25.3198  H     
49   H         7.8096   10.2323   24.1876  H     
50   H         9.2526   11.1306   23.6888  H     
51   H         7.7640   11.2759   22.7294  H     
@<TRIPOS>BOND
     1    1    2 2
     2    1    4 1
     3    2    3 1
     4    3    7 2
     5    4    5 1
     6    4    6 2
     7    6    7 1
     8    6   10 1
     9    7    8 1
    10    8    9 1
    11    8   11 1
    12    9   10 2
    13    9   16 1
    14   11   12 1
    15   12   13 1
    16   13   14 1
    17   14   15 3
    18   16   17 1
    19   17   18 2
    20   17   22 1
    21   18   19 1
    22   19   20 2
    23   19   25 1
    24   20   21 1
    25   20   23 1
    26   21   22 2
    27   21   27 1
    28   23   24 1
    29   25   26 1
    30   27   28 1
    31    2   29 1
    32    5   30 1
    33    5   31 1
    34   11   32 1
    35   11   33 1
    36   12   34 1
    37   12   35 1
    38   13   36 1
    39   13   37 1
    40   15   38 1
    41   16   39 1
    42   16   40 1
    43   18   41 1
    44   22   42 1
    45   24   43 1
    46   24   44 1
    47   24   45 1
    48   26   46 1
    49   26   47 1
    50   26   48 1
    51   28   49 1
    52   28   50 1
    53   28   51 1
@<TRIPOS>PROPERTY_DATA
  Total_Score	| 8.3044
  Crash		| -0.6198
  Polar		| 1.3940
  FragIndex	| 1
  FragRMSD	| 0.140

