@<TRIPOS>MOLECULE
BindingDB_50165270
 51 53 0 0 0
SMALL
NO_CHARGES


@<TRIPOS>ATOM
1    C         0.7399   10.4115   26.0602  C     
2    C        -0.1998   11.0923   25.2943  C     
3    N         0.4267   11.6548   24.2606  N     
4    N         1.9403   10.5515   25.4602  N     
5    C         1.7322   11.3391   24.3640  C     
6    N         0.3568    9.7531   27.1881  N     
7    N        -1.8875   10.3797   26.8022  N     
8    C        -1.5520   11.0527   25.6701  C     
9    C        -0.9524    9.7458   27.5645  C     
10   C         5.8116   14.3599   24.8891  C     
11   C         4.4793   14.8308   24.7970  C     
12   C         6.1454   13.0750   24.3860  C     
13   C         2.6954   11.7963   23.3315  C     
14   C         3.7612   12.6871   23.8580  C     
15   C         4.0803    8.1532   23.3217  C     
16   C         3.8064    8.2504   22.1635  C     
17   C         5.1200   12.2678   23.8431  C     
18   C         3.4613   13.9801   24.3258  C     
19   N        -2.4993   11.6373   24.9208  N     
20   F        -1.3199    9.1296   28.6508  F     
21   C         3.1592    9.9495   25.9389  C     
22   O         6.7837   15.2011   25.3769  O     
23   O         4.1486   16.1357   25.0338  O     
24   O         7.4582   12.6636   24.4968  O     
25   C         4.4149    8.0260   24.6460  C     
26   C         7.3494   14.8330   26.6492  C     
27   C         7.8660   11.4411   23.8495  C     
28   C         4.3135   16.5606   26.3900  C     
29   C         3.2739    8.4218   25.6259  C     
30   H         3.1154   10.9082   22.8558  H     
31   H         2.1636   12.3470   22.5470  H     
32   H         3.5970    8.3238   21.2673  H     
33   H         5.3804   11.3591   23.4429  H     
34   H         2.4982   14.3262   24.2860  H     
35   H        -3.4331   11.5492   25.1631  H     
36   H        -2.2553   12.1089   24.1080  H     
37   H         4.0243   10.4743   25.5319  H     
38   H         3.2055   10.0918   27.0239  H     
39   H         4.6821    6.9820   24.8178  H     
40   H         5.3007    8.6344   24.8405  H     
41   H         6.5787   14.7099   27.4127  H     
42   H         8.0195   15.6344   26.9652  H     
43   H         7.9336   13.9132   26.5755  H     
44   H         7.2366   10.6040   24.1814  H     
45   H         8.9087   11.2388   24.1166  H     
46   H         7.8029   11.5361   22.7622  H     
47   H         3.7652   15.9176   27.0879  H     
48   H         3.9240   17.5782   26.4666  H     
49   H         5.3765   16.5739   26.6437  H     
50   H         3.4525    7.8855   26.5673  H     
51   H         2.3263    8.0404   25.2299  H     
@<TRIPOS>BOND
     1    1    2 1
     2    1    4 1
     3    1    6 2
     4    2    3 1
     5    2    8 2
     6    3    5 2
     7    4    5 1
     8    4   21 1
     9    5   13 1
    10    6    9 1
    11    7    8 1
    12    7    9 2
    13    8   19 1
    14    9   20 1
    15   10   11 1
    16   10   12 2
    17   10   22 1
    18   11   18 2
    19   11   23 1
    20   12   17 1
    21   12   24 1
    22   13   14 1
    23   14   17 2
    24   14   18 1
    25   15   16 3
    26   15   25 1
    27   21   29 1
    28   22   26 1
    29   23   28 1
    30   24   27 1
    31   25   29 1
    32   13   30 1
    33   13   31 1
    34   16   32 1
    35   17   33 1
    36   18   34 1
    37   19   35 1
    38   19   36 1
    39   21   37 1
    40   21   38 1
    41   25   39 1
    42   25   40 1
    43   26   41 1
    44   26   42 1
    45   26   43 1
    46   27   44 1
    47   27   45 1
    48   27   46 1
    49   28   47 1
    50   28   48 1
    51   28   49 1
    52   29   50 1
    53   29   51 1
@<TRIPOS>PROPERTY_DATA
  Total_Score	| 8.2182
  Crash		| -1.0248
  Polar		| 1.2689
  FragIndex	| 1
  FragRMSD	| 0.433

