@<TRIPOS>MOLECULE
BindingDB_50165283
 56 58 0 0 0
SMALL
NO_CHARGES


@<TRIPOS>ATOM
1    N         0.3450   11.6644   24.3622  N     
2    C        -0.2678   11.1377   25.4247  C     
3    C         1.6392   11.2935   24.4112  C     
4    N         1.8518   10.5316   25.5275  N     
5    C         0.6685   10.4229   26.1583  C     
6    C        -1.6142   11.1095   25.8347  C     
7    N         0.3040    9.7355   27.2772  N     
8    C         5.6529   14.2471   24.8988  C     
9    N        -1.9456   10.3980   26.9552  N     
10   C         4.3311   14.7220   24.7412  C     
11   C         6.0071   12.9626   24.4524  C     
12   C         2.5823   11.6589   23.3236  C     
13   C         3.6892   12.5728   23.7565  C     
14   C        -1.0064    9.7348   27.6789  C     
15   C         3.3730   13.8843   24.1604  C     
16   C         5.0331   12.1329   23.8683  C     
17   C         3.0408    9.8228   25.9358  C     
18   N        -2.5582   11.7183   25.1166  N     
19   O         6.5578   14.9686   25.6275  O     
20   O         3.8313   15.8755   25.2536  O     
21   O         7.2842   12.5054   24.6906  O     
22   C         3.0270    8.3673   25.4310  C     
23   O         1.6721    7.8896   25.5177  O     
24   C         1.3397    6.6848   24.7974  C     
25   C         7.6778   15.5090   24.9144  C     
26   C         7.8151   11.5101   23.8188  C     
27   C         4.6692   17.0099   25.5220  C     
28   C         0.1524    6.0175   25.5374  C     
29   C         0.9800    7.0265   23.3289  C     
30   H         2.9667   10.7366   22.8777  H     
31   H         2.0245   12.1709   22.5262  H     
32   H        -1.2860    9.2060   28.5116  H     
33   H         2.4360   14.2215   24.0241  H     
34   H         5.2819   11.1903   23.5806  H     
35   H         3.9289   10.3413   25.5845  H     
36   H         3.1096    9.8005   27.0287  H     
37   H        -3.4909   11.6244   25.3484  H     
38   H        -2.3108   12.2272   24.3240  H     
39   H         3.4142    8.3407   24.4103  H     
40   H         3.6750    7.7505   26.0609  H     
41   H         2.1767    5.9726   24.8107  H     
42   H         8.3776   14.7182   24.7038  H     
43   H         8.1853   16.2072   25.5819  H     
44   H         7.4134   16.0364   24.0010  H     
45   H         7.3459   10.5420   24.0315  H     
46   H         8.8688   11.4031   24.0273  H     
47   H         7.6520   11.7531   22.7614  H     
48   H         5.2949   16.8028   26.4019  H     
49   H         4.0252   17.8249   25.8069  H     
50   H         5.2913   17.3022   24.6533  H     
51   H         0.4123    5.8781   26.5910  H     
52   H        -0.0731    5.0383   25.1035  H     
53   H        -0.7425    6.6443   25.4821  H     
54   H         0.1260    7.7057   23.2855  H     
55   H         0.7419    6.1096   22.7836  H     
56   H         1.8199    7.5162   22.8375  H     
@<TRIPOS>BOND
     1    1    2 1
     2    1    3 2
     3    2    5 1
     4    2    6 2
     5    3    4 1
     6    3   12 1
     7    4    5 1
     8    4   17 1
     9    5    7 2
    10    6    9 1
    11    6   18 1
    12    7   14 1
    13    8   10 2
    14    8   11 1
    15    8   19 1
    16    9   14 2
    17   10   15 1
    18   10   20 1
    19   11   16 2
    20   11   21 1
    21   12   13 1
    22   13   15 2
    23   13   16 1
    24   17   22 1
    25   19   25 1
    26   20   27 1
    27   21   26 1
    28   22   23 1
    29   23   24 1
    30   24   28 1
    31   24   29 1
    32   12   30 1
    33   12   31 1
    34   14   32 1
    35   15   33 1
    36   16   34 1
    37   17   35 1
    38   17   36 1
    39   18   37 1
    40   18   38 1
    41   22   39 1
    42   22   40 1
    43   24   41 1
    44   25   42 1
    45   25   43 1
    46   25   44 1
    47   26   45 1
    48   26   46 1
    49   26   47 1
    50   27   48 1
    51   27   49 1
    52   27   50 1
    53   28   51 1
    54   28   52 1
    55   28   53 1
    56   29   54 1
    57   29   55 1
    58   29   56 1
@<TRIPOS>PROPERTY_DATA
  Total_Score	| 9.1301
  Crash		| -1.2489
  Polar		| 1.2133
  FragIndex	| 1
  FragRMSD	| 0.834

