@<TRIPOS>MOLECULE
BindingDB_29210
 28 30 0 0 0
SMALL
NO_CHARGES


@<TRIPOS>ATOM
1    C        -2.6957   -6.7224  -17.4200  C     
2    C        -2.9302   -5.3376  -17.4580  C     
3    C        -3.9523   -4.8081  -16.6622  C     
4    C        -4.7107   -5.6194  -15.8276  C     
5    C        -4.4977   -7.0244  -15.7479  C     
6    C        -3.4753   -7.5740  -16.5918  C     
7    C        -3.2838   -8.9650  -16.5805  C     
8    N        -5.2225   -7.8949  -14.9069  N     
9    C        -4.9249   -9.2126  -14.8995  C     
10   C        -3.9934   -9.7398  -15.7404  C     
11   O        -5.4940  -10.0141  -14.1659  O     
12   C        -6.2835   -7.3907  -14.0522  C     
13   O        -2.5627   -9.6148  -17.5126  O     
14   C        -1.2315  -10.0233  -17.1550  C     
15   O        -4.3142   -3.5117  -16.5883  O     
16   C        -5.5605   -3.6146  -15.8860  C     
17   O        -5.6088   -4.8550  -15.1647  O     
18   H        -1.9312   -7.0902  -17.9895  H     
19   H        -2.3688   -4.7268  -18.0570  H     
20   H        -3.8677  -10.7282  -15.7747  H     
21   H        -5.8742   -6.6719  -13.3428  H     
22   H        -6.8011   -8.1486  -13.4638  H     
23   H        -7.0469   -6.9065  -14.6620  H     
24   H        -0.5277   -9.3220  -17.6102  H     
25   H        -1.0552  -11.0133  -17.5826  H     
26   H        -1.0526  -10.0806  -16.0716  H     
27   H        -5.6664   -2.7779  -15.1944  H     
28   H        -6.3878   -3.5799  -16.6013  H     
@<TRIPOS>BOND
     1    1    2 1
     2    1    6 2
     3    2    3 2
     4    3    4 1
     5    3   15 1
     6    4    5 2
     7    4   17 1
     8    5    6 1
     9    5    8 1
    10    6    7 1
    11    7   10 2
    12    7   13 1
    13    8    9 1
    14    8   12 1
    15    9   10 1
    16    9   11 2
    17   13   14 1
    18   15   16 1
    19   16   17 1
    20    1   18 1
    21    2   19 1
    22   10   20 1
    23   12   21 1
    24   12   22 1
    25   12   23 1
    26   14   24 1
    27   14   25 1
    28   14   26 1
    29   16   27 1
    30   16   28 1
@<TRIPOS>PROPERTY_DATA
  Total_Score	| 4.4830
  Crash		| -0.2327
  Polar		| 1.1652
  FragIndex	| 1
  FragRMSD	| 0.104

