@<TRIPOS>MOLECULE
BindingDB_29228
 37 38 0 0 0
SMALL
NO_CHARGES


@<TRIPOS>ATOM
1    C        -2.6785   -6.7281  -17.0383  C     
2    C        -3.0276   -5.3508  -17.0631  C     
3    C        -4.0930   -4.8661  -16.2768  C     
4    C        -4.8191   -5.7573  -15.4672  C     
5    C        -4.5209   -7.1338  -15.5019  C     
6    C        -3.4766   -7.6676  -16.3184  C     
7    C        -3.3423   -9.0982  -16.3177  C     
8    N        -5.2890   -7.9857  -14.7471  N     
9    C        -5.1046   -9.2939  -14.7419  C     
10   C        -4.1303   -9.8424  -15.5047  C     
11   O        -5.8422  -10.0091  -14.0850  O     
12   C        -2.3761   -9.8511  -17.1157  C     
13   O        -5.7716   -5.2846  -14.6022  O     
14   C        -7.0543   -5.0415  -15.2020  C     
15   O        -2.4113   -4.4708  -17.9120  O     
16   C        -1.0326   -4.1705  -17.6615  C     
17   O        -1.5624   -7.0833  -17.7531  O     
18   C        -0.4223   -7.4984  -16.9645  C     
19   O        -4.5298   -3.5718  -16.3802  O     
20   C        -3.7341   -2.6027  -15.6713  C     
21   H        -6.0094   -7.6182  -14.2121  H     
22   H        -4.0125  -10.8313  -15.4621  H     
23   H        -2.1863   -9.3902  -18.0859  H     
24   H        -2.7225  -10.8658  -17.3438  H     
25   H        -1.4761   -9.9290  -16.5159  H     
26   H        -6.9862   -4.2191  -15.9198  H     
27   H        -7.7417   -4.7505  -14.4086  H     
28   H        -7.4498   -5.9397  -15.6897  H     
29   H        -0.8430   -3.9325  -16.6183  H     
30   H        -0.7734   -3.3007  -18.2605  H     
31   H        -0.3890   -4.9889  -17.9735  H     
32   H        -0.4931   -7.2779  -15.8921  H     
33   H         0.4481   -6.9666  -17.3306  H     
34   H        -0.2104   -8.5611  -17.1298  H     
35   H        -3.5407   -2.9024  -14.6309  H     
36   H        -4.2881   -1.6581  -15.6437  H     
37   H        -2.7799   -2.4315  -16.1943  H     
@<TRIPOS>BOND
     1    1    2 1
     2    1    6 2
     3    1   17 1
     4    2    3 2
     5    2   15 1
     6    3    4 1
     7    3   19 1
     8    4    5 2
     9    4   13 1
    10    5    6 1
    11    5    8 1
    12    6    7 1
    13    7   10 2
    14    7   12 1
    15    8    9 1
    16    9   10 1
    17    9   11 2
    18   13   14 1
    19   15   16 1
    20   17   18 1
    21   19   20 1
    22    8   21 1
    23   10   22 1
    24   12   23 1
    25   12   24 1
    26   12   25 1
    27   14   26 1
    28   14   27 1
    29   14   28 1
    30   16   29 1
    31   16   30 1
    32   16   31 1
    33   18   32 1
    34   18   33 1
    35   18   34 1
    36   20   35 1
    37   20   36 1
    38   20   37 1
@<TRIPOS>PROPERTY_DATA
  Total_Score	| 3.2728
  Crash		| -1.9769
  Polar		| 1.1911
  FragIndex	| 1
  FragRMSD	| 0.411

