@<TRIPOS>MOLECULE
BindingDB_29217
 28 29 0 0 0
SMALL
NO_CHARGES


@<TRIPOS>ATOM
1    C        -2.5782   -6.8155  -17.5154  C     
2    C        -2.8355   -5.4512  -17.6546  C     
3    C        -3.8510   -4.8669  -16.8986  C     
4    C        -4.6322   -5.6205  -15.9905  C     
5    C        -4.3941   -7.0321  -15.8439  C     
6    C        -3.3366   -7.6220  -16.6304  C     
7    C        -3.0660   -9.0083  -16.5062  C     
8    N        -5.1152   -7.8925  -14.9683  N     
9    C        -4.7966   -9.2072  -14.9030  C     
10   C        -3.8011   -9.7477  -15.6510  C     
11   O        -5.3845   -9.9946  -14.1689  O     
12   C        -2.0048   -9.6811  -17.2717  C     
13   C        -6.2029   -7.4113  -14.1275  C     
14   O        -5.6316   -5.0020  -15.2683  O     
15   C        -6.0910   -3.6520  -15.4432  C     
16   H        -1.8243   -7.1997  -18.0923  H     
17   H        -2.2727   -4.8844  -18.2955  H     
18   H        -4.0013   -3.8676  -17.0026  H     
19   H        -3.6138  -10.7246  -15.5592  H     
20   H        -2.1966   -9.5689  -18.3398  H     
21   H        -1.9208  -10.7526  -17.0698  H     
22   H        -1.0364   -9.2323  -17.0432  H     
23   H        -5.8275   -6.6515  -13.4384  H     
24   H        -6.6869   -8.1656  -13.4985  H     
25   H        -6.9929   -6.9952  -14.7565  H     
26   H        -5.2797   -2.9436  -15.2663  H     
27   H        -6.8840   -3.4658  -14.7191  H     
28   H        -6.5011   -3.5156  -16.4429  H     
@<TRIPOS>BOND
     1    1    2 1
     2    1    6 2
     3    2    3 2
     4    3    4 1
     5    4    5 2
     6    4   14 1
     7    5    6 1
     8    5    8 1
     9    6    7 1
    10    7   10 2
    11    7   12 1
    12    8    9 1
    13    8   13 1
    14    9   10 1
    15    9   11 2
    16   14   15 1
    17    1   16 1
    18    2   17 1
    19    3   18 1
    20   10   19 1
    21   12   20 1
    22   12   21 1
    23   12   22 1
    24   13   23 1
    25   13   24 1
    26   13   25 1
    27   15   26 1
    28   15   27 1
    29   15   28 1
@<TRIPOS>PROPERTY_DATA
  Total_Score	| 4.1040
  Crash		| -0.2859
  Polar		| 1.1601
  FragIndex	| 1
  FragRMSD	| 0.211

