@<TRIPOS>MOLECULE
BindingDB_29219
 32 33 0 0 0
SMALL
NO_CHARGES


@<TRIPOS>ATOM
1    C        -2.7068   -6.6963  -17.5105  C     
2    C        -2.9009   -5.3135  -17.4895  C     
3    C        -3.7604   -4.7459  -16.5440  C     
4    C        -4.5451   -5.5770  -15.7122  C     
5    C        -4.3613   -7.0023  -15.7065  C     
6    C        -3.3777   -7.5499  -16.6012  C     
7    C        -3.0806   -8.9350  -16.5469  C     
8    N        -5.0623   -7.9117  -14.8691  N     
9    C        -4.7609   -9.2291  -14.9046  C     
10   C        -3.7866   -9.7226  -15.7102  C     
11   O        -5.3422  -10.0643  -14.2149  O     
12   C        -1.9912   -9.5385  -17.3258  C     
13   O        -5.3655   -4.9205  -14.8291  O     
14   C        -6.6415   -4.4889  -15.3415  C     
15   O        -3.8711   -3.3829  -16.4486  O     
16   C        -2.7415   -2.7339  -15.8335  C     
17   C        -6.1214   -7.4733  -13.9743  C     
18   H        -2.0394   -7.0585  -18.1911  H     
19   H        -2.3744   -4.7166  -18.1298  H     
20   H        -3.5830  -10.6985  -15.6642  H     
21   H        -2.2052   -9.4495  -18.3894  H     
22   H        -1.8234  -10.5948  -17.1115  H     
23   H        -1.0563   -9.0192  -17.1132  H     
24   H        -6.5466   -3.7548  -16.1405  H     
25   H        -7.1884   -4.0241  -14.5220  H     
26   H        -7.2308   -5.3279  -15.7117  H     
27   H        -2.4426   -3.2205  -14.8966  H     
28   H        -3.0245   -1.7070  -15.6090  H     
29   H        -1.8873   -2.7152  -16.5193  H     
30   H        -5.7215   -6.7781  -13.2354  H     
31   H        -6.6158   -8.2634  -13.4096  H     
32   H        -6.9147   -6.9994  -14.5472  H     
@<TRIPOS>BOND
     1    1    2 1
     2    1    6 2
     3    2    3 2
     4    3    4 1
     5    3   15 1
     6    4    5 2
     7    4   13 1
     8    5    6 1
     9    5    8 1
    10    6    7 1
    11    7   10 2
    12    7   12 1
    13    8    9 1
    14    8   17 1
    15    9   10 1
    16    9   11 2
    17   13   14 1
    18   15   16 1
    19    1   18 1
    20    2   19 1
    21   10   20 1
    22   12   21 1
    23   12   22 1
    24   12   23 1
    25   14   24 1
    26   14   25 1
    27   14   26 1
    28   16   27 1
    29   16   28 1
    30   16   29 1
    31   17   30 1
    32   17   31 1
    33   17   32 1
@<TRIPOS>PROPERTY_DATA
  Total_Score	| 3.5709
  Crash		| -0.6242
  Polar		| 1.1208
  FragIndex	| 1
  FragRMSD	| 0.230

