@<TRIPOS>MOLECULE
BindingDB_29225
 36 37 0 0 0
SMALL
NO_CHARGES


@<TRIPOS>ATOM
1    C        -2.7406   -6.8690  -17.4554  C     
2    C        -2.9437   -5.4795  -17.4494  C     
3    C        -3.7904   -4.8987  -16.4895  C     
4    C        -4.3833   -5.7210  -15.5049  C     
5    C        -4.3171   -7.1432  -15.5928  C     
6    C        -3.3915   -7.7163  -16.5232  C     
7    C        -3.1171   -9.1044  -16.4372  C     
8    N        -5.0907   -8.0131  -14.7997  N     
9    C        -4.7834   -9.3255  -14.7635  C     
10   C        -3.7988   -9.8524  -15.5425  C     
11   O        -5.3835  -10.1144  -14.0422  O     
12   C        -2.0477   -9.7350  -17.2195  C     
13   O        -4.9363   -5.0851  -14.4273  O     
14   C        -3.9427   -4.5994  -13.5033  C     
15   O        -3.9004   -3.5288  -16.4706  O     
16   O        -2.2857   -4.6965  -18.3592  O     
17   C        -1.0324   -4.1820  -17.8739  C     
18   C        -5.1886   -2.9985  -16.1179  C     
19   C        -6.3046   -7.5429  -14.1479  C     
20   H        -2.0936   -7.2460  -18.1506  H     
21   H        -3.5928  -10.8242  -15.4515  H     
22   H        -2.2504   -9.6249  -18.2845  H     
23   H        -1.9292  -10.8032  -17.0214  H     
24   H        -1.0937   -9.2550  -16.9918  H     
25   H        -3.3999   -5.4300  -13.0427  H     
26   H        -4.4519   -4.0422  -12.7174  H     
27   H        -3.2315   -3.9222  -13.9845  H     
28   H        -1.1562   -3.6111  -16.9498  H     
29   H        -0.6274   -3.5108  -18.6300  H     
30   H        -0.3142   -4.9897  -17.7102  H     
31   H        -6.0038   -3.5275  -16.6122  H     
32   H        -5.2227   -1.9516  -16.4263  H     
33   H        -5.3440   -3.0355  -15.0388  H     
34   H        -6.0510   -6.9687  -13.2577  H     
35   H        -6.9833   -8.3377  -13.8307  H     
36   H        -6.8796   -6.9106  -14.8292  H     
@<TRIPOS>BOND
     1    1    2 1
     2    1    6 2
     3    2    3 2
     4    2   16 1
     5    3    4 1
     6    3   15 1
     7    4    5 2
     8    4   13 1
     9    5    6 1
    10    5    8 1
    11    6    7 1
    12    7   10 2
    13    7   12 1
    14    8    9 1
    15    8   19 1
    16    9   10 1
    17    9   11 2
    18   13   14 1
    19   15   18 1
    20   16   17 1
    21    1   20 1
    22   10   21 1
    23   12   22 1
    24   12   23 1
    25   12   24 1
    26   14   25 1
    27   14   26 1
    28   14   27 1
    29   17   28 1
    30   17   29 1
    31   17   30 1
    32   18   31 1
    33   18   32 1
    34   18   33 1
    35   19   34 1
    36   19   35 1
    37   19   36 1
@<TRIPOS>PROPERTY_DATA
  Total_Score	| 4.1224
  Crash		| -1.0293
  Polar		| 1.0727
  FragIndex	| 1
  FragRMSD	| 0.306

