@<TRIPOS>MOLECULE
BindingDB_29218
 29 30 0 0 0
SMALL
NO_CHARGES


@<TRIPOS>ATOM
1    C        -2.5877   -6.7892  -17.5241  C     
2    C        -2.8595   -5.4100  -17.5036  C     
3    C        -3.8283   -4.8763  -16.6280  C     
4    C        -4.5728   -5.7312  -15.7850  C     
5    C        -4.2819   -7.1133  -15.8261  C     
6    C        -3.2863   -7.6772  -16.6731  C     
7    C        -3.0536   -9.0789  -16.5838  C     
8    N        -4.9626   -7.9397  -15.0087  N     
9    C        -4.7806   -9.2497  -14.9695  C     
10   C        -3.8195   -9.8256  -15.7482  C     
11   O        -5.4841   -9.9147  -14.2233  O     
12   C        -1.9752   -9.7187  -17.3371  C     
13   O        -5.4207   -5.1627  -14.8507  O     
14   C        -6.5614   -4.3619  -15.2458  C     
15   O        -4.0499   -3.5251  -16.6207  O     
16   C        -3.1434   -2.8040  -15.7687  C     
17   H        -1.8677   -7.1291  -18.1641  H     
18   H        -2.3225   -4.7872  -18.1091  H     
19   H        -5.6228   -7.5208  -14.4622  H     
20   H        -3.6769  -10.8075  -15.6708  H     
21   H        -2.1297   -9.5678  -18.4043  H     
22   H        -1.9029  -10.7960  -17.1637  H     
23   H        -1.0178   -9.2750  -17.0553  H     
24   H        -6.3655   -3.8144  -16.1732  H     
25   H        -6.7279   -3.6261  -14.4573  H     
26   H        -7.5002   -4.9486  -15.3433  H     
27   H        -3.2835   -3.0755  -14.7206  H     
28   H        -3.3476   -1.7400  -15.8759  H     
29   H        -2.1030   -2.9818  -16.0491  H     
@<TRIPOS>BOND
     1    1    2 1
     2    1    6 2
     3    2    3 2
     4    3    4 1
     5    3   15 1
     6    4    5 2
     7    4   13 1
     8    5    6 1
     9    5    8 1
    10    6    7 1
    11    7   10 2
    12    7   12 1
    13    8    9 1
    14    9   10 1
    15    9   11 2
    16   13   14 1
    17   15   16 1
    18    1   17 1
    19    2   18 1
    20    8   19 1
    21   10   20 1
    22   12   21 1
    23   12   22 1
    24   12   23 1
    25   14   24 1
    26   14   25 1
    27   14   26 1
    28   16   27 1
    29   16   28 1
    30   16   29 1
@<TRIPOS>PROPERTY_DATA
  Total_Score	| 3.2539
  Crash		| -0.2938
  Polar		| 1.1864
  FragIndex	| 1
  FragRMSD	| 0.420

