@<TRIPOS>MOLECULE
BindingDB_29229
 40 41 0 0 0
SMALL
NO_CHARGES


@<TRIPOS>ATOM
1    C        -2.5728   -6.7595  -17.0933  C     
2    C        -2.8156   -5.3762  -17.1826  C     
3    C        -3.8446   -4.7995  -16.4261  C     
4    C        -4.6709   -5.6058  -15.6120  C     
5    C        -4.4851   -7.0271  -15.5456  C     
6    C        -3.4582   -7.6123  -16.3687  C     
7    C        -3.3204   -9.0292  -16.3718  C     
8    N        -5.2156   -7.8921  -14.6860  N     
9    C        -4.9113   -9.2066  -14.6386  C     
10   C        -3.9758   -9.7547  -15.4445  C     
11   O        -5.4887  -10.0034  -13.9055  O     
12   C        -2.5572   -9.8095  -17.3534  C     
13   O        -5.5448   -4.9206  -14.8012  O     
14   C        -6.7629   -4.4438  -15.4061  C     
15   O        -2.1239   -4.5713  -18.0504  O     
16   C        -0.8731   -4.0295  -17.5976  C     
17   O        -1.3979   -7.1873  -17.6517  O     
18   C        -0.3429   -7.4483  -16.6998  C     
19   O        -4.0724   -3.4488  -16.5235  O     
20   C        -3.4364   -2.6347  -15.5234  C     
21   C        -6.2886   -7.4118  -13.8311  C     
22   H        -3.8239  -10.7400  -15.3918  H     
23   H        -2.3837   -9.2719  -18.2854  H     
24   H        -3.0909  -10.7224  -17.6460  H     
25   H        -1.6027  -10.1077  -16.9100  H     
26   H        -6.5811   -3.7031  -16.1883  H     
27   H        -7.3616   -3.9687  -14.6264  H     
28   H        -7.3431   -5.2668  -15.8250  H     
29   H        -0.8193   -3.8872  -16.5141  H     
30   H        -0.7291   -3.0626  -18.0824  H     
31   H        -0.0607   -4.6795  -17.9109  H     
32   H        -0.5727   -7.1820  -15.6609  H     
33   H         0.5474   -6.8953  -16.9959  H     
34   H        -0.0947   -8.5086  -16.7430  H     
35   H        -3.5381   -3.0402  -14.5107  H     
36   H        -3.9093   -1.6516  -15.5459  H     
37   H        -2.3792   -2.5006  -15.7602  H     
38   H        -5.9024   -6.6696  -13.1330  H     
39   H        -6.7820   -8.1689  -13.2235  H     
40   H        -7.0787   -6.9818  -14.4416  H     
@<TRIPOS>BOND
     1    1    2 1
     2    1    6 2
     3    1   17 1
     4    2    3 2
     5    2   15 1
     6    3    4 1
     7    3   19 1
     8    4    5 2
     9    4   13 1
    10    5    6 1
    11    5    8 1
    12    6    7 1
    13    7   10 2
    14    7   12 1
    15    8    9 1
    16    8   21 1
    17    9   10 1
    18    9   11 2
    19   13   14 1
    20   15   16 1
    21   17   18 1
    22   19   20 1
    23   10   22 1
    24   12   23 1
    25   12   24 1
    26   12   25 1
    27   14   26 1
    28   14   27 1
    29   14   28 1
    30   16   29 1
    31   16   30 1
    32   16   31 1
    33   18   32 1
    34   18   33 1
    35   18   34 1
    36   20   35 1
    37   20   36 1
    38   20   37 1
    39   21   38 1
    40   21   39 1
    41   21   40 1
@<TRIPOS>PROPERTY_DATA
  Total_Score	| 4.0865
  Crash		| -2.0252
  Polar		| 1.1291
  FragIndex	| 1
  FragRMSD	| 0.509

