@<TRIPOS>MOLECULE
BindingDB_29213
 27 29 0 0 0
SMALL
NO_CHARGES


@<TRIPOS>ATOM
1    C        -2.6731   -6.7623  -17.4521  C     
2    C        -2.9689   -5.3934  -17.5376  C     
3    C        -4.0145   -4.8839  -16.7640  C     
4    C        -4.7567   -5.7059  -15.9283  C     
5    C        -4.4824   -7.0977  -15.8030  C     
6    C        -3.4077   -7.6304  -16.5945  C     
7    C        -3.1090   -9.0111  -16.4916  C     
8    N        -5.1907   -7.9635  -14.9464  N     
9    C        -4.8475   -9.2685  -14.8947  C     
10   C        -3.8369   -9.7790  -15.6525  C     
11   O        -5.4214  -10.0674  -14.1621  O     
12   O        -4.4128   -3.5984  -16.7266  O     
13   C        -5.3619   -3.6240  -15.6528  C     
14   O        -5.7153   -4.9744  -15.3185  O     
15   C        -2.0271   -9.6353  -17.2625  C     
16   C        -6.2768   -7.4673  -14.1145  C     
17   H        -1.9039   -7.1070  -18.0282  H     
18   H        -2.4253   -4.7788  -18.1479  H     
19   H        -3.6310  -10.7527  -15.5734  H     
20   H        -4.9258   -3.1389  -14.7744  H     
21   H        -6.2604   -3.0757  -15.9444  H     
22   H        -2.2032   -9.4946  -18.3306  H     
23   H        -1.9256  -10.7100  -17.0910  H     
24   H        -1.0734   -9.1748  -16.9969  H     
25   H        -5.9002   -6.6987  -13.4366  H     
26   H        -6.7611   -8.2185  -13.4893  H     
27   H        -7.0606   -7.0450  -14.7463  H     
@<TRIPOS>BOND
     1    1    2 1
     2    1    6 2
     3    2    3 2
     4    3    4 1
     5    3   12 1
     6    4    5 2
     7    4   14 1
     8    5    6 1
     9    5    8 1
    10    6    7 1
    11    7   10 2
    12    7   15 1
    13    8    9 1
    14    8   16 1
    15    9   10 1
    16    9   11 2
    17   12   13 1
    18   13   14 1
    19    1   17 1
    20    2   18 1
    21   10   19 1
    22   13   20 1
    23   13   21 1
    24   15   22 1
    25   15   23 1
    26   15   24 1
    27   16   25 1
    28   16   26 1
    29   16   27 1
@<TRIPOS>PROPERTY_DATA
  Total_Score	| 4.0138
  Crash		| -0.2495
  Polar		| 1.1196
  FragIndex	| 1
  FragRMSD	| 0.083

