@<TRIPOS>MOLECULE
BindingDB_29222
 29 30 0 0 0
SMALL
NO_CHARGES


@<TRIPOS>ATOM
1    C        -2.5858   -6.6881  -17.1881  C     
2    C        -2.9991   -5.3633  -17.3974  C     
3    C        -4.1767   -4.8883  -16.8154  C     
4    C        -4.9856   -5.7239  -16.0281  C     
5    C        -4.6135   -7.0828  -15.8870  C     
6    C        -3.4278   -7.6116  -16.5010  C     
7    C        -3.1707   -9.0107  -16.3734  C     
8    N        -5.3855   -7.9396  -15.1382  N     
9    C        -5.0799   -9.2285  -14.9876  C     
10   C        -4.0050   -9.7636  -15.6187  C     
11   O        -5.8115   -9.9309  -14.2987  O     
12   C        -2.0898   -9.6774  -17.0997  C     
13   O        -6.1471   -5.3240  -15.3828  O     
14   C        -6.4651   -3.9330  -15.2299  C     
15   O        -1.3322   -7.0100  -17.6179  O     
16   C        -0.3023   -6.2936  -16.9066  C     
17   H        -2.4224   -4.7086  -17.9265  H     
18   H        -4.4058   -3.9042  -16.9511  H     
19   H        -6.1707   -7.5991  -14.6888  H     
20   H        -3.8332  -10.7420  -15.5201  H     
21   H        -2.1098   -9.3798  -18.1485  H     
22   H        -2.1579  -10.7635  -17.0733  H     
23   H        -1.1378   -9.4035  -16.6550  H     
24   H        -5.6845   -3.4093  -14.6838  H     
25   H        -7.3947   -3.8474  -14.6659  H     
26   H        -6.6198   -3.4494  -16.1966  H     
27   H        -0.1795   -5.2971  -17.3409  H     
28   H         0.6312   -6.8459  -17.0254  H     
29   H        -0.4921   -6.2046  -15.8290  H     
@<TRIPOS>BOND
     1    1    2 1
     2    1    6 2
     3    1   15 1
     4    2    3 2
     5    3    4 1
     6    4    5 2
     7    4   13 1
     8    5    6 1
     9    5    8 1
    10    6    7 1
    11    7   10 2
    12    7   12 1
    13    8    9 1
    14    9   10 1
    15    9   11 2
    16   13   14 1
    17   15   16 1
    18    2   17 1
    19    3   18 1
    20    8   19 1
    21   10   20 1
    22   12   21 1
    23   12   22 1
    24   12   23 1
    25   14   24 1
    26   14   25 1
    27   14   26 1
    28   16   27 1
    29   16   28 1
    30   16   29 1
@<TRIPOS>PROPERTY_DATA
  Total_Score	| 3.5995
  Crash		| -0.8207
  Polar		| 1.1990
  FragIndex	| 1
  FragRMSD	| 0.432

