@<TRIPOS>MOLECULE
BindingDB_29226
 33 34 0 0 0
SMALL
NO_CHARGES


@<TRIPOS>ATOM
1    C        -2.5749   -7.0241  -17.3102  C     
2    C        -2.8687   -5.6641  -17.5250  C     
3    C        -4.0094   -5.0868  -16.9154  C     
4    C        -4.8358   -5.8334  -16.0601  C     
5    C        -4.5527   -7.2174  -15.9006  C     
6    C        -3.4631   -7.8550  -16.5710  C     
7    C        -3.3216   -9.2699  -16.4297  C     
8    N        -5.3232   -7.9820  -15.0577  N     
9    C        -5.1070   -9.2783  -14.8722  C     
10   C        -4.1199   -9.9170  -15.5459  C     
11   O        -5.8130   -9.8828  -14.0782  O     
12   C        -2.4038  -10.0989  -17.2149  C     
13   O        -5.9258   -5.3250  -15.3642  O     
14   C        -6.2472   -3.9190  -15.3954  C     
15   O        -2.0765   -4.9104  -18.3577  O     
16   C        -1.1692   -4.0126  -17.6855  C     
17   O        -1.3919   -7.4867  -17.8217  O     
18   C        -0.4067   -7.7907  -16.8078  C     
19   H        -4.1891   -4.1011  -17.0854  H     
20   H        -6.0367   -7.5479  -14.5609  H     
21   H        -3.9979  -10.8876  -15.3731  H     
22   H        -2.3309   -9.7417  -18.2408  H     
23   H        -2.7200  -11.1458  -17.2838  H     
24   H        -1.4154  -10.0910  -16.7563  H     
25   H        -5.4496   -3.3275  -14.9486  H     
26   H        -7.1497   -3.7392  -14.7990  H     
27   H        -6.4434   -3.5833  -16.4175  H     
28   H        -1.7142   -3.1937  -17.2098  H     
29   H        -0.4961   -3.5820  -18.4265  H     
30   H        -0.5689   -4.5327  -16.9327  H     
31   H         0.1763   -6.8991  -16.5592  H     
32   H         0.2728   -8.5361  -17.2258  H     
33   H        -0.8262   -8.2111  -15.8823  H     
@<TRIPOS>BOND
     1    1    2 1
     2    1    6 2
     3    1   17 1
     4    2    3 2
     5    2   15 1
     6    3    4 1
     7    4    5 2
     8    4   13 1
     9    5    6 1
    10    5    8 1
    11    6    7 1
    12    7   10 2
    13    7   12 1
    14    8    9 1
    15    9   10 1
    16    9   11 2
    17   13   14 1
    18   15   16 1
    19   17   18 1
    20    3   19 1
    21    8   20 1
    22   10   21 1
    23   12   22 1
    24   12   23 1
    25   12   24 1
    26   14   25 1
    27   14   26 1
    28   14   27 1
    29   16   28 1
    30   16   29 1
    31   16   30 1
    32   18   31 1
    33   18   32 1
    34   18   33 1
@<TRIPOS>PROPERTY_DATA
  Total_Score	| 4.3751
  Crash		| -1.1541
  Polar		| 1.1468
  FragIndex	| 1
  FragRMSD	| 0.418

