@<TRIPOS>MOLECULE
BindingDB_29212
 24 26 0 0 0
SMALL
NO_CHARGES


@<TRIPOS>ATOM
1    C        -2.6041   -6.7580  -17.4675  C     
2    C        -2.9057   -5.3820  -17.5013  C     
3    C        -3.9492   -4.8896  -16.7021  C     
4    C        -4.6779   -5.7366  -15.8835  C     
5    C        -4.3834   -7.1109  -15.8298  C     
6    C        -3.3317   -7.6514  -16.6309  C     
7    C        -3.0848   -9.0469  -16.5333  C     
8    N        -5.0983   -7.9416  -15.0147  N     
9    C        -4.8483   -9.2433  -14.9533  C     
10   C        -3.8520   -9.8000  -15.7035  C     
11   O        -5.5298   -9.9327  -14.2090  O     
12   O        -4.3635   -3.6131  -16.5943  O     
13   C        -5.5666   -3.7695  -15.8188  C     
14   O        -5.6210   -5.0653  -15.1927  O     
15   C        -2.0186   -9.6860  -17.3059  C     
16   H        -1.8453   -7.0940  -18.0642  H     
17   H        -2.3694   -4.7497  -18.0985  H     
18   H        -5.8110   -7.5716  -14.4688  H     
19   H        -3.6923  -10.7790  -15.6196  H     
20   H        -5.6121   -2.9936  -15.0525  H     
21   H        -6.4328   -3.6488  -16.4760  H     
22   H        -2.2040   -9.5479  -18.3720  H     
23   H        -1.9346  -10.7600  -17.1219  H     
24   H        -1.0559   -9.2343  -17.0572  H     
@<TRIPOS>BOND
     1    1    2 1
     2    1    6 2
     3    2    3 2
     4    3    4 1
     5    3   12 1
     6    4    5 2
     7    4   14 1
     8    5    6 1
     9    5    8 1
    10    6    7 1
    11    7   10 2
    12    7   15 1
    13    8    9 1
    14    9   10 1
    15    9   11 2
    16   12   13 1
    17   13   14 1
    18    1   16 1
    19    2   17 1
    20    8   18 1
    21   10   19 1
    22   13   20 1
    23   13   21 1
    24   15   22 1
    25   15   23 1
    26   15   24 1
@<TRIPOS>PROPERTY_DATA
  Total_Score	| 3.5766
  Crash		| -0.1227
  Polar		| 1.1880
  FragIndex	| 1
  FragRMSD	| 0.097

