@<TRIPOS>MOLECULE
BindingDB_29221
 32 33 0 0 0
SMALL
NO_CHARGES


@<TRIPOS>ATOM
1    C        -2.5485   -6.8583  -17.4448  C     
2    C        -2.7792   -5.4827  -17.5746  C     
3    C        -3.8142   -4.8923  -16.8560  C     
4    C        -4.6383   -5.6460  -15.9887  C     
5    C        -4.4051   -7.0529  -15.8249  C     
6    C        -3.3479   -7.6573  -16.5911  C     
7    C        -3.1366   -9.0574  -16.4899  C     
8    N        -5.1578   -7.8977  -14.9543  N     
9    C        -4.8980   -9.2266  -14.9152  C     
10   C        -3.9154   -9.7887  -15.6641  C     
11   O        -5.5261  -10.0037  -14.1986  O     
12   C        -2.0953   -9.7536  -17.2466  C     
13   O        -5.7103   -5.0372  -15.3734  O     
14   C        -6.0350   -3.6329  -15.5412  C     
15   O        -2.0213   -4.7307  -18.4330  O     
16   C        -0.9066   -4.0790  -17.7878  C     
17   C        -6.2078   -7.3785  -14.0768  C     
18   H        -1.7945   -7.2723  -17.9937  H     
19   H        -3.9707   -3.8907  -16.9846  H     
20   H        -3.7688  -10.7712  -15.5742  H     
21   H        -2.2375   -9.6011  -18.3136  H     
22   H        -2.0578  -10.8295  -17.0815  H     
23   H        -1.1158   -9.3560  -16.9642  H     
24   H        -5.1604   -3.0035  -15.3286  H     
25   H        -6.8262   -3.3914  -14.8366  H     
26   H        -6.4040   -3.4447  -16.5626  H     
27   H        -1.2161   -3.5208  -16.8972  H     
28   H        -0.4566   -3.3684  -18.4823  H     
29   H        -0.1481   -4.8236  -17.5131  H     
30   H        -5.7990   -6.6184  -13.4070  H     
31   H        -6.6931   -8.1256  -13.4283  H     
32   H        -7.0201   -6.9534  -14.6832  H     
@<TRIPOS>BOND
     1    1    2 1
     2    1    6 2
     3    2    3 2
     4    2   15 1
     5    3    4 1
     6    4    5 2
     7    4   13 1
     8    5    6 1
     9    5    8 1
    10    6    7 1
    11    7   10 2
    12    7   12 1
    13    8    9 1
    14    8   17 1
    15    9   10 1
    16    9   11 2
    17   13   14 1
    18   15   16 1
    19    1   18 1
    20    3   19 1
    21   10   20 1
    22   12   21 1
    23   12   22 1
    24   12   23 1
    25   14   24 1
    26   14   25 1
    27   14   26 1
    28   16   27 1
    29   16   28 1
    30   16   29 1
    31   17   30 1
    32   17   31 1
    33   17   32 1
@<TRIPOS>PROPERTY_DATA
  Total_Score	| 4.8519
  Crash		| -0.6010
  Polar		| 1.1748
  FragIndex	| 1
  FragRMSD	| 0.204

