@<TRIPOS>MOLECULE
BindingDB_29224
 33 34 0 0 0
SMALL
NO_CHARGES


@<TRIPOS>ATOM
1    C        -2.5518   -6.8109  -17.4611  C     
2    C        -2.7535   -5.4164  -17.4294  C     
3    C        -3.7423   -4.8372  -16.5937  C     
4    C        -4.4663   -5.6961  -15.7228  C     
5    C        -4.2408   -7.0938  -15.7492  C     
6    C        -3.2820   -7.6804  -16.6202  C     
7    C        -3.0966   -9.0896  -16.5597  C     
8    N        -4.9467   -7.9175  -14.9104  N     
9    C        -4.7905   -9.2341  -14.9069  C     
10   C        -3.8690   -9.8229  -15.7197  C     
11   O        -5.4812   -9.8952  -14.1460  O     
12   C        -2.0604   -9.7557  -17.3508  C     
13   O        -5.2781   -5.2170  -14.7321  O     
14   C        -6.6607   -5.1593  -15.0956  C     
15   O        -3.7864   -3.4566  -16.6231  O     
16   O        -1.9517   -4.6611  -18.2481  O     
17   C        -0.9640   -3.8745  -17.5572  C     
18   C        -4.8496   -2.5787  -16.1974  C     
19   H        -1.8427   -7.1800  -18.0971  H     
20   H        -5.5978   -7.5278  -14.3047  H     
21   H        -3.7517  -10.8099  -15.6587  H     
22   H        -2.2347   -9.5829  -18.4131  H     
23   H        -2.0209  -10.8363  -17.1943  H     
24   H        -1.0805   -9.3521  -17.0861  H     
25   H        -6.7877   -4.3355  -15.7790  H     
26   H        -7.2387   -4.9552  -14.1949  H     
27   H        -7.0398   -6.0791  -15.5477  H     
28   H        -0.2768   -3.4526  -18.2910  H     
29   H        -0.3832   -4.4675  -16.8473  H     
30   H        -1.4365   -3.0442  -17.0309  H     
31   H        -5.8579   -2.9000  -16.5231  H     
32   H        -4.6585   -1.6003  -16.6412  H     
33   H        -4.8139   -2.4488  -15.1104  H     
@<TRIPOS>BOND
     1    1    2 1
     2    1    6 2
     3    2    3 2
     4    2   16 1
     5    3    4 1
     6    3   15 1
     7    4    5 2
     8    4   13 1
     9    5    6 1
    10    5    8 1
    11    6    7 1
    12    7   10 2
    13    7   12 1
    14    8    9 1
    15    9   10 1
    16    9   11 2
    17   13   14 1
    18   15   18 1
    19   16   17 1
    20    1   19 1
    21    8   20 1
    22   10   21 1
    23   12   22 1
    24   12   23 1
    25   12   24 1
    26   14   25 1
    27   14   26 1
    28   14   27 1
    29   17   28 1
    30   17   29 1
    31   17   30 1
    32   18   31 1
    33   18   32 1
    34   18   33 1
@<TRIPOS>PROPERTY_DATA
  Total_Score	| 3.8953
  Crash		| -0.8070
  Polar		| 1.1744
  FragIndex	| 1
  FragRMSD	| 0.598

