@<TRIPOS>MOLECULE
BindingDB_29223
 32 33 0 0 0
SMALL
NO_CHARGES


@<TRIPOS>ATOM
1    C        -2.6117   -6.6835  -17.1625  C     
2    C        -2.9911   -5.3617  -17.4257  C     
3    C        -4.1371   -4.8421  -16.8333  C     
4    C        -4.9337   -5.6276  -15.9691  C     
5    C        -4.6311   -7.0202  -15.7755  C     
6    C        -3.4688   -7.5609  -16.4355  C     
7    C        -3.2184   -8.9599  -16.3448  C     
8    N        -5.3964   -7.9016  -14.9629  N     
9    C        -5.0732   -9.2129  -14.9011  C     
10   C        -4.0278   -9.7270  -15.5835  C     
11   O        -5.7106  -10.0310  -14.2433  O     
12   C        -2.1614   -9.6559  -17.0893  C     
13   O        -5.9812   -5.0403  -15.2867  O     
14   C        -6.3262   -3.6465  -15.4036  C     
15   O        -1.3627   -7.0349  -17.5983  O     
16   C        -0.3198   -6.4409  -16.7986  C     
17   C        -6.5168   -7.4468  -14.1503  C     
18   H        -2.4055   -4.7547  -18.0039  H     
19   H        -4.3600   -3.8584  -16.9929  H     
20   H        -3.8559  -10.7099  -15.5161  H     
21   H        -2.1915   -9.3798  -18.1467  H     
22   H        -2.2382  -10.7453  -17.0517  H     
23   H        -1.1825   -9.4031  -16.6765  H     
24   H        -5.5120   -3.0073  -15.0385  H     
25   H        -7.2306   -3.4374  -14.8134  H     
26   H        -6.5620   -3.3986  -16.4386  H     
27   H        -0.2373   -5.3678  -17.0055  H     
28   H         0.6257   -6.9126  -17.0546  H     
29   H        -0.4724   -6.5816  -15.7185  H     
30   H        -6.1881   -6.6828  -13.4479  H     
31   H        -7.0054   -8.2104  -13.5446  H     
32   H        -7.2972   -7.0503  -14.8026  H     
@<TRIPOS>BOND
     1    1    2 1
     2    1    6 2
     3    1   15 1
     4    2    3 2
     5    3    4 1
     6    4    5 2
     7    4   13 1
     8    5    6 1
     9    5    8 1
    10    6    7 1
    11    7   10 2
    12    7   12 1
    13    8    9 1
    14    8   17 1
    15    9   10 1
    16    9   11 2
    17   13   14 1
    18   15   16 1
    19    2   18 1
    20    3   19 1
    21   10   20 1
    22   12   21 1
    23   12   22 1
    24   12   23 1
    25   14   24 1
    26   14   25 1
    27   14   26 1
    28   16   27 1
    29   16   28 1
    30   16   29 1
    31   17   30 1
    32   17   31 1
    33   17   32 1
@<TRIPOS>PROPERTY_DATA
  Total_Score	| 3.9001
  Crash		| -1.0078
  Polar		| 1.1757
  FragIndex	| 1
  FragRMSD	| 0.338

