@<TRIPOS>MOLECULE
BindingDB_29227
 36 37 0 0 0
SMALL
NO_CHARGES


@<TRIPOS>ATOM
1    C        -2.6335   -6.9430  -17.3465  C     
2    C        -2.8852   -5.5688  -17.5282  C     
3    C        -3.9564   -4.9865  -16.8384  C     
4    C        -4.7710   -5.7462  -15.9719  C     
5    C        -4.6252   -7.1686  -15.9183  C     
6    C        -3.5277   -7.7842  -16.6159  C     
7    C        -3.3081   -9.1870  -16.4352  C     
8    N        -5.4563   -7.9946  -15.1334  N     
9    C        -5.0597   -9.2493  -14.8397  C     
10   C        -4.0129   -9.8320  -15.4807  C     
11   O        -5.6685   -9.9526  -14.0393  O     
12   C        -2.3643  -10.0068  -17.2236  C     
13   O        -5.5727   -5.1019  -15.0517  O     
14   C        -6.0818   -3.7832  -15.3131  C     
15   O        -2.0670   -4.8317  -18.3566  O     
16   C        -1.1571   -3.9038  -17.7289  C     
17   O        -1.4055   -7.3796  -17.7550  O     
18   C        -0.5126   -7.5044  -16.6301  C     
19   C        -6.7919   -7.5851  -14.7240  C     
20   H        -4.0912   -3.9781  -16.9174  H     
21   H        -3.8243  -10.7951  -15.2928  H     
22   H        -2.2610   -9.6203  -18.2382  H     
23   H        -2.7255  -11.0317  -17.3471  H     
24   H        -1.3706  -10.0545  -16.7410  H     
25   H        -5.3168   -3.0275  -15.1255  H     
26   H        -6.9168   -3.5997  -14.6360  H     
27   H        -6.4348   -3.6896  -16.3396  H     
28   H        -0.5058   -4.4003  -17.0105  H     
29   H        -1.6890   -3.0968  -17.2254  H     
30   H        -0.5223   -3.4632  -18.5013  H     
31   H        -0.1864   -6.5320  -16.2639  H     
32   H         0.3643   -8.0576  -16.9578  H     
33   H        -0.9868   -8.0566  -15.8078  H     
34   H        -7.4898   -8.4275  -14.6571  H     
35   H        -7.2449   -6.9043  -15.4472  H     
36   H        -6.7452   -7.1048  -13.7428  H     
@<TRIPOS>BOND
     1    1    2 1
     2    1    6 2
     3    1   17 1
     4    2    3 2
     5    2   15 1
     6    3    4 1
     7    4    5 2
     8    4   13 1
     9    5    6 1
    10    5    8 1
    11    6    7 1
    12    7   10 2
    13    7   12 1
    14    8    9 1
    15    8   19 1
    16    9   10 1
    17    9   11 2
    18   13   14 1
    19   15   16 1
    20   17   18 1
    21    3   20 1
    22   10   21 1
    23   12   22 1
    24   12   23 1
    25   12   24 1
    26   14   25 1
    27   14   26 1
    28   14   27 1
    29   16   28 1
    30   16   29 1
    31   16   30 1
    32   18   31 1
    33   18   32 1
    34   18   33 1
    35   19   34 1
    36   19   35 1
    37   19   36 1
@<TRIPOS>PROPERTY_DATA
  Total_Score	| 4.5040
  Crash		| -1.0639
  Polar		| 1.1309
  FragIndex	| 1
  FragRMSD	| 0.387

