@<TRIPOS>MOLECULE
BindingDB_50039593
 61 63 0 0 0
SMALL
NO_CHARGES


@<TRIPOS>ATOM
1    S        95.6697   40.1781   80.9682  S     
2    C        95.3404   39.4597   79.4270  C     
3    N        96.6907   39.2913   81.9748  N     
4    C        96.2810   38.6590   83.1911  C     
5    C        96.8535   39.3648   84.3670  C     
6    S        93.9715   38.4902   79.0307  S     
7    O        96.4263   41.5530   80.7240  O     
8    O        94.3295   40.6155   81.7079  O     
9    C        96.7083   37.1577   83.1685  C     
10   C        96.0910   39.6221   78.2578  C     
11   N        93.3529   30.6365   71.3186  N     
12   C        94.3632   38.2936   77.3673  C     
13   O        96.4232   39.0478   85.6083  O     
14   C        95.5521   38.9906   77.1260  C     
15   C        96.0802   36.4058   82.0428  C     
16   O        97.7370   40.3838   84.2523  O     
17   C        94.8193   35.0898   79.8455  C     
18   C        96.7750   36.1968   80.8300  C     
19   C        94.7483   35.9455   82.1413  C     
20   C        94.1307   35.2967   81.0570  C     
21   C        96.1494   35.5502   79.7468  C     
22   O        94.0913   34.5111   78.8266  O     
23   C        92.6743   31.9126   71.6385  C     
24   C        94.5361   30.3604   72.1677  C     
25   C        93.4076   31.6649   74.1276  C     
26   C        94.6245   34.3340   77.5002  C     
27   C        94.3837   32.8713   74.3666  C     
28   C        92.2392   31.9593   73.1249  C     
29   C        94.1650   30.3669   73.6761  C     
30   C        93.4307   34.0739   76.5359  C     
31   C        93.7770   34.1538   75.0148  C     
32   H        97.6383   39.3038   81.7756  H     
33   H        95.1897   38.7079   83.2897  H     
34   H        97.8006   37.0972   83.1044  H     
35   H        96.4206   36.6764   84.1113  H     
36   H        96.9553   40.1707   78.2220  H     
37   H        92.6802   29.8757   71.4487  H     
38   H        93.6477   30.6434   70.3341  H     
39   H        93.8170   37.7741   76.6799  H     
40   H        95.9877   39.0315   76.2003  H     
41   H        97.7383   36.5265   80.7284  H     
42   H        94.2120   36.0905   83.0022  H     
43   H        93.1603   34.9848   81.1519  H     
44   H        96.6537   35.4632   78.8688  H     
45   H        93.3447   32.7462   71.4131  H     
46   H        91.7918   32.0061   70.9981  H     
47   H        94.9226   29.3745   71.8934  H     
48   H        95.3128   31.1058   71.9672  H     
49   H        92.9495   31.4319   75.0976  H     
50   H        95.1580   35.2251   77.1764  H     
51   H        95.3191   33.4902   77.4941  H     
52   H        95.2120   32.5431   75.0025  H     
53   H        94.8122   33.1600   73.4009  H     
54   H        91.7865   32.9315   73.3302  H     
55   H        91.4555   31.2096   73.2735  H     
56   H        93.5176   29.5047   73.8684  H     
57   H        95.0740   30.2276   74.2703  H     
58   H        92.9728   33.1086   76.7843  H     
59   H        92.6846   34.8565   76.7291  H     
60   H        94.4843   34.9778   74.8493  H     
61   H        92.8620   34.4263   74.4790  H     
@<TRIPOS>BOND
     1    1    2 1
     2    1    3 1
     3    1    7 2
     4    1    8 2
     5    2    6 1
     6    2   10 2
     7    4    3 1
     8    4    5 1
     9    4    9 1
    10    5   13 2
    11    5   16 1
    12    6   12 1
    13    9   15 1
    14   10   14 1
    15   11   23 1
    16   11   24 1
    17   12   14 2
    18   15   18 1
    19   15   19 2
    20   17   20 2
    21   17   21 1
    22   17   22 1
    23   18   21 2
    24   19   20 1
    25   22   26 1
    26   23   28 1
    27   24   29 1
    28   25   27 1
    29   25   28 1
    30   25   29 1
    31   26   30 1
    32   27   31 1
    33   30   31 1
    34    3   32 1
    35    4   33 1
    36    9   34 1
    37    9   35 1
    38   10   36 1
    39   11   37 1
    40   11   38 1
    41   12   39 1
    42   14   40 1
    43   18   41 1
    44   19   42 1
    45   20   43 1
    46   21   44 1
    47   23   45 1
    48   23   46 1
    49   24   47 1
    50   24   48 1
    51   25   49 1
    52   26   50 1
    53   26   51 1
    54   27   52 1
    55   27   53 1
    56   28   54 1
    57   28   55 1
    58   29   56 1
    59   29   57 1
    60   30   58 1
    61   30   59 1
    62   31   60 1
    63   31   61 1
@<TRIPOS>PROPERTY_DATA
  Total_Score	| 11.0399
  Crash		| -1.2873
  Polar		| 6.5027
  FragIndex	| 1
  FragRMSD	| 0.916

