@<TRIPOS>MOLECULE
BindingDB_50004066
 60 61 0 0 0
SMALL
NO_CHARGES


@<TRIPOS>ATOM
1    S        95.6988   40.0848   81.0246  S     
2    C        96.2112   38.7679   83.3980  C     
3    N        96.6797   39.3429   82.1751  N     
4    C        96.8192   39.4683   84.5513  C     
5    O        94.3943   40.6755   81.7113  O     
6    O        96.4948   41.3964   80.6099  O     
7    C        96.5408   37.2445   83.4378  C     
8    C        95.2618   39.0957   79.5778  C     
9    O        97.7304   40.4608   84.4085  O     
10   C        95.9897   36.5002   82.2706  C     
11   O        96.4607   39.1268   85.8082  O     
12   C        94.9353   35.1558   79.9888  C     
13   C        95.5169   39.8169   78.3092  C     
14   C        94.6404   36.0818   82.2408  C     
15   C        96.8094   36.2444   81.1596  C     
16   N        94.7264   31.2448   71.0485  N     
17   C        94.1198   35.4120   81.1153  C     
18   C        96.2807   35.5775   80.0230  C     
19   O        94.3189   34.4928   78.9236  O     
20   C        93.5997   31.4595   71.9740  C     
21   C        95.1031   34.1524   77.7586  C     
22   C        96.6898   39.5690   77.5603  C     
23   C        94.5926   40.7719   77.8280  C     
24   C        93.8260   32.6525   72.9576  C     
25   C        94.4401   33.0480   76.8581  C     
26   C        93.8541   32.2736   74.4652  C     
27   C        94.1148   33.4868   75.4078  C     
28   C        94.8297   41.4517   76.6172  C     
29   C        96.9207   40.2405   76.3423  C     
30   C        95.9925   41.1848   75.8753  C     
31   H        95.1270   38.8884   83.4878  H     
32   H        97.6375   39.3504   82.0218  H     
33   H        97.6273   37.1147   83.4723  H     
34   H        96.1519   36.8051   84.3636  H     
35   H        95.8400   38.1776   79.6071  H     
36   H        94.2136   38.8080   79.6532  H     
37   H        94.0309   36.2534   83.0423  H     
38   H        97.7785   36.5498   81.1270  H     
39   H        94.9083   32.1181   70.5483  H     
40   H        94.4876   30.5125   70.3680  H     
41   H        95.5648   30.9716   71.5675  H     
42   H        93.1406   35.1023   81.1234  H     
43   H        96.9167   35.4401   79.2456  H     
44   H        92.7221   31.6625   71.3544  H     
45   H        93.4146   30.5270   72.5131  H     
46   H        95.2758   35.0564   77.1697  H     
47   H        96.0714   33.7528   78.0692  H     
48   H        97.3851   38.9012   77.8975  H     
49   H        93.7415   40.9808   78.3551  H     
50   H        94.7629   33.1572   72.6987  H     
51   H        93.0193   33.3779   72.8106  H     
52   H        95.1413   32.2124   76.8252  H     
53   H        93.5336   32.6969   77.3519  H     
54   H        92.8982   31.8156   74.7330  H     
55   H        94.6382   31.5260   74.6140  H     
56   H        93.2374   34.1344   75.4207  H     
57   H        94.9512   34.0615   75.0104  H     
58   H        94.1503   42.1356   76.2741  H     
59   H        97.7641   40.0427   75.8003  H     
60   H        96.1594   41.6752   74.9917  H     
@<TRIPOS>BOND
     1    1    3 1
     2    1    5 2
     3    1    6 2
     4    1    8 1
     5    2    3 1
     6    2    4 1
     7    2    7 1
     8    4    9 2
     9    4   11 1
    10    7   10 1
    11    8   13 1
    12   10   14 1
    13   10   15 2
    14   12   17 1
    15   12   18 2
    16   12   19 1
    17   13   22 2
    18   13   23 1
    19   14   17 2
    20   15   18 1
    21   16   20 1
    22   19   21 1
    23   20   24 1
    24   21   25 1
    25   22   29 1
    26   23   28 2
    27   24   26 1
    28   25   27 1
    29   26   27 1
    30   28   30 1
    31   29   30 2
    32    2   31 1
    33    3   32 1
    34    7   33 1
    35    7   34 1
    36    8   35 1
    37    8   36 1
    38   14   37 1
    39   15   38 1
    40   16   39 1
    41   16   40 1
    42   16   41 1
    43   17   42 1
    44   18   43 1
    45   20   44 1
    46   20   45 1
    47   21   46 1
    48   21   47 1
    49   22   48 1
    50   23   49 1
    51   24   50 1
    52   24   51 1
    53   25   52 1
    54   25   53 1
    55   26   54 1
    56   26   55 1
    57   27   56 1
    58   27   57 1
    59   28   58 1
    60   29   59 1
    61   30   60 1
@<TRIPOS>PROPERTY_DATA
  Total_Score	| 11.3650
  Crash		| -1.9715
  Polar		| 8.0309
  FragIndex	| 1
  FragRMSD	| 0.915

