@<TRIPOS>MOLECULE
BindingDB_50039591
 57 58 0 0 0
SMALL
NO_CHARGES


@<TRIPOS>ATOM
1    S        95.8458   39.8691   80.7887  S     
2    C        96.1958   38.7808   83.3151  C     
3    N        96.7425   39.3221   82.1081  N     
4    C        96.7918   39.4570   84.4905  C     
5    O        96.4334   41.2862   80.3660  O     
6    O        96.0120   38.8429   79.5852  O     
7    C        96.4752   37.2488   83.3693  C     
8    N        93.2372   30.1157   71.4212  N     
9    O        97.7330   40.4256   84.3687  O     
10   C        95.9106   36.5064   82.2065  C     
11   C        94.0871   40.0938   81.0855  C     
12   O        96.4041   39.1197   85.7405  O     
13   C        94.7951   35.1354   79.9578  C     
14   C        94.5378   36.1763   82.1641  C     
15   C        96.7227   36.1351   81.1084  C     
16   C        96.1774   35.4517   80.0052  C     
17   C        93.9921   35.4957   81.0594  C     
18   O        94.1643   34.4458   78.9406  O     
19   C        92.2544   31.1735   71.7439  C     
20   C        94.5051   30.2065   72.1775  C     
21   C        93.2276   31.3592   74.1361  C     
22   C        94.8096   34.3520   77.6511  C     
23   C        93.7795   32.8283   74.1062  C     
24   C        91.9410   31.1865   73.2632  C     
25   C        94.2679   30.2698   73.7131  C     
26   C        93.8814   33.6615   76.6128  C     
27   C        94.6510   33.2825   75.3127  C     
28   H        95.1168   38.9505   83.3553  H     
29   H        97.7035   39.2452   81.9800  H     
30   H        97.5573   37.0856   83.4240  H     
31   H        96.0515   36.8232   84.2849  H     
32   H        92.8094   29.2032   71.6153  H     
33   H        93.4519   30.1619   70.4221  H     
34   H        93.6354   39.1314   81.3212  H     
35   H        93.6141   40.5100   80.1916  H     
36   H        93.9399   40.7776   81.9176  H     
37   H        93.9237   36.4297   82.9422  H     
38   H        97.7175   36.3713   81.0985  H     
39   H        96.7996   35.2031   79.2323  H     
40   H        92.9932   35.2663   81.0570  H     
41   H        92.6332   32.1475   71.4217  H     
42   H        91.3349   30.9715   71.1899  H     
43   H        95.0955   29.3193   71.9384  H     
44   H        95.0684   31.0819   71.8446  H     
45   H        92.9307   31.1463   75.1683  H     
46   H        95.0599   35.3534   77.2790  H     
47   H        95.7259   33.7558   77.7436  H     
48   H        94.3740   32.9617   73.1974  H     
49   H        92.9381   33.5276   74.0351  H     
50   H        91.2211   31.9790   73.4843  H     
51   H        91.4656   30.2332   73.5231  H     
52   H        93.8957   29.2928   74.0379  H     
53   H        95.2208   30.4300   74.2198  H     
54   H        93.4624   32.7534   77.0573  H     
55   H        93.0566   34.3399   76.3630  H     
56   H        95.3789   32.5006   75.5472  H     
57   H        95.2152   34.1635   74.9849  H     
@<TRIPOS>BOND
     1    1    3 1
     2    1    5 2
     3    1    6 2
     4    1   11 1
     5    2    3 1
     6    2    4 1
     7    2    7 1
     8    4    9 2
     9    4   12 1
    10    7   10 1
    11    8   19 1
    12    8   20 1
    13   10   14 1
    14   10   15 2
    15   13   16 2
    16   13   17 1
    17   13   18 1
    18   14   17 2
    19   15   16 1
    20   18   22 1
    21   19   24 1
    22   20   25 1
    23   21   23 1
    24   21   24 1
    25   21   25 1
    26   22   26 1
    27   23   27 1
    28   26   27 1
    29    2   28 1
    30    3   29 1
    31    7   30 1
    32    7   31 1
    33    8   32 1
    34    8   33 1
    35   11   34 1
    36   11   35 1
    37   11   36 1
    38   14   37 1
    39   15   38 1
    40   16   39 1
    41   17   40 1
    42   19   41 1
    43   19   42 1
    44   20   43 1
    45   20   44 1
    46   21   45 1
    47   22   46 1
    48   22   47 1
    49   23   48 1
    50   23   49 1
    51   24   50 1
    52   24   51 1
    53   25   52 1
    54   25   53 1
    55   26   54 1
    56   26   55 1
    57   27   56 1
    58   27   57 1
@<TRIPOS>PROPERTY_DATA
  Total_Score	| 10.6457
  Crash		| -1.2761
  Polar		| 7.3744
  FragIndex	| 1
  FragRMSD	| 0.917

