@<TRIPOS>MOLECULE
BindingDB_50039569
 69 70 0 0 0
SMALL
NO_CHARGES


@<TRIPOS>ATOM
1    S        95.6215   40.0527   80.7209  S     
2    N        96.4268   39.0076   81.7698  N     
3    C        96.2451   39.2967   84.2178  C     
4    C        97.4916   40.0678   84.0685  C     
5    C        95.8220   38.4918   82.9581  C     
6    O        94.2500   40.5695   81.3510  O     
7    O        96.5170   41.3542   80.5628  O     
8    N        93.8116   31.0123   71.0054  N     
9    O        97.6536   40.8776   82.9973  O     
10   C        96.1459   36.9759   83.0993  C     
11   C        95.2956   39.3376   79.0965  C     
12   C        95.7133   36.1957   81.9066  C     
13   O        98.2874   40.3008   85.1292  O     
14   C        94.8942   34.7055   79.6234  C     
15   C        96.6492   35.8224   80.9148  C     
16   C        94.3652   35.8089   81.7358  C     
17   C        93.9575   35.0844   80.6002  C     
18   C        96.2498   35.0608   79.7991  C     
19   O        94.4991   33.9427   78.5548  O     
20   C        92.3497   31.1599   71.1604  C     
21   C        94.4978   30.5842   72.2419  C     
22   C        92.7051   31.8175   73.6337  C     
23   C        94.5956   34.6420   77.3035  C     
24   C        92.3650   32.8983   74.7085  C     
25   C        96.4279   39.6724   78.0846  C     
26   C        92.0213   32.1800   72.2776  C     
27   C        94.2303   31.5756   73.4005  C     
28   C        94.4544   33.6715   76.1081  C     
29   C        93.1261   32.8507   76.0660  C     
30   C        96.0562   39.3858   76.6087  C     
31   C        95.1394   38.1529   76.4117  C     
32   H        97.3920   38.9973   81.7244  H     
33   H        96.3462   38.6148   85.0670  H     
34   H        95.4472   40.0004   84.4621  H     
35   H        94.7297   38.5704   82.8936  H     
36   H        93.9905   30.3230   70.2767  H     
37   H        94.2005   31.9111   70.7067  H     
38   H        97.2232   36.8564   83.2832  H     
39   H        95.6269   36.5550   83.9731  H     
40   H        95.2158   38.2524   79.2245  H     
41   H        94.3373   39.7309   78.7282  H     
42   H        97.6315   36.0997   80.9916  H     
43   H        93.6694   36.0582   82.4438  H     
44   H        92.9744   34.8119   80.5009  H     
45   H        96.9461   34.7652   79.1172  H     
46   H        91.9316   31.5073   70.2126  H     
47   H        91.9032   30.1897   71.3914  H     
48   H        94.1671   29.5800   72.5161  H     
49   H        95.5686   30.5455   72.0429  H     
50   H        92.2787   30.8693   73.9811  H     
51   H        93.8313   35.4213   77.2351  H     
52   H        95.5758   35.1110   77.2067  H     
53   H        92.4780   33.8970   74.2759  H     
54   H        91.3000   32.7858   74.9429  H     
55   H        96.6694   40.7378   78.1578  H     
56   H        97.3293   39.1018   78.3484  H     
57   H        92.3630   33.1663   71.9522  H     
58   H        90.9365   32.2241   72.4052  H     
59   H        94.6798   31.1595   74.3036  H     
60   H        94.7226   32.5259   73.1712  H     
61   H        94.5597   34.2766   75.2021  H     
62   H        95.3083   32.9825   76.1214  H     
63   H        92.4469   33.2344   76.8316  H     
64   H        93.3226   31.8097   76.3326  H     
65   H        95.5609   40.2664   76.1822  H     
66   H        96.9798   39.2192   76.0456  H     
67   H        95.5235   37.3039   76.9783  H     
68   H        95.0974   37.8776   75.3580  H     
69   H        94.1236   38.3715   76.7518  H     
@<TRIPOS>BOND
     1    1    2 1
     2    1    6 2
     3    1    7 2
     4    1   11 1
     5    5    2 1
     6    3    4 1
     7    3    5 1
     8    4    9 2
     9    4   13 1
    10    5   10 1
    11    8   20 1
    12    8   21 1
    13   10   12 1
    14   11   25 1
    15   12   15 2
    16   12   16 1
    17   14   17 1
    18   14   18 2
    19   14   19 1
    20   15   18 1
    21   16   17 2
    22   19   23 1
    23   20   26 1
    24   21   27 1
    25   22   24 1
    26   22   26 1
    27   22   27 1
    28   23   28 1
    29   24   29 1
    30   25   30 1
    31   28   29 1
    32   30   31 1
    33    2   32 1
    34    3   33 1
    35    3   34 1
    36    5   35 1
    37    8   36 1
    38    8   37 1
    39   10   38 1
    40   10   39 1
    41   11   40 1
    42   11   41 1
    43   15   42 1
    44   16   43 1
    45   17   44 1
    46   18   45 1
    47   20   46 1
    48   20   47 1
    49   21   48 1
    50   21   49 1
    51   22   50 1
    52   23   51 1
    53   23   52 1
    54   24   53 1
    55   24   54 1
    56   25   55 1
    57   25   56 1
    58   26   57 1
    59   26   58 1
    60   27   59 1
    61   27   60 1
    62   28   61 1
    63   28   62 1
    64   29   63 1
    65   29   64 1
    66   30   65 1
    67   30   66 1
    68   31   67 1
    69   31   68 1
    70   31   69 1
@<TRIPOS>PROPERTY_DATA
  Total_Score	| 10.4662
  Crash		| -3.7963
  Polar		| 7.8298
  FragIndex	| 1
  FragRMSD	| 0.987

