@<TRIPOS>MOLECULE
BindingDB_50039597
 56 57 0 0 0
SMALL
NO_CHARGES


@<TRIPOS>ATOM
1    C        96.2025   38.8481   83.2804  C     
2    C        96.8076   39.4993   84.4701  C     
3    N        96.8561   39.2917   82.0812  N     
4    C        96.3122   39.8928   81.0326  C     
5    N        93.2208   30.2004   71.3346  N     
6    C        96.3354   37.3004   83.3853  C     
7    O        97.7356   40.4772   84.3780  O     
8    O        95.1246   40.1886   80.9987  O     
9    C        95.8199   36.5693   82.1908  C     
10   O        96.4056   39.1411   85.7076  O     
11   C        94.8475   35.0770   79.9425  C     
12   C        96.7017   36.0970   81.1902  C     
13   C        94.4408   36.3051   82.0346  C     
14   C        93.9664   35.5661   80.9302  C     
15   C        96.2303   35.3488   80.1011  C     
16   O        94.2787   34.3208   78.9329  O     
17   C        92.2739   31.2939   71.6328  C     
18   C        94.4710   30.2456   72.1236  C     
19   C        97.1583   40.1943   79.9005  C     
20   C        93.1781   31.4305   74.0568  C     
21   C        94.9193   34.2144   77.6423  C     
22   C        93.7669   32.8835   74.0584  C     
23   C        91.9136   31.3137   73.1424  C     
24   C        94.1877   30.3046   73.6519  C     
25   C        93.9481   33.6201   76.5874  C     
26   C        94.6773   33.2877   75.2531  C     
27   H        95.1384   39.1096   83.2808  H     
28   H        97.8032   39.1038   82.0225  H     
29   H        92.7596   29.3044   71.5191  H     
30   H        93.4624   30.2376   70.3427  H     
31   H        97.3913   37.0475   83.5431  H     
32   H        95.7918   36.9374   84.2668  H     
33   H        97.7023   36.2930   81.2621  H     
34   H        93.7706   36.6299   82.7391  H     
35   H        92.9624   35.3738   80.8544  H     
36   H        96.9116   34.9971   79.4262  H     
37   H        92.7014   32.2545   71.3297  H     
38   H        91.3659   31.1368   71.0466  H     
39   H        95.0402   29.3430   71.8945  H     
40   H        95.0730   31.1045   71.8172  H     
41   H        97.9891   40.8271   80.2127  H     
42   H        96.6073   40.7148   79.1157  H     
43   H        97.5601   39.2695   79.4865  H     
44   H        92.8461   31.2189   75.0777  H     
45   H        95.2466   35.2078   77.3086  H     
46   H        95.7912   33.5607   77.7272  H     
47   H        94.3409   33.0235   73.1406  H     
48   H        92.9433   33.6025   74.0190  H     
49   H        91.2202   32.1348   73.3411  H     
50   H        91.3868   30.3839   73.3815  H     
51   H        93.7665   29.3380   73.9494  H     
52   H        95.1316   30.4168   74.1897  H     
53   H        93.5026   32.7065   76.9947  H     
54   H        93.1462   34.3488   76.4070  H     
55   H        95.4068   32.4995   75.4424  H     
56   H        95.2227   34.1852   74.9438  H     
@<TRIPOS>BOND
     1    1    2 1
     2    1    3 1
     3    1    6 1
     4    2    7 2
     5    2   10 1
     6    3    4 am
     7    4    8 2
     8    4   19 1
     9    5   17 1
    10    5   18 1
    11    6    9 1
    12    9   12 1
    13    9   13 2
    14   11   14 2
    15   11   15 1
    16   11   16 1
    17   12   15 2
    18   13   14 1
    19   16   21 1
    20   17   23 1
    21   18   24 1
    22   20   22 1
    23   20   23 1
    24   20   24 1
    25   21   25 1
    26   22   26 1
    27   25   26 1
    28    1   27 1
    29    3   28 1
    30    5   29 1
    31    5   30 1
    32    6   31 1
    33    6   32 1
    34   12   33 1
    35   13   34 1
    36   14   35 1
    37   15   36 1
    38   17   37 1
    39   17   38 1
    40   18   39 1
    41   18   40 1
    42   19   41 1
    43   19   42 1
    44   19   43 1
    45   20   44 1
    46   21   45 1
    47   21   46 1
    48   22   47 1
    49   22   48 1
    50   23   49 1
    51   23   50 1
    52   24   51 1
    53   24   52 1
    54   25   53 1
    55   25   54 1
    56   26   55 1
    57   26   56 1
@<TRIPOS>PROPERTY_DATA
  Total_Score	| 10.5581
  Crash		| -1.3406
  Polar		| 5.8488
  FragIndex	| 1
  FragRMSD	| 0.572

