@<TRIPOS>MOLECULE
BindingDB_50039584
 66 67 0 0 0
SMALL
NO_CHARGES


@<TRIPOS>ATOM
1    S        95.8908   39.9705   81.1251  S     
2    C        97.0257   38.4333   83.1857  C     
3    N        97.1040   39.1318   81.9410  N     
4    C        96.8733   39.3778   84.3211  C     
5    O        94.4900   40.0102   81.8794  O     
6    O        96.3783   41.4543   80.8423  O     
7    C        95.9585   37.2877   83.2219  C     
8    N        93.2814   30.1162   71.3751  N     
9    O        97.7496   40.3948   84.4906  O     
10   C        95.7205   36.4746   81.9892  C     
11   C        95.6671   39.1550   79.5230  C     
12   O        96.2953   38.9224   85.4541  O     
13   C        95.1253   34.8904   79.7093  C     
14   C        94.4149   35.9745   81.7676  C     
15   C        96.7331   36.1187   81.0703  C     
16   C        96.4404   35.3556   79.9263  C     
17   C        94.1173   35.2012   80.6349  C     
18   O        94.8267   34.0655   78.6649  O     
19   C        92.3400   31.2326   71.6147  C     
20   C        94.5365   30.2064   72.1504  C     
21   C        93.2392   31.4178   74.0401  C     
22   C        94.3307   34.7373   77.4803  C     
23   C        93.8597   32.8575   74.0303  C     
24   C        95.4113   40.1372   78.3409  C     
25   C        91.9811   31.3231   73.1204  C     
26   C        94.2439   30.2787   73.6742  C     
27   C        93.6997   33.6898   76.5204  C     
28   C        94.6128   33.3286   75.3077  C     
29   C        95.8179   39.6061   76.9389  C     
30   C        95.1393   38.2937   76.5062  C     
31   H        98.0031   37.9554   83.3129  H     
32   H        97.9899   39.2230   81.5648  H     
33   H        96.2263   36.5908   84.0211  H     
34   H        95.0132   37.7591   83.5127  H     
35   H        92.8055   29.2347   71.6150  H     
36   H        93.5122   30.0759   70.3787  H     
37   H        96.5810   38.5905   79.3290  H     
38   H        94.8648   38.4263   79.6089  H     
39   H        93.6577   36.1739   82.4269  H     
40   H        97.6880   36.4291   81.2134  H     
41   H        97.1844   35.1007   79.2778  H     
42   H        93.1688   34.8395   80.4939  H     
43   H        92.7808   32.1697   71.2645  H     
44   H        91.4370   31.0464   71.0306  H     
45   H        95.1265   29.3169   71.9414  H     
46   H        95.1150   31.0758   71.8336  H     
47   H        92.8839   31.2285   75.0559  H     
48   H        93.5512   35.4759   77.7282  H     
49   H        95.1632   35.2559   76.9807  H     
50   H        94.5502   32.9465   73.1887  H     
51   H        93.0557   33.5829   73.8633  H     
52   H        94.3590   40.4483   78.3079  H     
53   H        95.9907   41.0492   78.5254  H     
54   H        91.3148   32.1764   73.2764  H     
55   H        91.4127   30.4230   73.3833  H     
56   H        93.8116   29.3206   73.9821  H     
57   H        95.1776   30.3976   74.2252  H     
58   H        93.4905   32.7602   77.0738  H     
59   H        92.7387   34.0858   76.1483  H     
60   H        95.3203   32.5538   75.6209  H     
61   H        95.2114   34.2086   75.0265  H     
62   H        95.5567   40.3727   76.2097  H     
63   H        96.9025   39.4787   76.9014  H     
64   H        95.4339   37.4711   77.1571  H     
65   H        95.4452   38.0541   75.4871  H     
66   H        94.0541   38.4065   76.5386  H     
@<TRIPOS>BOND
     1    1    3 1
     2    1    5 2
     3    1    6 2
     4    1   11 1
     5    2    3 1
     6    2    4 1
     7    2    7 1
     8    4    9 2
     9    4   12 1
    10    7   10 1
    11    8   19 1
    12    8   20 1
    13   10   14 2
    14   10   15 1
    15   11   24 1
    16   13   16 1
    17   13   17 2
    18   13   18 1
    19   14   17 1
    20   15   16 2
    21   18   22 1
    22   19   25 1
    23   20   26 1
    24   21   23 1
    25   21   25 1
    26   21   26 1
    27   22   27 1
    28   23   28 1
    29   24   29 1
    30   27   28 1
    31   29   30 1
    32    2   31 1
    33    3   32 1
    34    7   33 1
    35    7   34 1
    36    8   35 1
    37    8   36 1
    38   11   37 1
    39   11   38 1
    40   14   39 1
    41   15   40 1
    42   16   41 1
    43   17   42 1
    44   19   43 1
    45   19   44 1
    46   20   45 1
    47   20   46 1
    48   21   47 1
    49   22   48 1
    50   22   49 1
    51   23   50 1
    52   23   51 1
    53   24   52 1
    54   24   53 1
    55   25   54 1
    56   25   55 1
    57   26   56 1
    58   26   57 1
    59   27   58 1
    60   27   59 1
    61   28   60 1
    62   28   61 1
    63   29   62 1
    64   29   63 1
    65   30   64 1
    66   30   65 1
    67   30   66 1
@<TRIPOS>PROPERTY_DATA
  Total_Score	| 12.0314
  Crash		| -1.7703
  Polar		| 7.5261
  FragIndex	| 1
  FragRMSD	| 0.721

