@<TRIPOS>MOLECULE
BindingDB_50039568
 66 67 0 0 0
SMALL
NO_CHARGES


@<TRIPOS>ATOM
1    S        96.0071   39.7757   80.3962  S     
2    N        96.7548   39.1187   81.7567  N     
3    C        97.1295   38.2377   83.9838  C     
4    C        97.3233   39.2096   85.0705  C     
5    C        96.0565   38.6426   82.9177  C     
6    O        94.4338   39.5431   80.4317  O     
7    O        96.3025   41.3354   80.3052  O     
8    N        93.5171   30.8310   71.5684  N     
9    O        96.3784   39.2830   86.0283  O     
10   C        95.0429   37.4617   82.6560  C     
11   C        96.7104   38.9710   78.9290  C     
12   C        95.1200   36.7710   81.3438  C     
13   O        98.0975   40.2999   84.8963  O     
14   C        95.2651   35.4048   78.8492  C     
15   C        96.2583   36.0009   81.0057  C     
16   C        94.0431   36.8216   80.4252  C     
17   C        94.1248   36.1580   79.1887  C     
18   C        96.3391   35.3333   79.7698  C     
19   O        95.3275   34.9117   77.5731  O     
20   C        92.9310   32.1307   71.9615  C     
21   C        94.5913   30.3685   72.4734  C     
22   C        93.4635   31.6138   74.4551  C     
23   C        94.5885   33.7229   77.2347  C     
24   C        94.5537   32.6832   74.8112  C     
25   C        96.1881   39.4979   77.5534  C     
26   C        94.0902   30.2752   73.9402  C     
27   C        92.3975   32.0989   73.4184  C     
28   C        94.1251   33.8452   75.7583  C     
29   C        95.2100   38.5365   76.8074  C     
30   C        93.7121   38.8128   77.0851  C     
31   H        97.6750   38.8338   81.6437  H     
32   H        98.0852   38.0234   83.4957  H     
33   H        96.8440   37.3135   84.4871  H     
34   H        95.4718   39.4854   83.3043  H     
35   H        92.7761   30.1312   71.5750  H     
36   H        93.8878   30.8997   70.6120  H     
37   H        95.1379   36.6746   83.4105  H     
38   H        94.0363   37.8641   82.8048  H     
39   H        97.7956   39.1254   78.9697  H     
40   H        96.5580   37.8927   79.0184  H     
41   H        97.0637   35.9636   81.6390  H     
42   H        93.2169   37.3857   80.6325  H     
43   H        93.3533   36.2462   78.5179  H     
44   H        97.1902   34.8229   79.5255  H     
45   H        93.6773   32.9221   71.8512  H     
46   H        92.1074   32.3529   71.2810  H     
47   H        94.9157   29.3812   72.1367  H     
48   H        95.4462   31.0478   72.4074  H     
49   H        92.9369   31.3763   75.3886  H     
50   H        95.2460   32.8521   77.3363  H     
51   H        93.7205   33.6109   77.8905  H     
52   H        95.4027   32.1698   75.2604  H     
53   H        94.9199   33.1263   73.8830  H     
54   H        95.7386   40.4904   77.6649  H     
55   H        97.0548   39.6307   76.8963  H     
56   H        93.3291   29.4904   73.9862  H     
57   H        94.9126   29.9598   74.5884  H     
58   H        92.0139   33.0870   73.6776  H     
59   H        91.5490   31.4074   73.4490  H     
60   H        93.0455   33.9780   75.7591  H     
61   H        94.5438   34.7725   75.3548  H     
62   H        95.3734   38.6391   75.7277  H     
63   H        95.4167   37.4928   77.0699  H     
64   H        93.5152   38.8229   78.1621  H     
65   H        93.1058   38.0280   76.6172  H     
66   H        93.4294   39.7906   76.6638  H     
@<TRIPOS>BOND
     1    1    2 1
     2    1    6 2
     3    1    7 2
     4    1   11 1
     5    5    2 1
     6    3    4 1
     7    3    5 1
     8    4    9 2
     9    4   13 1
    10    5   10 1
    11    8   20 1
    12    8   21 1
    13   10   12 1
    14   11   25 1
    15   12   15 1
    16   12   16 2
    17   14   17 2
    18   14   18 1
    19   14   19 1
    20   15   18 2
    21   16   17 1
    22   19   23 1
    23   20   27 1
    24   21   26 1
    25   22   24 1
    26   22   26 1
    27   22   27 1
    28   23   28 1
    29   24   28 1
    30   25   29 1
    31   29   30 1
    32    2   31 1
    33    3   32 1
    34    3   33 1
    35    5   34 1
    36    8   35 1
    37    8   36 1
    38   10   37 1
    39   10   38 1
    40   11   39 1
    41   11   40 1
    42   15   41 1
    43   16   42 1
    44   17   43 1
    45   18   44 1
    46   20   45 1
    47   20   46 1
    48   21   47 1
    49   21   48 1
    50   22   49 1
    51   23   50 1
    52   23   51 1
    53   24   52 1
    54   24   53 1
    55   25   54 1
    56   25   55 1
    57   26   56 1
    58   26   57 1
    59   27   58 1
    60   27   59 1
    61   28   60 1
    62   28   61 1
    63   29   62 1
    64   29   63 1
    65   30   64 1
    66   30   65 1
    67   30   66 1
@<TRIPOS>PROPERTY_DATA
  Total_Score	| 9.4349
  Crash		| -3.4635
  Polar		| 6.5630
  FragIndex	| 1
  FragRMSD	| 1.321

