@<TRIPOS>MOLECULE
BindingDB_50004065
 59 59 0 0 0
SMALL
NO_CHARGES


@<TRIPOS>ATOM
1    S        95.9280   39.9873   80.9074  S     
2    C        96.2447   38.7290   83.3630  C     
3    N        96.7886   39.2150   82.1317  N     
4    C        96.8537   39.4342   84.5070  C     
5    O        94.3755   40.0888   81.2382  O     
6    O        96.4958   41.4729   80.8307  O     
7    C        96.4973   37.1965   83.4511  C     
8    O        97.7882   40.4056   84.3651  O     
9    C        95.9502   36.4844   82.2660  C     
10   C        96.1340   39.1840   79.2982  C     
11   O        96.4290   39.1631   85.7631  O     
12   C        94.8608   35.1235   80.0160  C     
13   C        94.5911   36.0889   82.2459  C     
14   C        96.7620   36.1806   81.1494  C     
15   N        93.9649   31.1234   71.0331  N     
16   C        94.0541   35.4237   81.1307  C     
17   C        96.2259   35.4978   80.0405  C     
18   O        94.3112   34.3721   79.0130  O     
19   C        94.3579   31.2115   72.4405  C     
20   C        94.3900   34.8876   77.6750  C     
21   C        95.6336   40.0871   78.1358  C     
22   C        94.1190   32.6266   73.0150  C     
23   C        93.6033   33.9310   76.7437  C     
24   C        96.0154   39.5737   76.7223  C     
25   C        93.9891   33.9995   75.2322  C     
26   C        93.9303   32.6098   74.5474  C     
27   C        95.2672   38.2889   76.2892  C     
28   H        95.1740   38.9214   83.4084  H     
29   H        97.7434   39.0889   81.9850  H     
30   H        97.5742   37.0192   83.5425  H     
31   H        96.0370   36.7883   84.3565  H     
32   H        97.1961   38.9597   79.1604  H     
33   H        95.5723   38.2444   79.3134  H     
34   H        93.9773   36.2880   83.0401  H     
35   H        97.7379   36.4695   81.1330  H     
36   H        92.9418   31.1860   70.9594  H     
37   H        94.2650   30.2292   70.6273  H     
38   H        94.3694   31.9021   70.4998  H     
39   H        93.0749   35.1311   81.1345  H     
40   H        96.8467   35.2621   79.2610  H     
41   H        93.7698   30.4745   72.9862  H     
42   H        95.4061   30.9445   72.5276  H     
43   H        93.9486   35.8870   77.6118  H     
44   H        95.4265   34.9271   77.3414  H     
45   H        94.5448   40.1931   78.1999  H     
46   H        96.0743   41.0811   78.2560  H     
47   H        94.9647   33.2659   72.7583  H     
48   H        93.2239   33.0524   72.5483  H     
49   H        93.7517   32.9117   77.1260  H     
50   H        92.5259   34.1493   76.8371  H     
51   H        95.7814   40.3658   75.9999  H     
52   H        97.1012   39.3993   76.6757  H     
53   H        93.2967   34.6784   74.7140  H     
54   H        94.9925   34.4204   75.1148  H     
55   H        92.9637   32.1536   74.7699  H     
56   H        94.7099   31.9778   74.9943  H     
57   H        95.5516   37.4513   76.9404  H     
58   H        95.5397   38.0329   75.2590  H     
59   H        94.1873   38.4422   76.3508  H     
@<TRIPOS>BOND
     1    1    3 1
     2    1    5 2
     3    1    6 2
     4    1   10 1
     5    2    3 1
     6    2    4 1
     7    2    7 1
     8    4    8 2
     9    4   11 1
    10    7    9 1
    11    9   13 2
    12    9   14 1
    13   10   21 1
    14   12   16 2
    15   12   17 1
    16   12   18 1
    17   13   16 1
    18   14   17 2
    19   15   19 1
    20   18   20 1
    21   19   22 1
    22   20   23 1
    23   21   24 1
    24   22   26 1
    25   23   25 1
    26   24   27 1
    27   25   26 1
    28    2   28 1
    29    3   29 1
    30    7   30 1
    31    7   31 1
    32   10   32 1
    33   10   33 1
    34   13   34 1
    35   14   35 1
    36   15   36 1
    37   15   37 1
    38   15   38 1
    39   16   39 1
    40   17   40 1
    41   19   41 1
    42   19   42 1
    43   20   43 1
    44   20   44 1
    45   21   45 1
    46   21   46 1
    47   22   47 1
    48   22   48 1
    49   23   49 1
    50   23   50 1
    51   24   51 1
    52   24   52 1
    53   25   53 1
    54   25   54 1
    55   26   55 1
    56   26   56 1
    57   27   57 1
    58   27   58 1
    59   27   59 1
@<TRIPOS>PROPERTY_DATA
  Total_Score	| 10.8431
  Crash		| -1.4248
  Polar		| 6.9003
  FragIndex	| 1
  FragRMSD	| 0.551

