@<TRIPOS>MOLECULE
BindingDB_50039580
 70 72 0 0 0
SMALL
NO_CHARGES


@<TRIPOS>ATOM
1    S        95.9678   39.8805   80.6407  S     
2    C        96.2460   38.7445   83.1773  C     
3    N        96.8148   39.2400   81.9561  N     
4    C        96.8172   39.4517   84.3473  C     
5    O        94.4009   39.8570   80.9196  O     
6    O        96.3891   41.4095   80.5022  O     
7    C        96.4966   37.2087   83.2964  C     
8    N        93.2065   30.1427   71.3844  N     
9    C        96.3197   39.0043   79.0925  C     
10   O        96.3866   39.1566   85.5876  O     
11   C        95.9272   36.4402   82.1601  C     
12   O        97.7304   40.4453   84.2346  O     
13   C        94.7801   35.0649   79.9316  C     
14   C        95.2824   39.2154   77.9557  C     
15   C        96.7396   35.9811   81.0962  C     
16   C        94.5416   36.1699   82.1101  C     
17   C        93.9828   35.4944   81.0103  C     
18   C        96.1740   35.2928   80.0021  C     
19   C        95.5559   40.3580   77.0440  C     
20   O        94.1281   34.4348   78.8902  O     
21   C        92.2504   31.2323   71.6858  C     
22   C        94.4682   30.2105   72.1544  C     
23   C        93.1999   31.4175   74.0833  C     
24   C        94.8071   34.3087   77.6244  C     
25   C        94.7520   41.5248   77.0661  C     
26   C        96.5889   40.2681   76.0806  C     
27   C        93.8031   32.8689   74.0380  C     
28   C        91.9207   31.2759   73.2009  C     
29   C        94.2096   30.2887   73.6858  C     
30   C        93.8711   33.6922   76.5456  C     
31   C        94.6611   33.3145   75.2562  C     
32   C        96.8078   41.3107   75.1621  C     
33   C        94.9752   42.5702   76.1489  C     
34   C        96.0044   42.4638   75.1983  C     
35   H        95.1675   38.9232   83.2043  H     
36   H        97.7725   39.1274   81.8460  H     
37   H        97.5741   37.0259   83.3758  H     
38   H        96.0439   36.8258   84.2177  H     
39   H        92.7568   29.2440   71.5881  H     
40   H        93.4347   30.1690   70.3870  H     
41   H        97.3244   39.2777   78.7633  H     
42   H        96.3327   37.9445   79.3377  H     
43   H        95.2566   38.3118   77.3393  H     
44   H        94.2898   39.3023   78.4000  H     
45   H        97.7450   36.1730   81.0994  H     
46   H        93.9329   36.4684   82.8734  H     
47   H        92.9756   35.3280   80.9933  H     
48   H        96.7903   34.9937   79.2444  H     
49   H        92.6640   32.1917   71.3607  H     
50   H        91.3338   31.0543   71.1203  H     
51   H        95.0453   29.3097   71.9258  H     
52   H        95.0537   31.0710   71.8218  H     
53   H        92.8864   31.2300   75.1139  H     
54   H        95.1460   35.2878   77.2699  H     
55   H        95.6736   33.6527   77.7493  H     
56   H        93.9884   41.6155   77.7408  H     
57   H        97.1720   39.4310   76.0264  H     
58   H        94.4275   32.9531   73.1430  H     
59   H        92.9969   33.5949   73.9262  H     
60   H        91.2269   32.0942   73.4016  H     
61   H        91.4050   30.3452   73.4652  H     
62   H        93.7988   29.3249   74.0055  H     
63   H        95.1613   30.4189   74.2066  H     
64   H        93.3905   32.7989   76.9563  H     
65   H        93.0880   34.4172   76.3013  H     
66   H        95.3804   32.5305   75.4987  H     
67   H        95.2291   34.1990   74.9402  H     
68   H        97.5462   41.2273   74.4605  H     
69   H        94.3825   43.4037   76.1701  H     
70   H        96.1565   43.2184   74.5234  H     
@<TRIPOS>BOND
     1    1    3 1
     2    1    5 2
     3    1    6 2
     4    1    9 1
     5    2    3 1
     6    2    4 1
     7    2    7 1
     8    4   10 2
     9    4   12 1
    10    7   11 1
    11    8   21 1
    12    8   22 1
    13    9   14 1
    14   11   15 2
    15   11   16 1
    16   13   17 1
    17   13   18 2
    18   13   20 1
    19   14   19 1
    20   15   18 1
    21   16   17 2
    22   19   25 2
    23   19   26 1
    24   20   24 1
    25   21   28 1
    26   22   29 1
    27   23   27 1
    28   23   28 1
    29   23   29 1
    30   24   30 1
    31   25   33 1
    32   26   32 2
    33   27   31 1
    34   30   31 1
    35   32   34 1
    36   33   34 2
    37    2   35 1
    38    3   36 1
    39    7   37 1
    40    7   38 1
    41    8   39 1
    42    8   40 1
    43    9   41 1
    44    9   42 1
    45   14   43 1
    46   14   44 1
    47   15   45 1
    48   16   46 1
    49   17   47 1
    50   18   48 1
    51   21   49 1
    52   21   50 1
    53   22   51 1
    54   22   52 1
    55   23   53 1
    56   24   54 1
    57   24   55 1
    58   25   56 1
    59   26   57 1
    60   27   58 1
    61   27   59 1
    62   28   60 1
    63   28   61 1
    64   29   62 1
    65   29   63 1
    66   30   64 1
    67   30   65 1
    68   31   66 1
    69   31   67 1
    70   32   68 1
    71   33   69 1
    72   34   70 1
@<TRIPOS>PROPERTY_DATA
  Total_Score	| 13.0695
  Crash		| -1.4685
  Polar		| 7.1155
  FragIndex	| 1
  FragRMSD	| 0.990

