@<TRIPOS>MOLECULE
BindingDB_50004071
 67 69 0 0 0
SMALL
NO_CHARGES


@<TRIPOS>ATOM
1    S        95.6880   40.1305   81.0578  S     
2    C        96.1854   38.7675   83.3943  C     
3    N        96.6546   39.3192   82.1646  N     
4    C        96.8088   39.4583   84.5466  C     
5    O        94.4071   40.7634   81.7645  O     
6    O        96.5546   41.4055   80.6555  O     
7    C        96.4955   37.2412   83.4194  C     
8    C        95.2516   39.1725   79.5904  C     
9    N        92.8646   29.7995   71.4313  N     
10   O        97.7126   40.4524   84.3953  O     
11   C        95.9769   36.5072   82.2259  C     
12   O        96.4668   39.1231   85.8068  O     
13   C        94.9078   35.1589   79.9252  C     
14   C        95.4346   39.9515   78.3419  C     
15   C        96.7963   36.1908   81.1100  C     
16   C        94.6209   36.1036   82.1725  C     
17   C        94.0938   35.4567   81.0397  C     
18   C        96.2689   35.5327   79.9745  C     
19   O        94.2812   34.5243   78.8797  O     
20   C        94.0180   29.5875   72.3289  C     
21   C        91.9594   30.8892   71.8538  C     
22   C        93.9695   32.1240   72.9568  C     
23   C        94.9575   34.3043   77.6212  C     
24   C        96.4838   39.6379   77.4472  C     
25   C        94.5749   41.0294   78.0264  C     
26   C        93.6106   32.1892   74.4853  C     
27   C        94.8383   30.8870   72.5477  C     
28   C        92.7290   32.2241   72.0042  C     
29   C        93.9297   33.6540   76.6647  C     
30   C        94.5758   33.0478   75.3679  C     
31   C        94.7794   41.7917   76.8607  C     
32   C        96.6834   40.3929   76.2759  C     
33   C        95.8333   41.4751   75.9859  C     
34   H        95.0972   38.8988   83.4848  H     
35   H        97.6046   39.2672   81.9880  H     
36   H        97.5777   37.0969   83.5000  H     
37   H        96.0340   36.7854   84.3022  H     
38   H        95.8802   38.2817   79.5991  H     
39   H        94.2164   38.8403   79.6783  H     
40   H        93.2102   30.0020   70.4889  H     
41   H        92.3359   28.9279   71.4058  H     
42   H        97.7840   36.4719   81.0995  H     
43   H        94.0054   36.2988   82.9584  H     
44   H        93.0993   35.1924   81.0296  H     
45   H        96.8817   35.3338   79.1765  H     
46   H        93.6664   29.1933   73.2879  H     
47   H        94.6591   28.8311   71.8698  H     
48   H        91.1914   31.0071   71.0868  H     
49   H        91.4676   30.6250   72.7928  H     
50   H        94.5689   33.0172   72.7366  H     
51   H        95.2887   35.2463   77.1771  H     
52   H        95.8274   33.6466   77.7536  H     
53   H        97.1289   38.8773   77.6575  H     
54   H        93.8090   41.2843   78.6583  H     
55   H        92.5914   32.5856   74.5791  H     
56   H        93.5702   31.1630   74.8845  H     
57   H        95.6009   30.6930   73.3074  H     
58   H        95.3592   31.1158   71.6118  H     
59   H        93.0737   32.5200   71.0083  H     
60   H        92.0434   33.0010   72.3513  H     
61   H        93.3935   32.8504   77.1887  H     
62   H        93.2042   34.4168   76.3607  H     
63   H        95.4327   32.4230   75.6575  H     
64   H        94.9745   33.8773   74.7756  H     
65   H        94.1596   42.5783   76.6446  H     
66   H        97.4476   40.1547   75.6395  H     
67   H        95.9803   42.0255   75.1364  H     
@<TRIPOS>BOND
     1    1    3 1
     2    1    5 2
     3    1    6 2
     4    1    8 1
     5    2    3 1
     6    2    4 1
     7    2    7 1
     8    4   10 2
     9    4   12 1
    10    7   11 1
    11    8   14 1
    12    9   20 1
    13    9   21 1
    14   11   15 2
    15   11   16 1
    16   13   17 1
    17   13   18 2
    18   13   19 1
    19   14   24 2
    20   14   25 1
    21   15   18 1
    22   16   17 2
    23   19   23 1
    24   20   27 1
    25   21   28 1
    26   22   26 1
    27   22   27 1
    28   22   28 1
    29   23   29 1
    30   24   32 1
    31   25   31 2
    32   26   30 1
    33   29   30 1
    34   31   33 1
    35   32   33 2
    36    2   34 1
    37    3   35 1
    38    7   36 1
    39    7   37 1
    40    8   38 1
    41    8   39 1
    42    9   40 1
    43    9   41 1
    44   15   42 1
    45   16   43 1
    46   17   44 1
    47   18   45 1
    48   20   46 1
    49   20   47 1
    50   21   48 1
    51   21   49 1
    52   22   50 1
    53   23   51 1
    54   23   52 1
    55   24   53 1
    56   25   54 1
    57   26   55 1
    58   26   56 1
    59   27   57 1
    60   27   58 1
    61   28   59 1
    62   28   60 1
    63   29   61 1
    64   29   62 1
    65   30   63 1
    66   30   64 1
    67   31   65 1
    68   32   66 1
    69   33   67 1
@<TRIPOS>PROPERTY_DATA
  Total_Score	| 11.6562
  Crash		| -2.2286
  Polar		| 6.5755
  FragIndex	| 1
  FragRMSD	| 0.867

