@<TRIPOS>MOLECULE
BindingDB_50039600
 50 50 0 0 0
SMALL
NO_CHARGES


@<TRIPOS>ATOM
1    S        96.1658   39.7827   80.6961  S     
2    C        96.3169   38.7637   83.2591  C     
3    N        96.9642   39.2245   82.0721  N     
4    C        96.8620   39.4549   84.4486  C     
5    O        94.5994   39.5152   80.7735  O     
6    O        96.4311   41.3440   80.5641  O     
7    C        96.5085   37.2249   83.3821  C     
8    O        97.7485   40.4755   84.3644  O     
9    C        95.9165   36.4774   82.2376  C     
10   C        96.7759   38.9459   79.2235  C     
11   O        96.3870   39.1551   85.6743  O     
12   C        94.8019   34.9885   80.0637  C     
13   C        96.7090   36.0743   81.1423  C     
14   C        94.5506   36.1002   82.2308  C     
15   N        93.7772   31.2700   70.9426  N     
16   C        96.1735   35.3310   80.0753  C     
17   C        93.9955   35.3706   81.1588  C     
18   O        94.1893   34.2574   79.0702  O     
19   C        94.2993   31.2011   72.3141  C     
20   C        94.7064   34.4116   77.7221  C     
21   C        94.1131   32.5735   73.0242  C     
22   C        93.6213   33.9236   76.7351  C     
23   C        94.0949   33.9024   75.2473  C     
24   C        94.0217   32.4967   74.5785  C     
25   H        95.2449   38.9721   83.2285  H     
26   H        97.9301   39.1351   82.0304  H     
27   H        97.5775   36.9901   83.4487  H     
28   H        96.0391   36.8501   84.3001  H     
29   H        97.8643   39.0010   79.2006  H     
30   H        96.3676   39.4315   78.3390  H     
31   H        96.4651   37.9036   79.2348  H     
32   H        97.6870   36.3328   81.0959  H     
33   H        93.9380   36.3562   83.0139  H     
34   H        92.7578   31.3611   70.9833  H     
35   H        94.0128   30.4289   70.4129  H     
36   H        94.1593   32.0913   70.4711  H     
37   H        96.7824   35.0154   79.3073  H     
38   H        93.0004   35.0996   81.1826  H     
39   H        93.7638   30.4089   72.8457  H     
40   H        95.3623   30.9459   72.2808  H     
41   H        94.9808   35.4646   77.5245  H     
42   H        95.6028   33.7828   77.5877  H     
43   H        94.9530   33.2184   72.7398  H     
44   H        93.1943   33.0500   72.6613  H     
45   H        93.3280   32.9198   77.0551  H     
46   H        92.7568   34.5868   76.8215  H     
47   H        93.4842   34.6054   74.6680  H     
48   H        95.1362   34.2376   75.1613  H     
49   H        93.0769   32.0051   74.8453  H     
50   H        94.8431   31.8751   74.9562  H     
@<TRIPOS>BOND
     1    1    3 1
     2    1    5 2
     3    1    6 2
     4    1   10 1
     5    2    3 1
     6    2    4 1
     7    2    7 1
     8    4    8 2
     9    4   11 1
    10    7    9 1
    11    9   13 2
    12    9   14 1
    13   12   16 2
    14   12   17 1
    15   12   18 1
    16   13   16 1
    17   14   17 2
    18   15   19 1
    19   18   20 1
    20   19   21 1
    21   20   22 1
    22   21   24 1
    23   22   23 1
    24   23   24 1
    25    2   25 1
    26    3   26 1
    27    7   27 1
    28    7   28 1
    29   10   29 1
    30   10   30 1
    31   10   31 1
    32   13   32 1
    33   14   33 1
    34   15   34 1
    35   15   35 1
    36   15   36 1
    37   16   37 1
    38   17   38 1
    39   19   39 1
    40   19   40 1
    41   20   41 1
    42   20   42 1
    43   21   43 1
    44   21   44 1
    45   22   45 1
    46   22   46 1
    47   23   47 1
    48   23   48 1
    49   24   49 1
    50   24   50 1
@<TRIPOS>PROPERTY_DATA
  Total_Score	| 10.4175
  Crash		| -1.2635
  Polar		| 7.2893
  FragIndex	| 1
  FragRMSD	| 0.568

