@<TRIPOS>MOLECULE
BindingDB_50039592
 63 64 0 0 0
SMALL
NO_CHARGES


@<TRIPOS>ATOM
1    S        95.7970   40.1108   80.8684  S     
2    C        96.2257   38.7224   83.2206  C     
3    N        96.7386   39.2916   82.0098  N     
4    C        96.7954   39.3971   84.4088  C     
5    O        94.4477   40.6266   81.5464  O     
6    O        96.5546   41.4652   80.5324  O     
7    C        96.5152   37.1912   83.2623  C     
8    N        93.2944   30.2971   71.3823  N     
9    O        97.7326   40.3681   84.3249  O     
10   C        96.0273   36.4889   82.0383  C     
11   C        95.3806   39.2143   79.3426  C     
12   O        96.3424   39.0641   85.6350  O     
13   C        95.0635   35.3444   79.6178  C     
14   C        96.9044   36.2049   80.9708  C     
15   C        94.6553   36.1827   81.8760  C     
16   C        94.1783   35.6287   80.6725  C     
17   C        96.4369   35.6314   79.7765  C     
18   O        94.5995   34.9077   78.4055  O     
19   C        92.3980   31.4184   71.7370  C     
20   C        94.5553   30.2735   72.1550  C     
21   C        93.2791   31.3289   74.1718  C     
22   C        94.6367   33.4758   78.2347  C     
23   C        93.9355   32.7465   74.3557  C     
24   C        96.3399   39.5631   78.1655  C     
25   C        94.2820   30.2307   73.6844  C     
26   C        92.0241   31.3384   73.2382  C     
27   C        93.8687   33.0512   76.9543  C     
28   C        94.7448   32.9712   75.6707  C     
29   C        95.7409   39.2074   76.7792  C     
30   H        95.1396   38.8551   83.2681  H     
31   H        97.6986   39.2902   81.8745  H     
32   H        97.5925   37.0305   83.3817  H     
33   H        96.0299   36.7426   84.1372  H     
34   H        92.7955   29.4176   71.5497  H     
35   H        93.5153   30.3573   70.3858  H     
36   H        95.4282   38.1350   79.5439  H     
37   H        94.3526   39.4830   79.0540  H     
38   H        97.8927   36.4463   81.0484  H     
39   H        93.9819   36.4035   82.6127  H     
40   H        93.1793   35.4553   80.5475  H     
41   H        97.0910   35.4708   79.0086  H     
42   H        92.8810   32.3747   71.5131  H     
43   H        91.4916   31.3492   71.1293  H     
44   H        95.1082   29.3801   71.8605  H     
45   H        95.1609   31.1492   71.9027  H     
46   H        92.9212   31.0102   75.1553  H     
47   H        95.6734   33.1287   78.1802  H     
48   H        94.1515   32.9875   79.0888  H     
49   H        94.6037   32.9418   73.5120  H     
50   H        93.1611   33.5154   74.3162  H     
51   H        96.5543   40.6420   78.1757  H     
52   H        97.2832   39.0138   78.2894  H     
53   H        93.8615   29.2477   73.9217  H     
54   H        95.2307   30.3119   74.2187  H     
55   H        91.3584   32.1648   73.4919  H     
56   H        91.4629   30.4125   73.3984  H     
57   H        93.4304   32.0665   77.1397  H     
58   H        93.0505   33.7593   76.7885  H     
59   H        95.4848   32.1739   75.7855  H     
60   H        95.2910   33.9147   75.5738  H     
61   H        95.5044   38.1392   76.7251  H     
62   H        96.4632   39.4449   75.9898  H     
63   H        94.8257   39.7836   76.5973  H     
@<TRIPOS>BOND
     1    1    3 1
     2    1    5 2
     3    1    6 2
     4    1   11 1
     5    2    3 1
     6    2    4 1
     7    2    7 1
     8    4    9 2
     9    4   12 1
    10    7   10 1
    11    8   19 1
    12    8   20 1
    13   10   14 1
    14   10   15 2
    15   11   24 1
    16   13   16 2
    17   13   17 1
    18   13   18 1
    19   14   17 2
    20   15   16 1
    21   18   22 1
    22   19   26 1
    23   20   25 1
    24   21   23 1
    25   21   25 1
    26   21   26 1
    27   22   27 1
    28   23   28 1
    29   24   29 1
    30   27   28 1
    31    2   30 1
    32    3   31 1
    33    7   32 1
    34    7   33 1
    35    8   34 1
    36    8   35 1
    37   11   36 1
    38   11   37 1
    39   14   38 1
    40   15   39 1
    41   16   40 1
    42   17   41 1
    43   19   42 1
    44   19   43 1
    45   20   44 1
    46   20   45 1
    47   21   46 1
    48   22   47 1
    49   22   48 1
    50   23   49 1
    51   23   50 1
    52   24   51 1
    53   24   52 1
    54   25   53 1
    55   25   54 1
    56   26   55 1
    57   26   56 1
    58   27   57 1
    59   27   58 1
    60   28   59 1
    61   28   60 1
    62   29   61 1
    63   29   62 1
    64   29   63 1
@<TRIPOS>PROPERTY_DATA
  Total_Score	| 11.5727
  Crash		| -1.3080
  Polar		| 6.9957
  FragIndex	| 1
  FragRMSD	| 0.819

