@<TRIPOS>MOLECULE
BindingDB_50039576
 68 70 0 0 0
SMALL
NO_CHARGES


@<TRIPOS>ATOM
1    S        95.4582   39.8184   80.9236  S     
2    C        96.2700   38.7295   83.2972  C     
3    N        96.6115   39.3854   82.0661  N     
4    C        96.8537   39.4295   84.4610  C     
5    C        96.1187   40.2649   79.4198  C     
6    O        94.4889   38.5870   80.6511  O     
7    O        94.5869   41.0368   81.4786  O     
8    C        95.3443   40.3250   78.3140  C     
9    C        96.7495   37.2471   83.2672  C     
10   N        93.2822   30.0602   71.4625  N     
11   O        97.7422   40.4438   84.3287  O     
12   C        96.1290   36.4776   82.1545  C     
13   O        96.4386   39.1081   85.7027  O     
14   C        95.7556   40.8342   77.0893  C     
15   C        94.8719   35.1735   79.9504  C     
16   C        94.7718   36.0889   82.2206  C     
17   C        96.8624   36.1696   80.9909  C     
18   C        96.2418   35.5183   79.9032  C     
19   C        94.1514   35.4403   81.1310  C     
20   O        94.1799   34.5804   78.9191  O     
21   C        92.3478   31.1848   71.6546  C     
22   C        94.5011   30.1578   72.2877  C     
23   C        93.1545   31.4475   74.1122  C     
24   C        94.8242   34.4110   77.6529  C     
25   C        96.8298   40.2806   76.3547  C     
26   C        95.0913   41.9732   76.5575  C     
27   C        93.7523   32.8930   74.0902  C     
28   C        91.9282   31.2832   73.1438  C     
29   C        94.1723   30.2961   73.8020  C     
30   C        93.8701   33.7479   76.5985  C     
31   C        94.6339   33.3470   75.2996  C     
32   C        95.5378   42.5695   75.3671  C     
33   C        97.2631   40.8687   75.1575  C     
34   C        96.6269   42.0256   74.6691  C     
35   H        95.1787   38.7501   83.4470  H     
36   H        97.5481   39.4307   81.8130  H     
37   H        97.0822   40.5351   79.3868  H     
38   H        94.3744   40.1184   78.4218  H     
39   H        97.8465   37.2336   83.1753  H     
40   H        96.5004   36.7467   84.2150  H     
41   H        92.8040   29.1848   71.6945  H     
42   H        93.5632   30.0095   70.4849  H     
43   H        94.2146   36.2970   83.0600  H     
44   H        97.8441   36.4402   80.9117  H     
45   H        96.7941   35.3067   79.0669  H     
46   H        93.1564   35.1890   81.2046  H     
47   H        92.7995   32.1181   71.3199  H     
48   H        91.4587   31.0056   71.0447  H     
49   H        95.0841   29.2509   72.1297  H     
50   H        95.1097   31.0037   71.9580  H     
51   H        92.7693   31.2817   75.1314  H     
52   H        95.1410   35.3705   77.2587  H     
53   H        95.7066   33.7757   77.7807  H     
54   H        97.3030   39.4334   76.6897  H     
55   H        94.2994   42.3953   77.0542  H     
56   H        94.3617   32.9995   73.1836  H     
57   H        92.9415   33.6171   74.0120  H     
58   H        91.2258   32.1165   73.2801  H     
59   H        91.3958   30.3681   73.4122  H     
60   H        93.7365   29.3514   74.1421  H     
61   H        95.0945   30.4453   74.3695  H     
62   H        93.4227   32.8502   77.0354  H     
63   H        93.0780   34.4606   76.3420  H     
64   H        95.3600   32.5591   75.5353  H     
65   H        95.2068   34.2208   74.9673  H     
66   H        95.0618   43.3982   75.0082  H     
67   H        98.0418   40.4582   74.6427  H     
68   H        96.9460   42.4541   73.8013  H     
@<TRIPOS>BOND
     1    1    3 1
     2    1    5 1
     3    1    6 2
     4    1    7 2
     5    2    3 1
     6    2    4 1
     7    2    9 1
     8    4   11 2
     9    4   13 1
    10    5    8 2
    11    8   14 1
    12    9   12 1
    13   10   21 1
    14   10   22 1
    15   12   16 1
    16   12   17 2
    17   14   25 2
    18   14   26 1
    19   15   18 2
    20   15   19 1
    21   15   20 1
    22   16   19 2
    23   17   18 1
    24   20   24 1
    25   21   28 1
    26   22   29 1
    27   23   27 1
    28   23   28 1
    29   23   29 1
    30   24   30 1
    31   25   33 1
    32   26   32 2
    33   27   31 1
    34   30   31 1
    35   32   34 1
    36   33   34 2
    37    2   35 1
    38    3   36 1
    39    5   37 1
    40    8   38 1
    41    9   39 1
    42    9   40 1
    43   10   41 1
    44   10   42 1
    45   16   43 1
    46   17   44 1
    47   18   45 1
    48   19   46 1
    49   21   47 1
    50   21   48 1
    51   22   49 1
    52   22   50 1
    53   23   51 1
    54   24   52 1
    55   24   53 1
    56   25   54 1
    57   26   55 1
    58   27   56 1
    59   27   57 1
    60   28   58 1
    61   28   59 1
    62   29   60 1
    63   29   61 1
    64   30   62 1
    65   30   63 1
    66   31   64 1
    67   31   65 1
    68   32   66 1
    69   33   67 1
    70   34   68 1
@<TRIPOS>PROPERTY_DATA
  Total_Score	| 11.7679
  Crash		| -1.9953
  Polar		| 6.4467
  FragIndex	| 1
  FragRMSD	| 0.718

