@<TRIPOS>MOLECULE
BindingDB_50039590
 64 66 0 0 0
SMALL
NO_CHARGES


@<TRIPOS>ATOM
1    S        95.7603   40.1081   80.9343  S     
2    N        96.6785   39.1967   82.0148  N     
3    C        96.2093   38.6956   83.2706  C     
4    C        96.8373   39.4195   84.4012  C     
5    O        96.5091   41.5016   80.7790  O     
6    O        94.3507   40.5053   81.5626  O     
7    C        95.5108   39.3852   79.3649  C     
8    C        96.4943   37.1648   83.3522  C     
9    N        93.1996   30.1068   71.3744  N     
10   O        97.7238   40.4301   84.2312  O     
11   C        95.9312   36.4184   82.1912  C     
12   O        96.4361   39.1586   85.6618  O     
13   C        94.8256   35.0711   79.9383  C     
14   C        94.5725   36.0239   82.1798  C     
15   C        96.7325   36.1102   81.0651  C     
16   C        96.1944   35.4317   79.9555  C     
17   C        94.0282   35.3621   81.0655  C     
18   O        94.1743   34.4616   78.8902  O     
19   C        92.2297   31.1757   71.7125  C     
20   C        94.4720   30.1813   72.1271  C     
21   C        93.2053   31.2808   74.1101  C     
22   C        96.1458   39.9212   78.2201  C     
23   C        94.6610   38.2617   79.2223  C     
24   C        94.8641   34.2742   77.6351  C     
25   C        93.7666   32.7471   74.1243  C     
26   C        91.9157   31.1616   73.2330  C     
27   C        94.2271   30.1851   73.6634  C     
28   C        93.9090   33.6106   76.6104  C     
29   C        94.6598   33.1662   75.3247  C     
30   C        94.4484   37.6931   77.9505  C     
31   C        95.9386   39.3429   76.9524  C     
32   C        95.0953   38.2217   76.8162  C     
33   H        97.6255   39.1033   81.8227  H     
34   H        95.1269   38.8425   83.3613  H     
35   H        97.5808   37.0077   83.4143  H     
36   H        96.0672   36.7560   84.2753  H     
37   H        92.7638   29.2006   71.5586  H     
38   H        93.4047   30.1663   70.3712  H     
39   H        93.9681   36.2300   82.9768  H     
40   H        97.7149   36.3947   81.0497  H     
41   H        96.7871   35.2177   79.1456  H     
42   H        93.0373   35.0960   81.0698  H     
43   H        92.6224   32.1460   71.4113  H     
44   H        91.3086   30.9970   71.1554  H     
45   H        95.0671   29.3069   71.8539  H     
46   H        95.0284   31.0701   71.8266  H     
47   H        92.9071   31.0392   75.1362  H     
48   H        96.7586   40.7401   78.3022  H     
49   H        94.1894   37.8554   80.0364  H     
50   H        95.2103   35.2506   77.2556  H     
51   H        95.7398   33.6227   77.7854  H     
52   H        94.3486   32.9043   73.2059  H     
53   H        92.9256   33.4463   74.0907  H     
54   H        91.2178   31.9716   73.4678  H     
55   H        91.4108   30.2206   73.4726  H     
56   H        93.8360   29.2007   73.9393  H     
57   H        95.1822   30.3045   74.1753  H     
58   H        93.4511   32.7267   77.0824  H     
59   H        93.1139   34.3204   76.3380  H     
60   H        95.3344   32.3435   75.5720  H     
61   H        95.2753   34.0006   74.9710  H     
62   H        93.8279   36.8851   77.8481  H     
63   H        96.4054   39.7404   76.1276  H     
64   H        94.9519   37.8025   75.8919  H     
@<TRIPOS>BOND
     1    1    2 1
     2    1    5 2
     3    1    6 2
     4    1    7 1
     5    3    2 1
     6    3    4 1
     7    3    8 1
     8    4   10 2
     9    4   12 1
    10    7   22 2
    11    7   23 1
    12    8   11 1
    13    9   19 1
    14    9   20 1
    15   11   14 1
    16   11   15 2
    17   13   16 2
    18   13   17 1
    19   13   18 1
    20   14   17 2
    21   15   16 1
    22   18   24 1
    23   19   26 1
    24   20   27 1
    25   21   25 1
    26   21   26 1
    27   21   27 1
    28   22   31 1
    29   23   30 2
    30   24   28 1
    31   25   29 1
    32   28   29 1
    33   30   32 1
    34   31   32 2
    35    2   33 1
    36    3   34 1
    37    8   35 1
    38    8   36 1
    39    9   37 1
    40    9   38 1
    41   14   39 1
    42   15   40 1
    43   16   41 1
    44   17   42 1
    45   19   43 1
    46   19   44 1
    47   20   45 1
    48   20   46 1
    49   21   47 1
    50   22   48 1
    51   23   49 1
    52   24   50 1
    53   24   51 1
    54   25   52 1
    55   25   53 1
    56   26   54 1
    57   26   55 1
    58   27   56 1
    59   27   57 1
    60   28   58 1
    61   28   59 1
    62   29   60 1
    63   29   61 1
    64   30   62 1
    65   31   63 1
    66   32   64 1
@<TRIPOS>PROPERTY_DATA
  Total_Score	| 11.7151
  Crash		| -1.4461
  Polar		| 7.1911
  FragIndex	| 1
  FragRMSD	| 0.702

