@<TRIPOS>MOLECULE
BindingDB_50339800
 69 73 0 0 0
SMALL
NO_CHARGES


@<TRIPOS>ATOM
1    C       -26.7949    9.9242   21.2910  C     
2    C       -26.1167    9.4316   20.1570  C     
3    C       -26.9577    7.6706   22.2032  C     
4    C       -27.2076    9.0608   22.3321  C     
5    C       -26.3082    7.1919   21.0572  C     
6    C       -25.8776    8.0458   20.0454  C     
7    N       -25.2506    7.2799   19.1277  N     
8    C       -25.3313    6.0019   19.5641  C     
9    N       -25.9674    5.9372   20.7433  N     
10   C       -24.6272    7.6663   17.9709  C     
11   C       -25.2609    8.5509   17.0700  C     
12   C       -24.6669    8.8992   15.8433  C     
13   C       -23.4232    8.3212   15.4728  C     
14   C       -22.7678    7.4632   16.3927  C     
15   C       -23.3594    7.1498   17.6229  C     
16   C       -22.8675    8.5013   14.2117  C     
17   O       -23.4635    8.1391   13.2116  O     
18   N       -21.6571    8.9896   14.0449  N     
19   O       -25.4230    9.6784   15.0060  O     
20   C       -25.1822   11.1017   14.8484  C     
21   C       -25.3704   11.9189   16.1118  C     
22   C       -23.8955   11.3366   14.0077  C     
23   C       -24.2641   12.6407   16.6352  C     
24   C       -24.3571   13.4345   17.7888  C     
25   C       -25.5784   13.5212   18.4651  C     
26   C       -26.6954   12.8255   17.9834  C     
27   C       -26.6262   12.0199   16.8119  C     
28   C       -27.9000   11.3920   16.3259  C     
29   F       -28.9719   11.4734   17.1945  F     
30   F       -28.3152   12.0146   15.1729  F     
31   F       -27.7541   10.0526   16.0781  F     
32   O       -27.7524    9.6586   23.4478  O     
33   C       -28.5587    8.9240   24.4028  C     
34   C       -28.7150    9.7923   25.6820  C     
35   C       -29.6794   10.9889   25.4565  C     
36   N       -31.0167   10.5836   24.9167  N     
37   C       -30.8863    9.7517   23.6782  C     
38   C       -29.9520    8.5218   23.8399  C     
39   C       -31.9322   10.0018   25.9426  C     
40   H       -26.9591   10.9325   21.3752  H     
41   H       -25.8005   10.0759   19.4290  H     
42   H       -27.2079    7.0083   22.9315  H     
43   H       -24.9644    5.1838   19.0738  H     
44   H       -26.1992    8.8929   17.2807  H     
45   H       -21.8720    7.0231   16.1616  H     
46   H       -22.8691    6.5180   18.2676  H     
47   H       -21.2822    9.1018   13.1539  H     
48   H       -21.1349    9.2818   14.8082  H     
49   H       -25.9616   11.4275   14.1578  H     
50   H       -23.0035   11.0445   14.5660  H     
51   H       -23.8011   12.3893   13.7420  H     
52   H       -23.9398   10.7396   13.0901  H     
53   H       -23.3583   12.6334   16.1768  H     
54   H       -23.5428   13.9583   18.1208  H     
55   H       -25.6553   14.1090   19.2972  H     
56   H       -27.5718   12.9468   18.4984  H     
57   H       -28.0212    8.0245   24.7151  H     
58   H       -29.0982    9.1703   26.4938  H     
59   H       -27.7349   10.1704   25.9893  H     
60   H       -29.8003   11.5354   26.3980  H     
61   H       -29.2194   11.6863   24.7474  H     
62   H       -31.4699   11.4483   24.6212  H     
63   H       -31.8705    9.4098   23.3436  H     
64   H       -30.4880   10.3892   22.8821  H     
65   H       -29.8366    8.0264   22.8717  H     
66   H       -30.4142    7.8029   24.5171  H     
67   H       -31.5506    9.0637   26.3444  H     
68   H       -32.9166    9.8179   25.5095  H     
69   H       -32.0677   10.7035   26.7679  H     
@<TRIPOS>BOND
     1    1    2 2
     2    1    4 1
     3    2    6 1
     4    3    4 2
     5    3    5 1
     6    4   32 1
     7    5    6 2
     8    5    9 1
     9    6    7 1
    10    7    8 1
    11    7   10 1
    12    8    9 2
    13   10   11 2
    14   10   15 1
    15   11   12 1
    16   12   13 2
    17   12   19 1
    18   13   14 1
    19   13   16 1
    20   14   15 2
    21   16   17 2
    22   16   18 am
    23   19   20 1
    24   20   21 1
    25   20   22 1
    26   21   23 2
    27   21   27 1
    28   23   24 1
    29   24   25 2
    30   25   26 1
    31   26   27 2
    32   27   28 1
    33   28   29 1
    34   28   30 1
    35   28   31 1
    36   32   33 1
    37   33   34 1
    38   33   38 1
    39   34   35 1
    40   35   36 1
    41   36   37 1
    42   36   39 1
    43   37   38 1
    44    1   40 1
    45    2   41 1
    46    3   42 1
    47    8   43 1
    48   11   44 1
    49   14   45 1
    50   15   46 1
    51   18   47 1
    52   18   48 1
    53   20   49 1
    54   22   50 1
    55   22   51 1
    56   22   52 1
    57   23   53 1
    58   24   54 1
    59   25   55 1
    60   26   56 1
    61   33   57 1
    62   34   58 1
    63   34   59 1
    64   35   60 1
    65   35   61 1
    66   36   62 1
    67   37   63 1
    68   37   64 1
    69   38   65 1
    70   38   66 1
    71   39   67 1
    72   39   68 1
    73   39   69 1
@<TRIPOS>PROPERTY_DATA
  Total_Score	| 7.2896
  Crash		| -1.3796
  Polar		| 3.0981
  FragIndex	| 1
  FragRMSD	| 1.213

