@<TRIPOS>MOLECULE
BindingDB_50339799
 69 73 0 0 0
SMALL
NO_CHARGES


@<TRIPOS>ATOM
1    C       -26.8032   13.0138   23.0221  C     
2    N       -27.1833   14.3332   22.4410  N     
3    C       -27.8454   14.1791   21.1150  C     
4    C       -29.0416   13.1910   21.1178  C     
5    C       -28.6589   11.8097   21.7192  C     
6    C       -27.9833   12.0130   23.1095  C     
7    C       -27.9157   15.2289   23.3841  C     
8    O       -27.8118   11.1170   20.7645  O     
9    C       -27.4609    9.7853   20.8722  C     
10   C       -26.6399    9.2641   19.8413  C     
11   C       -27.4255    7.5781   21.9663  C     
12   C       -27.8635    8.9072   21.9189  C     
13   C       -26.6281    7.0893   20.9190  C     
14   C       -26.2487    7.9045   19.8487  C     
15   N       -25.4854    7.1323   19.0393  N     
16   C       -25.4229    5.9071   19.6008  C     
17   N       -26.1005    5.8740   20.7632  N     
18   C       -24.7870    7.5051   17.9177  C     
19   C       -25.2967    8.4314   16.9766  C     
20   C       -24.4842    8.9554   15.9338  C     
21   C       -23.2143    8.3592   15.6764  C     
22   C       -22.7503    7.3621   16.5680  C     
23   C       -23.4910    6.9808   17.6953  C     
24   C       -22.3993    8.7564   14.6021  C     
25   O       -22.4979    9.8603   14.0866  O     
26   N       -21.4731    7.9859   14.0641  N     
27   O       -24.9207    9.9720   15.1038  O     
28   C       -26.0581   10.8103   15.4053  C     
29   C       -25.9418   11.8445   16.4921  C     
30   C       -26.4631   11.5077   14.0733  C     
31   C       -24.6775   12.4594   16.7028  C     
32   C       -24.5313   13.5430   17.5774  C     
33   C       -25.6585   14.0919   18.2081  C     
34   C       -26.9221   13.5195   17.9768  C     
35   C       -27.0954   12.3621   17.1764  C     
36   C       -28.4630   11.7351   17.1025  C     
37   F       -29.4600   12.4050   17.7818  F     
38   F       -28.9293   11.6262   15.8050  F     
39   F       -28.4202   10.4698   17.6448  F     
40   H       -26.0288   12.5703   22.3852  H     
41   H       -26.3685   13.1546   24.0147  H     
42   H       -26.2948   14.7871   22.2240  H     
43   H       -28.1694   15.1481   20.7191  H     
44   H       -27.0713   13.8053   20.4489  H     
45   H       -29.8540   13.6366   21.6992  H     
46   H       -29.4066   13.0550   20.1003  H     
47   H       -29.5904   11.2545   21.8419  H     
48   H       -27.5954   11.0709   23.5043  H     
49   H       -28.7281   12.3782   23.8178  H     
50   H       -28.8927   14.8214   23.6476  H     
51   H       -28.0624   16.2143   22.9390  H     
52   H       -27.3407   15.3619   24.3030  H     
53   H       -26.3272    9.8886   19.0964  H     
54   H       -27.6605    6.9867   22.7645  H     
55   H       -28.4612    9.2310   22.6788  H     
56   H       -24.9130    5.1047   19.2262  H     
57   H       -26.2839    8.7360   17.0049  H     
58   H       -21.8211    6.9486   16.4592  H     
59   H       -23.0631    6.3350   18.3633  H     
60   H       -20.9230    8.3230   13.3333  H     
61   H       -21.3256    7.0833   14.3898  H     
62   H       -26.8342   10.1049   15.6963  H     
63   H       -25.6486   12.1470   13.7102  H     
64   H       -27.3601   12.1432   14.2208  H     
65   H       -26.6855   10.7465   13.3161  H     
66   H       -23.8534   12.1499   16.1886  H     
67   H       -23.6089   13.9587   17.7188  H     
68   H       -25.5541   14.9078   18.8184  H     
69   H       -27.7297   13.9697   18.3940  H     
@<TRIPOS>BOND
     1    1    2 1
     2    1    6 1
     3    2    3 1
     4    2    7 1
     5    3    4 1
     6    4    5 1
     7    5    6 1
     8    5    8 1
     9    8    9 1
    10    9   10 2
    11    9   12 1
    12   10   14 1
    13   11   12 2
    14   11   13 1
    15   13   14 2
    16   13   17 1
    17   14   15 1
    18   15   16 1
    19   15   18 1
    20   16   17 2
    21   18   19 2
    22   18   23 1
    23   19   20 1
    24   20   21 2
    25   20   27 1
    26   21   22 1
    27   21   24 1
    28   22   23 2
    29   24   25 2
    30   24   26 am
    31   27   28 1
    32   28   29 1
    33   28   30 1
    34   29   31 2
    35   29   35 1
    36   31   32 1
    37   32   33 2
    38   33   34 1
    39   34   35 2
    40   35   36 1
    41   36   37 1
    42   36   38 1
    43   36   39 1
    44    1   40 1
    45    1   41 1
    46    2   42 1
    47    3   43 1
    48    3   44 1
    49    4   45 1
    50    4   46 1
    51    5   47 1
    52    6   48 1
    53    6   49 1
    54    7   50 1
    55    7   51 1
    56    7   52 1
    57   10   53 1
    58   11   54 1
    59   12   55 1
    60   16   56 1
    61   19   57 1
    62   22   58 1
    63   23   59 1
    64   26   60 1
    65   26   61 1
    66   28   62 1
    67   30   63 1
    68   30   64 1
    69   30   65 1
    70   31   66 1
    71   32   67 1
    72   33   68 1
    73   34   69 1
@<TRIPOS>PROPERTY_DATA
  Total_Score	| 7.7091
  Crash		| -1.9035
  Polar		| 3.7878
  FragIndex	| 1
  FragRMSD	| 0.845

