@<TRIPOS>MOLECULE
BindingDB_50339798
 46 49 0 0 0
SMALL
NO_CHARGES


@<TRIPOS>ATOM
1    C       -26.8827    9.9779   21.6755  C     
2    C       -26.2403    9.5385   20.4994  C     
3    C       -26.9995    7.6787   22.5027  C     
4    C       -27.2552    9.0532   22.6751  C     
5    C       -26.3665    7.2573   21.3213  C     
6    C       -25.9977    8.1597   20.3205  C     
7    N       -25.4277    7.4401   19.3305  N     
8    C       -25.4363    6.1496   19.7359  C     
9    N       -26.0108    6.0245   20.9426  N     
10   C       -24.9790    7.8658   18.1138  C     
11   C       -25.5490    8.8484   17.2970  C     
12   C       -24.9706    9.0041   16.0225  C     
13   C       -23.9143    8.1125   15.7606  C     
14   S       -23.7110    7.1672   17.1868  S     
15   C       -23.2334    7.8792   14.5808  C     
16   N       -22.1976    7.0749   14.5145  N     
17   O       -23.6095    8.3686   13.5297  O     
18   O       -25.5845    9.7888   15.0787  O     
19   C       -25.2252   11.1786   14.9100  C     
20   C       -25.4155   12.0346   16.1417  C     
21   C       -23.8761   11.2715   14.1426  C     
22   C       -26.6818   12.1707   16.8124  C     
23   C       -26.7453   12.9742   17.9844  C     
24   C       -25.6228   13.6512   18.4795  C     
25   C       -24.3997   13.5381   17.8132  C     
26   C       -24.2985   12.7312   16.6717  C     
27   C       -27.9574   11.5547   16.3094  C     
28   F       -29.0603   11.7237   17.1143  F     
29   F       -28.3056   12.1109   15.1038  F     
30   F       -27.8570   10.1976   16.1547  F     
31   H       -27.0739   10.9734   21.8075  H     
32   H       -25.9510   10.2218   19.7988  H     
33   H       -27.2629    7.0038   23.2235  H     
34   H       -27.7158    9.3808   23.5270  H     
35   H       -25.0843    5.3517   19.2020  H     
36   H       -26.3840    9.3631   17.5756  H     
37   H       -21.7836    6.8968   13.6554  H     
38   H       -21.8547    6.6476   15.3139  H     
39   H       -25.9357   11.5574   14.1752  H     
40   H       -23.0657   10.8140   14.7105  H     
41   H       -23.6238   12.3142   13.9400  H     
42   H       -23.9596   10.7514   13.1865  H     
43   H       -27.6219   13.0982   18.4944  H     
44   H       -25.7007   14.2330   19.3206  H     
45   H       -23.5835   14.0477   18.1532  H     
46   H       -23.3817   12.6860   16.2278  H     
@<TRIPOS>BOND
     1    1    2 2
     2    1    4 1
     3    2    6 1
     4    3    4 2
     5    3    5 1
     6    5    6 2
     7    5    9 1
     8    6    7 1
     9    7    8 1
    10    7   10 1
    11    8    9 2
    12   10   11 2
    13   10   14 1
    14   11   12 1
    15   12   13 2
    16   12   18 1
    17   13   14 1
    18   13   15 1
    19   15   16 am
    20   15   17 2
    21   18   19 1
    22   19   20 1
    23   19   21 1
    24   20   22 2
    25   20   26 1
    26   22   23 1
    27   22   27 1
    28   23   24 2
    29   24   25 1
    30   25   26 2
    31   27   28 1
    32   27   29 1
    33   27   30 1
    34    1   31 1
    35    2   32 1
    36    3   33 1
    37    4   34 1
    38    8   35 1
    39   11   36 1
    40   16   37 1
    41   16   38 1
    42   19   39 1
    43   21   40 1
    44   21   41 1
    45   21   42 1
    46   23   43 1
    47   24   44 1
    48   25   45 1
    49   26   46 1
@<TRIPOS>PROPERTY_DATA
  Total_Score	| 4.3293
  Crash		| -1.1191
  Polar		| 2.1249
  FragIndex	| 1
  FragRMSD	| 1.125

