@<TRIPOS>MOLECULE
BindingDB_50339796
 50 53 0 0 0
SMALL
NO_CHARGES


@<TRIPOS>ATOM
1    C       -26.7402   13.0521   22.7522  C     
2    N       -27.3221   14.2985   22.1629  N     
3    C       -27.9758   14.0230   20.8484  C     
4    C       -29.0272   12.8786   20.9083  C     
5    C       -28.4749   11.5865   21.5723  C     
6    C       -27.7696   11.9085   22.9171  C     
7    C       -28.1670   15.0929   23.1059  C     
8    O       -27.5820   10.9480   20.6289  O     
9    C       -27.1739    9.6303   20.7276  C     
10   C       -26.3788    9.1665   19.6497  C     
11   C       -27.0415    7.4141   21.7692  C     
12   C       -27.5069    8.7301   21.7797  C     
13   C       -26.2786    6.9816   20.6744  C     
14   C       -25.9352    7.8228   19.6076  C     
15   N       -25.1906    7.0808   18.7444  N     
16   C       -25.1100    5.8441   19.3065  C     
17   N       -25.7542    5.7755   20.4762  N     
18   C       -24.5782    7.3979   17.5447  C     
19   C       -24.6427    8.5426   16.7376  C     
20   C       -23.8625    8.5359   15.5584  C     
21   C       -23.1232    7.3530   15.3581  C     
22   S       -23.4843    6.3579   16.7110  S     
23   C       -22.2650    6.9638   14.3428  C     
24   N       -22.0545    7.6617   13.2438  N     
25   O       -21.6815    5.8895   14.4118  O     
26   O       -23.7118    9.6401   14.7630  O     
27   C       -24.9075   10.1188   14.1268  C     
28   H       -25.9396   12.7050   22.0955  H     
29   H       -26.2819   13.2688   23.7170  H     
30   H       -26.5034   14.8777   21.9578  H     
31   H       -28.4523   14.9278   20.4617  H     
32   H       -27.1986   13.7463   20.1314  H     
33   H       -29.8976   13.2246   21.4751  H     
34   H       -29.3729   12.6532   19.8938  H     
35   H       -29.3415   10.9393   21.7512  H     
36   H       -27.2524   11.0248   23.2925  H     
37   H       -28.5205   12.1863   23.6564  H     
38   H       -29.0851   14.5690   23.3795  H     
39   H       -28.4383   16.0495   22.6531  H     
40   H       -27.6107   15.3131   24.0208  H     
41   H       -26.1454    9.8245   18.9156  H     
42   H       -27.2476    6.7782   22.5423  H     
43   H       -28.0910    9.0198   22.5714  H     
44   H       -24.6195    5.0350   18.9294  H     
45   H       -25.2057    9.3500   16.9628  H     
46   H       -21.4843    7.2996   12.5377  H     
47   H       -22.4979    8.5134   13.1056  H     
48   H       -25.3446    9.3461   13.4916  H     
49   H       -24.6441   10.9674   13.4956  H     
50   H       -25.6462   10.4583   14.8562  H     
@<TRIPOS>BOND
     1    1    2 1
     2    1    6 1
     3    2    3 1
     4    2    7 1
     5    3    4 1
     6    4    5 1
     7    5    6 1
     8    5    8 1
     9    8    9 1
    10    9   10 2
    11    9   12 1
    12   10   14 1
    13   11   12 2
    14   11   13 1
    15   13   14 2
    16   13   17 1
    17   14   15 1
    18   15   16 1
    19   15   18 1
    20   16   17 2
    21   18   19 2
    22   18   22 1
    23   19   20 1
    24   20   21 2
    25   20   26 1
    26   21   22 1
    27   21   23 1
    28   23   24 am
    29   23   25 2
    30   26   27 1
    31    1   28 1
    32    1   29 1
    33    2   30 1
    34    3   31 1
    35    3   32 1
    36    4   33 1
    37    4   34 1
    38    5   35 1
    39    6   36 1
    40    6   37 1
    41    7   38 1
    42    7   39 1
    43    7   40 1
    44   10   41 1
    45   11   42 1
    46   12   43 1
    47   16   44 1
    48   19   45 1
    49   24   46 1
    50   24   47 1
    51   27   48 1
    52   27   49 1
    53   27   50 1
@<TRIPOS>PROPERTY_DATA
  Total_Score	| 5.7590
  Crash		| -1.1977
  Polar		| 3.6687
  FragIndex	| 1
  FragRMSD	| 1.428

