@<TRIPOS>MOLECULE
BindingDB_50339795
 63 67 0 0 0
SMALL
NO_CHARGES


@<TRIPOS>ATOM
1    C       -29.3401   15.4534   22.2296  C     
2    N       -28.0394   14.7274   22.1320  N     
3    C       -27.7285   13.8741   23.3206  C     
4    C       -28.5367   12.5480   23.3588  C     
5    C       -28.3795   11.7397   22.0430  C     
6    O       -27.0180   11.2423   21.9848  O     
7    C       -26.8412    9.9068   21.7345  C     
8    C       -27.1958    8.9314   22.6962  C     
9    C       -26.9284    7.5708   22.4731  C     
10   C       -26.2977    7.2026   21.2675  C     
11   N       -25.9303    5.9892   20.8530  N     
12   C       -25.3466    6.1615   19.6543  C     
13   N       -25.3311    7.4653   19.2971  N     
14   C       -24.8579    7.9110   18.1063  C     
15   C       -25.3953    8.9349   17.3109  C     
16   C       -24.8871    9.0169   16.0060  C     
17   O       -25.5506    9.7620   15.0760  O     
18   C       -25.1705   11.1423   14.9657  C     
19   C       -25.4355   12.0122   16.1579  C     
20   C       -24.3228   12.7187   16.6851  C     
21   C       -24.4738   13.6610   17.7150  C     
22   C       -25.7558   13.9411   18.2050  C     
23   C       -26.8666   13.2454   17.7098  C     
24   C       -26.7408   12.2368   16.7146  C     
25   C       -27.9770   11.4962   16.2847  C     
26   F       -29.1331   11.8323   16.9493  F     
27   F       -28.2337   11.7134   14.9545  F     
28   F       -27.8411   10.1227   16.5102  F     
29   C       -23.8283    8.1214   15.7276  C     
30   C       -23.1293    7.9123   14.5548  C     
31   N       -23.3695    8.5488   13.4368  N     
32   O       -22.1850    7.1205   14.5454  O     
33   S       -23.6279    7.1702   17.1493  S     
34   C       -25.9324    8.1465   20.3055  C     
35   C       -26.1933    9.5104   20.5345  C     
36   C       -28.6577   12.6281   20.8019  C     
37   C       -27.8690   13.9656   20.8564  C     
38   H       -30.1934   14.7714   22.2651  H     
39   H       -29.4664   16.1200   21.3732  H     
40   H       -29.3528   16.0711   23.1300  H     
41   H       -27.3205   15.4586   22.1230  H     
42   H       -26.6602   13.6367   23.3016  H     
43   H       -27.9031   14.4323   24.2450  H     
44   H       -28.1929   11.9438   24.2022  H     
45   H       -29.5920   12.7741   23.5267  H     
46   H       -29.1282   10.9364   22.0559  H     
47   H       -27.6356    9.2134   23.5760  H     
48   H       -27.1553    6.8654   23.1764  H     
49   H       -24.9952    5.3874   19.0846  H     
50   H       -26.1857    9.5339   17.5957  H     
51   H       -24.1162   11.1787   14.6668  H     
52   H       -25.7223   11.5564   14.1194  H     
53   H       -23.3819   12.5806   16.3082  H     
54   H       -23.6583   14.1585   18.0793  H     
55   H       -25.8737   14.6739   18.9119  H     
56   H       -27.7799   13.5031   18.0799  H     
57   H       -22.8145    8.3916   12.6538  H     
58   H       -24.0909    9.1991   13.3819  H     
59   H       -25.8822   10.2227   19.8719  H     
60   H       -28.3861   12.0757   19.8977  H     
61   H       -29.7242   12.8455   20.7406  H     
62   H       -28.1515   14.5888   20.0026  H     
63   H       -26.8058   13.7365   20.7472  H     
@<TRIPOS>BOND
     1    1    2 1
     2    2    3 1
     3    2   37 1
     4    3    4 1
     5    4    5 1
     6    5    6 1
     7    5   36 1
     8    6    7 1
     9    7    8 1
    10    7   35 2
    11    8    9 2
    12    9   10 1
    13   10   11 1
    14   10   34 2
    15   11   12 2
    16   12   13 1
    17   13   14 1
    18   13   34 1
    19   14   15 2
    20   14   33 1
    21   15   16 1
    22   16   17 1
    23   16   29 2
    24   17   18 1
    25   18   19 1
    26   19   20 2
    27   19   24 1
    28   20   21 1
    29   21   22 2
    30   22   23 1
    31   23   24 2
    32   24   25 1
    33   25   26 1
    34   25   27 1
    35   25   28 1
    36   29   30 1
    37   29   33 1
    38   30   31 am
    39   30   32 2
    40   34   35 1
    41   36   37 1
    42    1   38 1
    43    1   39 1
    44    1   40 1
    45    2   41 1
    46    3   42 1
    47    3   43 1
    48    4   44 1
    49    4   45 1
    50    5   46 1
    51    8   47 1
    52    9   48 1
    53   12   49 1
    54   15   50 1
    55   18   51 1
    56   18   52 1
    57   20   53 1
    58   21   54 1
    59   22   55 1
    60   23   56 1
    61   31   57 1
    62   31   58 1
    63   35   59 1
    64   36   60 1
    65   36   61 1
    66   37   62 1
    67   37   63 1
@<TRIPOS>PROPERTY_DATA
  Total_Score	| 6.1447
  Crash		| -1.1499
  Polar		| 3.6542
  FragIndex	| 1
  FragRMSD	| 1.166

