@<TRIPOS>MOLECULE
BindingDB_50339794
 63 67 0 0 0
SMALL
NO_CHARGES


@<TRIPOS>ATOM
1    C       -26.6616   12.9420   22.6737  C     
2    N       -27.2586   14.2605   22.2971  N     
3    C       -28.1912   14.1477   21.1318  C     
4    C       -29.2397   13.0031   21.2510  C     
5    C       -28.6598   11.6460   21.7351  C     
6    C       -27.7195   11.8471   22.9561  C     
7    C       -27.8326   15.0244   23.4441  C     
8    O       -27.9898   10.9753   20.6397  O     
9    C       -27.5015    9.6813   20.7475  C     
10   C       -26.6053    9.2614   19.7350  C     
11   C       -27.3139    7.4525   21.7821  C     
12   C       -27.8523    8.7472   21.7653  C     
13   C       -26.4587    7.0667   20.7462  C     
14   C       -26.1009    7.9407   19.7173  C     
15   N       -25.2551    7.2569   18.9099  N     
16   C       -25.1133    6.0223   19.4542  C     
17   N       -25.8438    5.8956   20.5707  N     
18   C       -24.6167    7.6688   17.7669  C     
19   C       -24.9741    8.6690   16.8652  C     
20   C       -24.0877    8.8900   15.7816  C     
21   C       -23.0033    7.9904   15.7579  C     
22   S       -23.1696    6.9787   17.1409  S     
23   C       -21.9551    7.8656   14.8627  C     
24   N       -21.7407    8.7138   13.8812  N     
25   O       -21.1646    6.9365   14.9656  O     
26   O       -24.1852    9.8654   14.8132  O     
27   C       -25.2488   10.8418   14.7754  C     
28   C       -25.2794   11.7141   15.9941  C     
29   C       -26.3820   11.6583   16.8756  C     
30   C       -26.4152   12.4412   18.0401  C     
31   C       -25.3479   13.3004   18.3408  C     
32   C       -24.2416   13.3710   17.4799  C     
33   C       -24.2104   12.5817   16.3090  C     
34   C       -25.0700   11.6749   13.4848  C     
35   H       -26.0207   12.6117   21.8519  H     
36   H       -26.0177   13.0609   23.5501  H     
37   H       -26.4617   14.8167   21.9700  H     
38   H       -28.7164   15.0935   20.9609  H     
39   H       -27.5784   13.9796   20.2515  H     
40   H       -30.0144   13.3243   21.9547  H     
41   H       -29.7203   12.8562   20.2776  H     
42   H       -29.5247   11.0547   22.0462  H     
43   H       -27.2019   10.9168   23.1981  H     
44   H       -28.3095   12.1323   23.8267  H     
45   H       -28.7197   14.5383   23.8532  H     
46   H       -28.1038   16.0345   23.1304  H     
47   H       -27.0899   15.1211   24.2408  H     
48   H       -26.3175    9.9247   19.0232  H     
49   H       -27.5310    6.7998   22.5339  H     
50   H       -28.4958    8.9993   22.5134  H     
51   H       -24.5294    5.2702   19.0857  H     
52   H       -25.8365    9.2003   16.9676  H     
53   H       -20.9726    8.6011   13.2955  H     
54   H       -22.3216    9.4811   13.7566  H     
55   H       -26.2016   10.3087   14.6555  H     
56   H       -27.1719   11.0302   16.6855  H     
57   H       -27.2116   12.3643   18.6640  H     
58   H       -25.3720   13.8718   19.1910  H     
59   H       -23.4622   13.9942   17.7013  H     
60   H       -23.3934   12.6423   15.6979  H     
61   H       -24.1095   12.2024   13.4827  H     
62   H       -25.8714   12.4092   13.3888  H     
63   H       -25.0967   11.0172   12.6127  H     
@<TRIPOS>BOND
     1    1    2 1
     2    1    6 1
     3    2    3 1
     4    2    7 1
     5    3    4 1
     6    4    5 1
     7    5    6 1
     8    5    8 1
     9    8    9 1
    10    9   10 2
    11    9   12 1
    12   10   14 1
    13   11   12 2
    14   11   13 1
    15   13   14 2
    16   13   17 1
    17   14   15 1
    18   15   16 1
    19   15   18 1
    20   16   17 2
    21   18   19 2
    22   18   22 1
    23   19   20 1
    24   20   21 2
    25   20   26 1
    26   21   22 1
    27   21   23 1
    28   23   24 am
    29   23   25 2
    30   26   27 1
    31   27   28 1
    32   27   34 1
    33   28   29 2
    34   28   33 1
    35   29   30 1
    36   30   31 2
    37   31   32 1
    38   32   33 2
    39    1   35 1
    40    1   36 1
    41    2   37 1
    42    3   38 1
    43    3   39 1
    44    4   40 1
    45    4   41 1
    46    5   42 1
    47    6   43 1
    48    6   44 1
    49    7   45 1
    50    7   46 1
    51    7   47 1
    52   10   48 1
    53   11   49 1
    54   12   50 1
    55   16   51 1
    56   19   52 1
    57   24   53 1
    58   24   54 1
    59   27   55 1
    60   29   56 1
    61   30   57 1
    62   31   58 1
    63   32   59 1
    64   33   60 1
    65   34   61 1
    66   34   62 1
    67   34   63 1
@<TRIPOS>PROPERTY_DATA
  Total_Score	| 7.0831
  Crash		| -1.5382
  Polar		| 3.5893
  FragIndex	| 1
  FragRMSD	| 1.443

