@<TRIPOS>MOLECULE
BindingDB_50339797
 30 32 0 0 0
SMALL
NO_CHARGES


@<TRIPOS>ATOM
1    C       -26.7912    9.9181   21.3235  C     
2    C       -26.2158    9.3455   20.1712  C     
3    C       -26.9765    7.7133   22.3661  C     
4    C       -27.1775    9.1098   22.4161  C     
5    C       -26.4173    7.1533   21.2038  C     
6    C       -26.0436    7.9417   20.1132  C     
7    N       -25.5180    7.1176   19.1857  N     
8    C       -25.5670    5.8685   19.7041  C     
9    N       -26.1090    5.8790   20.9342  N     
10   C       -24.9917    7.4249   17.9706  C     
11   C       -25.4936    8.3120   17.0079  C     
12   C       -24.7009    8.4649   15.8543  C     
13   C       -23.5637    7.6383   15.8180  C     
14   S       -23.5463    6.7739   17.3097  S     
15   C       -22.6120    7.4796   14.8267  C     
16   N       -22.6858    8.0910   13.6641  N     
17   O       -21.6608    6.7261   14.9990  O     
18   O       -25.0984    9.3009   14.8475  O     
19   C       -24.5518   10.6260   14.9573  C     
20   H       -26.9193   10.9350   21.3693  H     
21   H       -25.9274    9.9467   19.3981  H     
22   H       -27.2242    7.1222   23.1652  H     
23   H       -27.5826    9.5423   23.2502  H     
24   H       -25.2428    5.0189   19.2426  H     
25   H       -26.3800    8.8092   17.1221  H     
26   H       -21.9893    7.9459   12.9957  H     
27   H       -23.4309    8.6835   13.4711  H     
28   H       -24.8415   11.1121   15.8929  H     
29   H       -24.9420   11.2261   14.1322  H     
30   H       -23.4596   10.6082   14.8758  H     
@<TRIPOS>BOND
     1    1    2 2
     2    1    4 1
     3    2    6 1
     4    3    4 2
     5    3    5 1
     6    5    6 2
     7    5    9 1
     8    6    7 1
     9    7    8 1
    10    7   10 1
    11    8    9 2
    12   10   11 2
    13   10   14 1
    14   11   12 1
    15   12   13 2
    16   12   18 1
    17   13   14 1
    18   13   15 1
    19   15   16 am
    20   15   17 2
    21   18   19 1
    22    1   20 1
    23    2   21 1
    24    3   22 1
    25    4   23 1
    26    8   24 1
    27   11   25 1
    28   16   26 1
    29   16   27 1
    30   19   28 1
    31   19   29 1
    32   19   30 1
@<TRIPOS>PROPERTY_DATA
  Total_Score	| 3.1920
  Crash		| -0.5852
  Polar		| 1.5698
  FragIndex	| 1
  FragRMSD	| 0.870

