@<TRIPOS>MOLECULE
BindingDB_50339804
 73 78 0 0 0
SMALL
NO_CHARGES


@<TRIPOS>ATOM
1    C       -25.0873    9.1822   16.0838  C     
2    C       -25.4300    8.8297   17.4080  C     
3    C       -23.9288    7.0542   15.7857  C     
4    C       -24.3361    8.3140   15.2594  C     
5    C       -24.2227    6.7475   17.1252  C     
6    C       -24.9374    7.6324   17.9517  C     
7    N       -25.0362    7.0500   19.1702  N     
8    C       -24.3980    5.8529   19.0642  C     
9    N       -23.8973    5.6614   17.8325  N     
10   C       -25.6802    7.5203   20.3061  C     
11   C       -25.7936    8.9015   20.6180  C     
12   C       -26.6020    9.3651   21.6860  C     
13   C       -27.0271    8.4442   22.6850  C     
14   C       -26.8631    7.0693   22.4110  C     
15   C       -26.2631    6.6140   21.2247  C     
16   C       -27.5858    8.8470   23.9016  C     
17   O       -28.1141    8.0480   24.6548  O     
18   N       -27.4621   10.0674   24.3720  N     
19   O       -27.0386   10.6812   21.7405  O     
20   C       -27.1886   11.4745   20.5230  C     
21   C       -28.5149   12.1676   20.2964  C     
22   C       -26.0534   12.5432   20.6152  C     
23   C       -28.6892   12.6476   18.9689  C     
24   C       -29.8505   13.3155   18.5646  C     
25   C       -30.8827   13.5199   19.4776  C     
26   C       -30.7524   13.0534   20.7945  C     
27   C       -29.5736   12.3939   21.2376  C     
28   C       -29.5301   11.9679   22.6660  C     
29   F       -30.5732   12.3705   23.4789  F     
30   F       -29.5638   10.5935   22.6903  F     
31   F       -28.4067   12.4617   23.2754  F     
32   O       -24.0962    8.7421   13.9794  O     
33   C       -22.8176    8.5265   13.3431  C     
34   C       -22.8389    9.2400   11.9671  C     
35   C       -22.7397   10.7854   12.1014  C     
36   N       -21.5635   11.1895   12.9307  N     
37   C       -21.5946   10.5665   14.2868  C     
38   C       -21.5965    9.0263   14.1768  C     
39   C       -21.2234   12.6442   13.0081  C     
40   C       -22.1108   13.8115   12.5409  C     
41   C       -21.9464   13.5358   14.0406  C     
42   H       -25.4100   10.0774   15.7109  H     
43   H       -26.0235    9.4510   17.9601  H     
44   H       -23.4079    6.3760   15.2232  H     
45   H       -24.2783    5.1721   19.8164  H     
46   H       -25.3377    9.6229   20.0397  H     
47   H       -27.1648    6.3571   23.0869  H     
48   H       -26.2288    5.6139   21.0541  H     
49   H       -27.8480   10.2964   25.2368  H     
50   H       -27.0137   10.7608   23.8513  H     
51   H       -27.0490   10.8132   19.6401  H     
52   H       -26.2618   13.2427   21.4297  H     
53   H       -25.9603   13.1073   19.6847  H     
54   H       -25.0853   12.0667   20.8066  H     
55   H       -27.9682   12.5091   18.2592  H     
56   H       -29.9404   13.6433   17.6011  H     
57   H       -31.7371   14.0082   19.1833  H     
58   H       -31.5483   13.1951   21.4232  H     
59   H       -22.7054    7.4570   13.1484  H     
60   H       -21.9945    8.8936   11.3742  H     
61   H       -23.7603    8.9843   11.4360  H     
62   H       -22.6278   11.1878   11.0912  H     
63   H       -23.6703   11.1783   12.5274  H     
64   H       -20.7728   10.7486   12.4674  H     
65   H       -20.7164   10.8580   14.8700  H     
66   H       -22.4808   10.8915   14.8386  H     
67   H       -21.6039    8.5919   15.1789  H     
68   H       -20.6705    8.6932   13.6979  H     
69   H       -20.1590   12.8679   12.9425  H     
70   H       -21.5747   14.6995   12.1855  H     
71   H       -23.1050   13.5937   12.1524  H     
72   H       -22.8278   13.1219   14.5345  H     
73   H       -21.3242   14.2438   14.5911  H     
@<TRIPOS>BOND
     1    1    2 2
     2    1    4 1
     3    2    6 1
     4    3    4 2
     5    3    5 1
     6    4   32 1
     7    5    6 2
     8    5    9 1
     9    6    7 1
    10    7    8 1
    11    7   10 1
    12    8    9 2
    13   10   11 2
    14   10   15 1
    15   11   12 1
    16   12   13 2
    17   12   19 1
    18   13   14 1
    19   13   16 1
    20   14   15 2
    21   16   17 2
    22   16   18 am
    23   19   20 1
    24   20   21 1
    25   20   22 1
    26   21   23 2
    27   21   27 1
    28   23   24 1
    29   24   25 2
    30   25   26 1
    31   26   27 2
    32   27   28 1
    33   28   29 1
    34   28   30 1
    35   28   31 1
    36   32   33 1
    37   33   34 1
    38   33   38 1
    39   34   35 1
    40   35   36 1
    41   36   37 1
    42   36   39 1
    43   37   38 1
    44   39   40 1
    45   39   41 1
    46   40   41 1
    47    1   42 1
    48    2   43 1
    49    3   44 1
    50    8   45 1
    51   11   46 1
    52   14   47 1
    53   15   48 1
    54   18   49 1
    55   18   50 1
    56   20   51 1
    57   22   52 1
    58   22   53 1
    59   22   54 1
    60   23   55 1
    61   24   56 1
    62   25   57 1
    63   26   58 1
    64   33   59 1
    65   34   60 1
    66   34   61 1
    67   35   62 1
    68   35   63 1
    69   36   64 1
    70   37   65 1
    71   37   66 1
    72   38   67 1
    73   38   68 1
    74   39   69 1
    75   40   70 1
    76   40   71 1
    77   41   72 1
    78   41   73 1
@<TRIPOS>PROPERTY_DATA
  Total_Score	| 7.1010
  Crash		| -4.6139
  Polar		| 2.7774
  FragIndex	| 1
  FragRMSD	| 1.050

