@<TRIPOS>MOLECULE
BindingDB_50355500
 68 72 0 0 0
SMALL
NO_CHARGES


@<TRIPOS>ATOM
1    C       -26.3177    7.3146   21.1704  C     
2    C       -27.0971    7.7769   22.2418  C     
3    C       -27.3496    9.1576   22.3550  C     
4    C       -26.7407   10.0913   21.4647  C     
5    C       -26.0077    9.5805   20.3600  C     
6    C       -25.8252    8.1926   20.2090  C     
7    C       -26.7476   11.5773   21.6486  C     
8    N       -27.7291   12.1753   22.6182  N     
9    C       -29.1560   11.9095   22.2711  C     
10   C       -29.7177   12.8154   21.1457  C     
11   N       -29.5012   14.2559   21.4721  N     
12   C       -28.0735   14.5581   21.7793  C     
13   C       -27.5344   13.6350   22.9048  C     
14   C       -30.0688   15.1627   20.4357  C     
15   N       -25.9415    6.0711   20.8468  N     
16   C       -25.2625    6.1666   19.6906  C     
17   N       -25.2010    7.4500   19.2720  N     
18   C       -24.7223    7.8558   18.0634  C     
19   C       -25.3138    8.8019   17.2216  C     
20   C       -24.7448    8.9311   15.9400  C     
21   C       -23.6753    8.0447   15.7013  C     
22   S       -23.4550    7.1405   17.1530  S     
23   C       -22.9693    7.7726   14.5430  C     
24   O       -21.9909    7.0436   14.5711  O     
25   N       -23.3405    8.2102   13.3646  N     
26   O       -25.3858    9.6785   14.9846  O     
27   C       -25.1968   11.1132   14.8831  C     
28   C       -25.3817   11.8943   16.1657  C     
29   C       -23.9364   11.3937   14.0136  C     
30   C       -24.2936   12.6663   16.6579  C     
31   C       -24.4139   13.5047   17.7730  C     
32   C       -25.6306   13.5817   18.4533  C     
33   C       -26.7169   12.8127   18.0160  C     
34   C       -26.6275   11.9553   16.8846  C     
35   C       -27.8960   11.2163   16.5602  C     
36   F       -28.3212   10.4911   17.6480  F     
37   F       -28.8868   12.1162   16.2482  F     
38   F       -27.8763   10.3131   15.5340  F     
39   H       -27.4810    7.1233   22.9215  H     
40   H       -27.9950    9.4558   23.0972  H     
41   H       -25.5760   10.2153   19.6841  H     
42   H       -25.7399   11.8318   21.9900  H     
43   H       -26.8719   12.0433   20.6687  H     
44   H       -27.5568   11.6988   23.5079  H     
45   H       -29.2502   10.8758   21.9654  H     
46   H       -29.7687   12.0406   23.1665  H     
47   H       -29.2500   12.5586   20.1935  H     
48   H       -30.7883   12.6164   21.0515  H     
49   H       -30.0239   14.4394   22.3289  H     
50   H       -27.4522   14.4460   20.8889  H     
51   H       -27.9942   15.5926   22.1213  H     
52   H       -28.0706   13.8756   23.8300  H     
53   H       -26.4794   13.8624   23.0897  H     
54   H       -29.5555   15.0394   19.4761  H     
55   H       -29.9696   16.2049   20.7514  H     
56   H       -31.1345   14.9571   20.2910  H     
57   H       -24.8963    5.3553   19.1853  H     
58   H       -26.1631    9.2985   17.4911  H     
59   H       -22.8275    7.9743   12.5764  H     
60   H       -24.1387    8.7513   13.2712  H     
61   H       -26.0018   11.4625   14.2323  H     
62   H       -23.0418   10.9744   14.4761  H     
63   H       -23.7978   12.4687   13.8750  H     
64   H       -24.0530   10.9468   13.0245  H     
65   H       -23.3851   12.6569   16.1977  H     
66   H       -23.6184   14.0702   18.0777  H     
67   H       -25.7259   14.1978   19.2630  H     
68   H       -27.5929   12.8940   18.5402  H     
@<TRIPOS>BOND
     1    1    2 1
     2    1    6 2
     3    1   15 1
     4    2    3 2
     5    3    4 1
     6    4    5 2
     7    4    7 1
     8    5    6 1
     9    6   17 1
    10    7    8 1
    11    8    9 1
    12    8   13 1
    13    9   10 1
    14   10   11 1
    15   11   12 1
    16   11   14 1
    17   12   13 1
    18   15   16 2
    19   16   17 1
    20   17   18 1
    21   18   19 2
    22   18   22 1
    23   19   20 1
    24   20   21 2
    25   20   26 1
    26   21   22 1
    27   21   23 1
    28   23   24 2
    29   23   25 am
    30   26   27 1
    31   27   28 1
    32   27   29 1
    33   28   30 1
    34   28   34 2
    35   30   31 2
    36   31   32 1
    37   32   33 2
    38   33   34 1
    39   34   35 1
    40   35   36 1
    41   35   37 1
    42   35   38 1
    43    2   39 1
    44    3   40 1
    45    5   41 1
    46    7   42 1
    47    7   43 1
    48    8   44 1
    49    9   45 1
    50    9   46 1
    51   10   47 1
    52   10   48 1
    53   11   49 1
    54   12   50 1
    55   12   51 1
    56   13   52 1
    57   13   53 1
    58   14   54 1
    59   14   55 1
    60   14   56 1
    61   16   57 1
    62   19   58 1
    63   25   59 1
    64   25   60 1
    65   27   61 1
    66   29   62 1
    67   29   63 1
    68   29   64 1
    69   30   65 1
    70   31   66 1
    71   32   67 1
    72   33   68 1
@<TRIPOS>PROPERTY_DATA
  Total_Score	| 6.1708
  Crash		| -1.1461
  Polar		| 2.1604
  FragIndex	| 1
  FragRMSD	| 1.017

