@<TRIPOS>MOLECULE
BindingDB_50339802
 69 73 0 0 0
SMALL
NO_CHARGES


@<TRIPOS>ATOM
1    C       -27.2339    9.8876   21.0973  C     
2    C       -26.2966    9.4000   20.1477  C     
3    C       -27.3479    7.6811   22.1484  C     
4    C       -27.7761    9.0258   22.0941  C     
5    C       -26.4513    7.2024   21.1829  C     
6    C       -25.9578    8.0305   20.1764  C     
7    N       -25.1937    7.2738   19.3616  N     
8    C       -25.1989    6.0247   19.8929  C     
9    N       -25.9626    5.9719   21.0024  N     
10   C       -24.6048    7.6513   18.1678  C     
11   C       -25.3147    8.4784   17.2590  C     
12   C       -24.7319    8.8759   16.0245  C     
13   C       -23.4622    8.3606   15.6302  C     
14   C       -22.7606    7.5401   16.5550  C     
15   C       -23.3145    7.2042   17.8062  C     
16   C       -22.9109    8.6088   14.3697  C     
17   O       -23.6140    8.9495   13.4310  O     
18   N       -21.6351    8.4541   14.0936  N     
19   O       -25.4969    9.7010   15.2199  O     
20   C       -25.0520   11.0712   15.0695  C     
21   C       -25.3475   11.9694   16.2376  C     
22   C       -25.5649   11.6847   13.7341  C     
23   C       -24.2683   12.7799   16.6791  C     
24   C       -24.3889   13.6737   17.7530  C     
25   C       -25.6034   13.7559   18.4481  C     
26   C       -26.6873   12.9657   18.0454  C     
27   C       -26.6171   12.0893   16.9210  C     
28   C       -27.8946   11.3453   16.6188  C     
29   F       -28.9836   12.2045   16.6395  F     
30   F       -27.9956   10.7269   15.3873  F     
31   F       -28.1236   10.3806   17.5878  F     
32   O       -28.7899    9.3540   22.9565  O     
33   C       -28.9774   10.6799   23.5082  C     
34   C       -30.0385   10.5439   24.6367  C     
35   C       -29.4702    9.7205   25.8282  C     
36   N       -28.1933   10.2747   26.3827  N     
37   C       -27.1641   10.5136   25.3216  C     
38   C       -27.6865   11.3194   24.0995  C     
39   C       -28.4048   11.4390   27.2958  C     
40   H       -27.5222   10.8641   21.0533  H     
41   H       -25.8769    9.9963   19.4196  H     
42   H       -27.7024    7.0485   22.8670  H     
43   H       -24.7222    5.2082   19.4963  H     
44   H       -26.2463    8.8109   17.5006  H     
45   H       -21.8475    7.1379   16.3254  H     
46   H       -22.7807    6.6077   18.4383  H     
47   H       -21.3119    8.6487   13.2033  H     
48   H       -21.0146    8.1978   14.7860  H     
49   H       -23.9666   11.0314   14.9038  H     
50   H       -25.4112   10.9785   12.9141  H     
51   H       -25.0099   12.6044   13.5119  H     
52   H       -26.6260   11.9404   13.7660  H     
53   H       -23.3624   12.7541   16.2033  H     
54   H       -23.6056   14.2562   18.0312  H     
55   H       -25.7013   14.3998   19.2430  H     
56   H       -27.5594   13.0475   18.5805  H     
57   H       -29.3799   11.3403   22.7322  H     
58   H       -30.3397   11.5362   24.9823  H     
59   H       -30.9285   10.0473   24.2385  H     
60   H       -30.2325    9.6444   26.6045  H     
61   H       -29.2728    8.6996   25.4905  H     
62   H       -27.7796    9.5393   26.9556  H     
63   H       -26.2843   11.0118   25.7412  H     
64   H       -26.8316    9.5372   24.9591  H     
65   H       -26.9114   11.3702   23.3325  H     
66   H       -27.8945   12.3485   24.4105  H     
67   H       -28.8368   12.2948   26.7735  H     
68   H       -27.4546   11.7484   27.7400  H     
69   H       -29.0719   11.1590   28.1163  H     
@<TRIPOS>BOND
     1    1    2 2
     2    1    4 1
     3    2    6 1
     4    3    4 2
     5    3    5 1
     6    4   32 1
     7    5    6 2
     8    5    9 1
     9    6    7 1
    10    7    8 1
    11    7   10 1
    12    8    9 2
    13   10   11 2
    14   10   15 1
    15   11   12 1
    16   12   13 2
    17   12   19 1
    18   13   14 1
    19   13   16 1
    20   14   15 2
    21   16   17 2
    22   16   18 am
    23   20   19 1
    24   20   21 1
    25   20   22 1
    26   21   23 2
    27   21   27 1
    28   23   24 1
    29   24   25 2
    30   25   26 1
    31   26   27 2
    32   27   28 1
    33   28   29 1
    34   28   30 1
    35   28   31 1
    36   32   33 1
    37   33   34 1
    38   33   38 1
    39   34   35 1
    40   35   36 1
    41   36   37 1
    42   36   39 1
    43   37   38 1
    44    1   40 1
    45    2   41 1
    46    3   42 1
    47    8   43 1
    48   11   44 1
    49   14   45 1
    50   15   46 1
    51   18   47 1
    52   18   48 1
    53   20   49 1
    54   22   50 1
    55   22   51 1
    56   22   52 1
    57   23   53 1
    58   24   54 1
    59   25   55 1
    60   26   56 1
    61   33   57 1
    62   34   58 1
    63   34   59 1
    64   35   60 1
    65   35   61 1
    66   36   62 1
    67   37   63 1
    68   37   64 1
    69   38   65 1
    70   38   66 1
    71   39   67 1
    72   39   68 1
    73   39   69 1
@<TRIPOS>PROPERTY_DATA
  Total_Score	| 8.2277
  Crash		| -1.6003
  Polar		| 4.0675
  FragIndex	| 1
  FragRMSD	| 1.219

