@<TRIPOS>MOLECULE
BindingDB_50339803
 68 71 0 0 0
SMALL
NO_CHARGES


@<TRIPOS>ATOM
1    C       -26.8547    9.8832   20.9392  C     
2    C       -26.1589    9.2564   19.8833  C     
3    C       -27.1719    7.7235   22.0427  C     
4    C       -27.3705    9.1261   22.0129  C     
5    C       -26.4944    7.1068   20.9707  C     
6    C       -26.0147    7.8530   19.8963  C     
7    N       -25.4185    6.9893   19.0485  N     
8    C       -25.5258    5.7611   19.6015  C     
9    N       -26.1656    5.8218   20.7829  N     
10   C       -24.7435    7.3194   17.8981  C     
11   C       -25.2342    8.3106   17.0086  C     
12   C       -24.4160    8.8517   15.9829  C     
13   C       -23.1668    8.2257   15.6822  C     
14   C       -22.7232    7.1713   16.5251  C     
15   C       -23.4819    6.7473   17.6317  C     
16   C       -22.3774    8.6293   14.5909  C     
17   O       -22.6320    9.6125   13.9153  O     
18   N       -21.3229    7.9642   14.1634  N     
19   O       -24.8253    9.9587   15.2600  O     
20   C       -26.0168   10.7222   15.5765  C     
21   C       -25.9153   11.7984   16.6237  C     
22   C       -26.5054   11.3818   14.2527  C     
23   C       -24.6723   12.4679   16.7546  C     
24   C       -24.5254   13.5512   17.6327  C     
25   C       -25.6280   14.0117   18.3643  C     
26   C       -26.8722   13.3719   18.2399  C     
27   C       -27.0583   12.2695   17.3645  C     
28   C       -28.4251   11.6393   17.2733  C     
29   F       -29.4330   12.3515   17.8893  F     
30   F       -28.8652   11.4692   15.9768  F     
31   F       -28.3999   10.3997   17.8791  F     
32   O       -28.1472    9.7253   22.9466  O     
33   C       -27.5448    9.9311   24.2350  C     
34   C       -28.5974    9.7473   25.3602  C     
35   C       -30.0393   10.1997   24.9993  C     
36   N       -30.6836    9.4656   23.8519  N     
37   C       -30.5295    7.9867   23.8915  C     
38   C       -32.1205    9.8500   23.6902  C     
39   H       -27.0110   10.8947   20.9137  H     
40   H       -25.7894    9.8131   19.1163  H     
41   H       -27.5303    7.1637   22.8234  H     
42   H       -25.1431    4.8985   19.2076  H     
43   H       -26.1886    8.6580   17.1236  H     
44   H       -21.8181    6.7168   16.3768  H     
45   H       -23.0912    6.0449   18.2633  H     
46   H       -20.8109    8.2836   13.3988  H     
47   H       -21.0443    7.1413   14.5970  H     
48   H       -26.7726   10.0029   15.8723  H     
49   H       -25.7034   11.9837   13.8051  H     
50   H       -27.3583   12.0518   14.4302  H     
51   H       -26.8038   10.6091   13.5404  H     
52   H       -23.8702   12.1879   16.1951  H     
53   H       -23.6218   14.0266   17.7143  H     
54   H       -25.5264   14.8227   18.9846  H     
55   H       -27.6410   13.7370   18.7976  H     
56   H       -26.7177    9.2354   24.4507  H     
57   H       -27.1513   10.9565   24.2656  H     
58   H       -28.6255    8.6997   25.6550  H     
59   H       -28.2698   10.3065   26.2406  H     
60   H       -30.6685   10.1048   25.8937  H     
61   H       -29.9788   11.2654   24.7724  H     
62   H       -30.2149    9.7500   22.9929  H     
63   H       -29.4714    7.7182   23.8089  H     
64   H       -31.0399    7.5305   23.0349  H     
65   H       -30.9408    7.5665   24.8208  H     
66   H       -32.7290    9.4915   24.5314  H     
67   H       -32.5306    9.4315   22.7676  H     
68   H       -32.2321   10.9369   23.6242  H     
@<TRIPOS>BOND
     1    1    2 2
     2    1    4 1
     3    2    6 1
     4    3    4 2
     5    3    5 1
     6    4   32 1
     7    5    6 2
     8    5    9 1
     9    6    7 1
    10    7    8 1
    11    7   10 1
    12    8    9 2
    13   10   11 2
    14   10   15 1
    15   11   12 1
    16   12   13 2
    17   12   19 1
    18   13   14 1
    19   13   16 1
    20   14   15 2
    21   16   17 2
    22   16   18 am
    23   19   20 1
    24   20   21 1
    25   20   22 1
    26   21   23 2
    27   21   27 1
    28   23   24 1
    29   24   25 2
    30   25   26 1
    31   26   27 2
    32   27   28 1
    33   28   29 1
    34   28   30 1
    35   28   31 1
    36   32   33 1
    37   33   34 1
    38   34   35 1
    39   35   36 1
    40   36   37 1
    41   36   38 1
    42    1   39 1
    43    2   40 1
    44    3   41 1
    45    8   42 1
    46   11   43 1
    47   14   44 1
    48   15   45 1
    49   18   46 1
    50   18   47 1
    51   20   48 1
    52   22   49 1
    53   22   50 1
    54   22   51 1
    55   23   52 1
    56   24   53 1
    57   25   54 1
    58   26   55 1
    59   33   56 1
    60   33   57 1
    61   34   58 1
    62   34   59 1
    63   35   60 1
    64   35   61 1
    65   36   62 1
    66   37   63 1
    67   37   64 1
    68   37   65 1
    69   38   66 1
    70   38   67 1
    71   38   68 1
@<TRIPOS>PROPERTY_DATA
  Total_Score	| 6.9242
  Crash		| -1.5143
  Polar		| 1.5942
  FragIndex	| 1
  FragRMSD	| 1.081

