@<TRIPOS>MOLECULE
BindingDB_28216
 66 70 0 0 0
SMALL
NO_CHARGES


@<TRIPOS>ATOM
1    S       -23.4894    7.3548   17.1561  S     
2    C       -24.9720    7.7919   17.9062  C     
3    C       -25.6027    8.6808   17.0249  C     
4    C       -24.8830    9.0100   15.8662  C     
5    C       -23.6558    8.3233   15.7385  C     
6    C       -22.7659    8.2980   14.6868  C     
7    O       -23.0840    8.7084   13.5784  O     
8    N       -21.5508    7.8182   14.8273  N     
9    O       -25.4873    9.7730   14.9012  O     
10   C       -25.2080   11.1961   14.7978  C     
11   C       -25.3780   12.0054   16.0697  C     
12   C       -24.2543   12.6940   16.6064  C     
13   C       -26.6415   12.1443   16.7459  C     
14   C       -26.6927   12.9178   17.9357  C     
15   C       -25.5667   13.5897   18.4368  C     
16   C       -24.3468   13.4892   17.7597  C     
17   N       -25.4490    7.2980   19.0882  N     
18   C       -25.4611    5.9899   19.4361  C     
19   N       -25.9983    5.8211   20.6563  N     
20   C       -26.3111    7.0407   21.1022  C     
21   C       -25.9805    7.9798   20.1282  C     
22   C       -26.8554    7.4188   22.3361  C     
23   C       -27.0937    8.7884   22.5761  C     
24   C       -26.7844    9.7747   21.5977  C     
25   C       -26.1995    9.3511   20.3802  C     
26   O       -27.0191   11.1316   21.6987  O     
27   C       -27.9335   11.5780   16.2319  C     
28   C       -23.8979   11.4172   13.9944  C     
29   C       -28.2525   11.6847   22.2231  C     
30   F       -29.0314   11.7349   17.0498  F     
31   F       -28.2785   12.1758   15.0472  F     
32   F       -27.8340   10.2211   16.0499  F     
33   C       -28.0134   12.4872   23.5377  C     
34   C       -27.3161   13.8478   23.2680  C     
35   N       -28.0468   14.6968   22.2723  N     
36   C       -28.2649   13.9698   20.9823  C     
37   C       -28.9317   12.5745   21.1455  C     
38   C       -29.2788   15.3429   22.8182  C     
39   H       -26.5574    9.0140   17.1728  H     
40   H       -20.9328    7.8379   14.0755  H     
41   H       -21.2559    7.4682   15.6885  H     
42   H       -25.9734   11.5584   14.1118  H     
43   H       -23.3410   12.6544   16.1574  H     
44   H       -27.5656   13.0326   18.4532  H     
45   H       -25.6360   14.1678   19.2774  H     
46   H       -23.5267   14.0003   18.0958  H     
47   H       -25.1294    5.2124   18.8570  H     
48   H       -27.0554    6.7206   23.0499  H     
49   H       -27.4938    9.0458   23.4752  H     
50   H       -25.9309   10.0452   19.6812  H     
51   H       -23.0446   10.9797   14.5175  H     
52   H       -23.7149   12.4844   13.8520  H     
53   H       -23.9748   10.9473   13.0041  H     
54   H       -28.9636   10.8735   22.4134  H     
55   H       -28.9723   12.6636   24.0357  H     
56   H       -27.3948   11.9052   24.2243  H     
57   H       -27.1997   14.3922   24.2098  H     
58   H       -26.3072   13.6569   22.8888  H     
59   H       -27.4154   15.4806   22.0702  H     
60   H       -28.8705   14.5757   20.2995  H     
61   H       -27.2943   13.8338   20.5046  H     
62   H       -28.9208   12.0540   20.1814  H     
63   H       -29.9819   12.7266   21.4209  H     
64   H       -30.0551   14.6113   23.0604  H     
65   H       -29.6803   16.0510   22.0861  H     
66   H       -29.0315   15.9072   23.7216  H     
@<TRIPOS>BOND
     1    1    2 1
     2    1    5 1
     3    2    3 2
     4    2   17 1
     5    3    4 1
     6    4    5 2
     7    4    9 1
     8    5    6 1
     9    6    7 2
    10    6    8 am
    11   10    9 1
    12   10   11 1
    13   10   28 1
    14   11   12 1
    15   11   13 2
    16   12   16 2
    17   13   14 1
    18   13   27 1
    19   14   15 2
    20   15   16 1
    21   17   18 1
    22   17   21 1
    23   18   19 2
    24   19   20 1
    25   20   21 2
    26   20   22 1
    27   21   25 1
    28   22   23 2
    29   23   24 1
    30   24   25 2
    31   24   26 1
    32   26   29 1
    33   27   30 1
    34   27   31 1
    35   27   32 1
    36   29   33 1
    37   29   37 1
    38   33   34 1
    39   34   35 1
    40   35   36 1
    41   35   38 1
    42   36   37 1
    43    3   39 1
    44    8   40 1
    45    8   41 1
    46   10   42 1
    47   12   43 1
    48   14   44 1
    49   15   45 1
    50   16   46 1
    51   18   47 1
    52   22   48 1
    53   23   49 1
    54   25   50 1
    55   28   51 1
    56   28   52 1
    57   28   53 1
    58   29   54 1
    59   33   55 1
    60   33   56 1
    61   34   57 1
    62   34   58 1
    63   35   59 1
    64   36   60 1
    65   36   61 1
    66   37   62 1
    67   37   63 1
    68   38   64 1
    69   38   65 1
    70   38   66 1
@<TRIPOS>PROPERTY_DATA
  Total_Score	| 6.7156
  Crash		| -1.3684
  Polar		| 3.3396
  FragIndex	| 1
  FragRMSD	| 1.265

