@<TRIPOS>MOLECULE
BindingDB_50339801
 69 73 0 0 0
SMALL
NO_CHARGES


@<TRIPOS>ATOM
1    C       -23.9613   11.3990   14.1245  C     
2    C       -25.2433   11.1260   14.9676  C     
3    O       -25.4783    9.7001   15.0956  O     
4    C       -24.7002    8.9157   15.9195  C     
5    C       -25.2799    8.5141   17.1340  C     
6    C       -24.5858    7.6957   18.0476  C     
7    N       -25.8373    6.0270   20.9303  N     
8    C       -25.0796    6.0942   19.8227  C     
9    N       -25.1659    7.3188   19.2450  N     
10   C       -25.9815    8.0509   20.0267  C     
11   C       -26.4280    9.3801   19.9519  C     
12   C       -27.3980    9.8260   20.8679  C     
13   C       -27.8500    8.9835   21.9211  C     
14   O       -28.8484    9.3137   22.8036  O     
15   C       -28.9814   10.6410   23.3715  C     
16   C       -30.0540   10.5446   24.4883  C     
17   C       -29.5310    9.7364   25.7132  C     
18   N       -28.2372   10.2549   26.2624  N     
19   C       -28.4058   11.4601   27.1250  C     
20   C       -27.1931   10.4080   25.2037  C     
21   C       -27.6663   11.2234   23.9718  C     
22   C       -27.3278    7.6772   22.0275  C     
23   C       -26.4105    7.2278   21.0682  C     
24   C       -23.2859    7.2485   17.7016  C     
25   C       -22.7195    7.5898   16.4605  C     
26   C       -23.4323    8.3858   15.5261  C     
27   C       -22.9066    8.5617   14.2534  C     
28   N       -21.6420    8.8703   14.0687  N     
29   O       -23.6079    8.4149   13.2595  O     
30   C       -25.4258   11.9586   16.2211  C     
31   C       -24.3073   12.6768   16.7314  C     
32   C       -24.4081   13.5420   17.8309  C     
33   C       -25.6391   13.6966   18.4744  C     
34   C       -26.7634   12.9999   18.0039  C     
35   C       -26.6986   12.1205   16.8847  C     
36   C       -27.9677   11.4368   16.4609  C     
37   F       -29.0599   11.6398   17.2769  F     
38   F       -28.3673   11.8691   15.2137  F     
39   F       -27.7934   10.0804   16.4428  F     
40   H       -23.0679   11.0341   14.6402  H     
41   H       -23.8380   12.4739   13.9531  H     
42   H       -24.0213   10.8967   13.1504  H     
43   H       -26.0287   11.4545   14.2868  H     
44   H       -26.2481    8.8299   17.3606  H     
45   H       -24.5510    5.2989   19.4561  H     
46   H       -26.0777    9.9754   19.1861  H     
47   H       -27.7899   10.7711   20.7619  H     
48   H       -29.3468   11.3223   22.5989  H     
49   H       -30.3386   11.5492   24.8070  H     
50   H       -30.9554   10.0615   24.0890  H     
51   H       -30.3044    9.7238   26.4859  H     
52   H       -29.3831    8.6968   25.4054  H     
53   H       -27.8650    9.5236   26.8776  H     
54   H       -28.7859   12.3144   26.5646  H     
55   H       -27.4513   11.7399   27.5766  H     
56   H       -29.0999   11.2470   27.9422  H     
57   H       -26.2987   10.8748   25.6256  H     
58   H       -26.8945    9.4079   24.8721  H     
59   H       -26.8831   11.2243   23.2098  H     
60   H       -27.8297   12.2666   24.2668  H     
61   H       -27.6375    7.0537   22.7722  H     
62   H       -22.7478    6.6637   18.3454  H     
63   H       -21.7974    7.2091   16.2298  H     
64   H       -21.2967    9.0330   13.1807  H     
65   H       -21.0547    8.9806   14.8357  H     
66   H       -23.3870   12.6141   16.3022  H     
67   H       -23.5864   14.0643   18.1450  H     
68   H       -25.7163   14.3242   19.2810  H     
69   H       -27.6370   13.1638   18.5030  H     
@<TRIPOS>BOND
     1    2    1 1
     2    2    3 1
     3    2   30 1
     4    3    4 1
     5    4    5 1
     6    4   26 2
     7    5    6 2
     8    6    9 1
     9    6   24 1
    10    7    8 2
    11    7   23 1
    12    8    9 1
    13    9   10 1
    14   10   11 1
    15   10   23 2
    16   11   12 2
    17   12   13 1
    18   13   14 1
    19   13   22 2
    20   14   15 1
    21   15   16 1
    22   15   21 1
    23   16   17 1
    24   17   18 1
    25   18   19 1
    26   18   20 1
    27   20   21 1
    28   22   23 1
    29   24   25 2
    30   25   26 1
    31   26   27 1
    32   27   28 am
    33   27   29 2
    34   30   31 2
    35   30   35 1
    36   31   32 1
    37   32   33 2
    38   33   34 1
    39   34   35 2
    40   35   36 1
    41   36   37 1
    42   36   38 1
    43   36   39 1
    44    1   40 1
    45    1   41 1
    46    1   42 1
    47    2   43 1
    48    5   44 1
    49    8   45 1
    50   11   46 1
    51   12   47 1
    52   15   48 1
    53   16   49 1
    54   16   50 1
    55   17   51 1
    56   17   52 1
    57   18   53 1
    58   19   54 1
    59   19   55 1
    60   19   56 1
    61   20   57 1
    62   20   58 1
    63   21   59 1
    64   21   60 1
    65   22   61 1
    66   24   62 1
    67   25   63 1
    68   28   64 1
    69   28   65 1
    70   31   66 1
    71   32   67 1
    72   33   68 1
    73   34   69 1
@<TRIPOS>PROPERTY_DATA
  Total_Score	| 7.7394
  Crash		| -1.9034
  Polar		| 4.3669
  FragIndex	| 1
  FragRMSD	| 1.227

