@<TRIPOS>MOLECULE
BindingDB_31526
 42 44 0 0 0
SMALL
NO_CHARGES


@<TRIPOS>ATOM
1    C       -32.9696   21.6458   29.2809  C     
2    C       -32.1435   20.4952   28.8355  C     
3    N       -30.7706   20.9182   28.8308  N     
4    C       -29.8274   20.5741   29.7023  C     
5    C       -28.5458   21.0791   29.5806  C     
6    O       -30.0773   19.8417   30.6595  O     
7    C       -27.4339   20.2459   29.2388  C     
8    C       -28.3333   22.4614   29.8242  C     
9    C       -27.0454   23.0192   29.7590  C     
10   C       -25.9536   22.1993   29.4161  C     
11   C       -26.1525   20.8323   29.1530  C     
12   C       -33.5274   21.7641   30.6003  C     
13   C       -33.2982   20.8438   31.6629  C     
14   C       -33.8698   21.0254   32.9340  C     
15   C       -34.6765   22.1413   33.1916  C     
16   C       -34.9018   23.0901   32.1849  C     
17   C       -34.3279   22.9173   30.9049  C     
18   C       -34.5142   23.8927   29.9299  C     
19   C       -33.9171   23.7724   28.7311  C     
20   C       -33.1547   22.6861   28.4245  C     
21   C       -27.5845   18.7922   28.9351  C     
22   C       -26.8660   24.2855   29.9997  C     
23   C       -32.5391   19.8862   27.4623  C     
24   N       -26.7047   25.4049   30.2091  N     
25   H       -32.2650   19.6459   29.5015  H     
26   H       -30.5086   21.5492   28.1305  H     
27   H       -29.1318   23.0516   30.0685  H     
28   H       -25.0085   22.5816   29.3441  H     
29   H       -25.3391   20.2605   28.9062  H     
30   H       -32.6913   20.0337   31.5518  H     
31   H       -33.6888   20.3462   33.6739  H     
32   H       -35.0863   22.2733   34.1228  H     
33   H       -35.4701   23.9122   32.3975  H     
34   H       -35.0755   24.6914   30.1116  H     
35   H       -34.0412   24.4916   28.0507  H     
36   H       -32.7153   22.6881   27.5325  H     
37   H       -27.9477   18.2674   29.8227  H     
38   H       -26.6445   18.3228   28.6367  H     
39   H       -28.3003   18.6500   28.1216  H     
40   H       -33.6072   19.6494   27.4437  H     
41   H       -31.9891   18.9533   27.2948  H     
42   H       -32.3140   20.5620   26.6367  H     
@<TRIPOS>BOND
     1    1    2 1
     2    1   12 1
     3    1   20 2
     4    2    3 1
     5    2   23 1
     6    3    4 am
     7    4    5 1
     8    4    6 2
     9    5    7 1
    10    5    8 2
    11    7   11 2
    12    7   21 1
    13    8    9 1
    14    9   10 2
    15    9   22 1
    16   10   11 1
    17   12   13 2
    18   12   17 1
    19   13   14 1
    20   14   15 2
    21   15   16 1
    22   16   17 2
    23   17   18 1
    24   18   19 2
    25   19   20 1
    26   22   24 3
    27    2   25 1
    28    3   26 1
    29    8   27 1
    30   10   28 1
    31   11   29 1
    32   13   30 1
    33   14   31 1
    34   15   32 1
    35   16   33 1
    36   18   34 1
    37   19   35 1
    38   20   36 1
    39   21   37 1
    40   21   38 1
    41   21   39 1
    42   23   40 1
    43   23   41 1
    44   23   42 1
@<TRIPOS>PROPERTY_DATA
  Total_Score	| 9.8182
  Crash		| -0.6755
  Polar		| 3.4025
  FragIndex	| 1
  FragRMSD	| 0.113

