@<TRIPOS>MOLECULE
BindingDB_31523
 48 50 0 0 0
SMALL
NO_CHARGES


@<TRIPOS>ATOM
1    C       -32.8960   21.6345   29.2890  C     
2    C       -32.0542   20.5019   28.8451  C     
3    C       -32.4274   19.8890   27.4688  C     
4    N       -30.6862   20.9368   28.8522  N     
5    C       -29.7825   20.6161   29.7749  C     
6    C       -28.4903   21.0706   29.6673  C     
7    O       -30.0183   19.8108   30.6687  O     
8    C       -27.4448   20.2210   29.2081  C     
9    C       -28.1981   22.3839   30.0982  C     
10   C       -26.8897   22.8927   30.0117  C     
11   C       -25.8641   22.0737   29.4951  C     
12   C       -26.1379   20.7486   29.1062  C     
13   C       -33.4794   21.7347   30.5958  C     
14   C       -33.2949   20.7903   31.6451  C     
15   C       -33.8606   20.9722   32.9185  C     
16   C       -34.6363   22.1073   33.1877  C     
17   C       -34.8427   23.0647   32.1822  C     
18   C       -34.2644   22.8935   30.9030  C     
19   C       -34.4273   23.8823   29.9298  C     
20   C       -33.8161   23.7716   28.7387  C     
21   C       -33.0494   22.6874   28.4415  C     
22   C       -27.7019   18.7947   28.8664  C     
23   N       -26.6108   24.1462   30.4634  N     
24   C       -26.5341   25.2409   29.7251  C     
25   C       -26.1493   26.4860   30.3409  C     
26   O       -26.8159   25.2279   28.5264  O     
27   H       -32.1694   19.6468   29.5060  H     
28   H       -33.4899   19.6356   27.4470  H     
29   H       -31.8571   18.9720   27.3046  H     
30   H       -32.2066   20.5712   26.6464  H     
31   H       -30.4104   21.5685   28.1591  H     
32   H       -28.9365   22.9804   30.4785  H     
33   H       -24.9048   22.4238   29.4355  H     
34   H       -25.3707   20.1709   28.7633  H     
35   H       -32.7284   19.9537   31.5310  H     
36   H       -33.6989   20.2806   33.6537  H     
37   H       -35.0380   22.2423   34.1166  H     
38   H       -35.4022   23.8944   32.4008  H     
39   H       -34.9831   24.6844   30.1119  H     
40   H       -33.9262   24.4954   28.0624  H     
41   H       -32.5879   22.6949   27.5603  H     
42   H       -28.1291   18.2802   29.7311  H     
43   H       -26.7966   18.2602   28.5802  H     
44   H       -28.4133   18.7394   28.0399  H     
45   H       -26.4359   24.2395   31.4173  H     
46   H       -26.8789   26.7671   31.1018  H     
47   H       -26.0873   27.2929   29.6085  H     
48   H       -25.1714   26.3708   30.8117  H     
@<TRIPOS>BOND
     1    1    2 1
     2    1   13 1
     3    1   21 2
     4    2    3 1
     5    2    4 1
     6    4    5 am
     7    5    6 1
     8    5    7 2
     9    6    8 1
    10    6    9 2
    11    8   12 2
    12    8   22 1
    13    9   10 1
    14   10   11 2
    15   10   23 1
    16   11   12 1
    17   13   14 2
    18   13   18 1
    19   14   15 1
    20   15   16 2
    21   16   17 1
    22   17   18 2
    23   18   19 1
    24   19   20 2
    25   20   21 1
    26   23   24 am
    27   24   25 1
    28   24   26 2
    29    2   27 1
    30    3   28 1
    31    3   29 1
    32    3   30 1
    33    4   31 1
    34    9   32 1
    35   11   33 1
    36   12   34 1
    37   14   35 1
    38   15   36 1
    39   16   37 1
    40   17   38 1
    41   19   39 1
    42   20   40 1
    43   21   41 1
    44   22   42 1
    45   22   43 1
    46   22   44 1
    47   23   45 1
    48   25   46 1
    49   25   47 1
    50   25   48 1
@<TRIPOS>PROPERTY_DATA
  Total_Score	| 10.4468
  Crash		| -0.8947
  Polar		| 4.3607
  FragIndex	| 1
  FragRMSD	| 0.189

