@<TRIPOS>MOLECULE
BindingDB_31524
 43 45 0 0 0
SMALL
NO_CHARGES


@<TRIPOS>ATOM
1    C       -32.9987   21.5788   29.3075  C     
2    C       -32.1443   20.4524   28.8459  C     
3    C       -32.5327   19.8400   27.4735  C     
4    N       -30.7721   20.8844   28.8023  N     
5    C       -29.8234   20.5778   29.6918  C     
6    C       -28.5527   21.1178   29.5693  C     
7    O       -30.0417   19.8665   30.6619  O     
8    C       -27.4109   20.3294   29.2116  C     
9    C       -28.3693   22.4868   29.8959  C     
10   C       -27.0957   23.0758   29.8659  C     
11   C       -25.9850   22.3076   29.4744  C     
12   C       -26.1410   20.9492   29.1561  C     
13   C       -33.5504   21.7089   30.6348  C     
14   C       -33.3401   20.8002   31.7135  C     
15   C       -33.9068   21.0154   32.9886  C     
16   C       -34.7129   22.1407   33.2244  C     
17   C       -34.9038   23.0904   32.2082  C     
18   C       -34.3279   22.8837   30.9341  C     
19   C       -34.5289   23.8473   29.9483  C     
20   C       -33.9676   23.6973   28.7283  C     
21   C       -33.2070   22.6089   28.4254  C     
22   C       -27.5064   18.8791   28.8809  C     
23   N       -26.9156   24.3542   30.2356  N     
24   H       -32.2483   19.6116   29.5279  H     
25   H       -33.5565   19.4703   27.4968  H     
26   H       -31.8846   18.9895   27.2382  H     
27   H       -32.4293   20.5767   26.6752  H     
28   H       -30.5188   21.4755   28.0689  H     
29   H       -29.1766   23.0593   30.1889  H     
30   H       -25.0476   22.7318   29.4598  H     
31   H       -25.3032   20.4169   28.8928  H     
32   H       -32.7833   19.9644   31.6009  H     
33   H       -33.7370   20.3459   33.7428  H     
34   H       -35.1171   22.2987   34.1422  H     
35   H       -35.4714   23.9191   32.4016  H     
36   H       -35.0360   24.6807   30.1368  H     
37   H       -34.1134   24.4011   28.0418  H     
38   H       -32.7982   22.5854   27.5168  H     
39   H       -27.8896   18.3363   29.7431  H     
40   H       -26.5439   18.4350   28.6118  H     
41   H       -28.1802   18.7360   28.0396  H     
42   H       -26.0280   24.7428   30.2036  H     
43   H       -27.6469   24.8845   30.5887  H     
@<TRIPOS>BOND
     1    1    2 1
     2    1   13 1
     3    1   21 2
     4    2    3 1
     5    2    4 1
     6    4    5 am
     7    5    6 1
     8    5    7 2
     9    6    8 1
    10    6    9 2
    11    8   12 2
    12    8   22 1
    13    9   10 1
    14   10   11 2
    15   10   23 1
    16   11   12 1
    17   13   14 2
    18   13   18 1
    19   14   15 1
    20   15   16 2
    21   16   17 1
    22   17   18 2
    23   18   19 1
    24   19   20 2
    25   20   21 1
    26    2   24 1
    27    3   25 1
    28    3   26 1
    29    3   27 1
    30    4   28 1
    31    9   29 1
    32   11   30 1
    33   12   31 1
    34   14   32 1
    35   15   33 1
    36   16   34 1
    37   17   35 1
    38   19   36 1
    39   20   37 1
    40   21   38 1
    41   22   39 1
    42   22   40 1
    43   22   41 1
    44   23   42 1
    45   23   43 1
@<TRIPOS>PROPERTY_DATA
  Total_Score	| 10.5481
  Crash		| -0.6202
  Polar		| 4.3263
  FragIndex	| 1
  FragRMSD	| 0.090

