@<TRIPOS>MOLECULE
BindingDB_31525
 46 48 0 0 0
SMALL
NO_CHARGES


@<TRIPOS>ATOM
1    C       -32.7574   22.0992   29.5879  C     
2    C       -32.1240   21.1118   28.6280  C     
3    N       -30.6816   21.2316   28.7372  N     
4    C       -29.8542   20.8274   29.6982  C     
5    C       -28.5431   21.2474   29.6289  C     
6    O       -30.1788   20.1340   30.6525  O     
7    C       -27.4861   20.3873   29.2159  C     
8    C       -28.2578   22.5784   30.0023  C     
9    C       -26.9490   23.0851   29.9497  C     
10   C       -25.9134   22.2487   29.4989  C     
11   C       -26.1765   20.9163   29.1304  C     
12   C       -33.5601   21.8233   30.7488  C     
13   C       -33.4001   20.7014   31.6066  C     
14   C       -34.2062   20.5082   32.7362  C     
15   C       -35.1895   21.4523   33.0773  C     
16   C       -35.3172   22.6183   32.3166  C     
17   C       -34.4851   22.8262   31.1947  C     
18   C       -34.4825   24.0748   30.5822  C     
19   C       -33.5287   24.3625   29.6770  C     
20   C       -32.6413   23.4198   29.2722  C     
21   C       -27.7351   18.9605   28.8485  C     
22   N       -26.6967   24.3392   30.3583  N     
23   C       -32.6051   19.6187   28.6861  C     
24   C       -32.4717   21.4875   27.1296  C     
25   H       -30.2670   21.7469   28.0264  H     
26   H       -29.0179   23.1931   30.3225  H     
27   H       -24.9561   22.5960   29.4521  H     
28   H       -25.3981   20.3285   28.8167  H     
29   H       -32.6492   20.0273   31.4674  H     
30   H       -34.0629   19.6847   33.3244  H     
31   H       -35.8085   21.2813   33.8827  H     
32   H       -35.9854   23.3342   32.6142  H     
33   H       -35.1189   24.7907   30.8598  H     
34   H       -33.4843   25.2843   29.2986  H     
35   H       -31.9533   23.7270   28.6241  H     
36   H       -28.1827   18.4318   29.6893  H     
37   H       -26.8154   18.4270   28.5849  H     
38   H       -28.4173   18.9089   27.9964  H     
39   H       -25.7824   24.6721   30.3490  H     
40   H       -27.4133   24.8857   30.7249  H     
41   H       -32.3291   19.1203   29.6040  H     
42   H       -32.1523   19.0248   27.8888  H     
43   H       -33.6936   19.5603   28.5873  H     
44   H       -33.5536   21.5433   26.9969  H     
45   H       -32.0833   20.7583   26.4104  H     
46   H       -32.0448   22.4399   26.8256  H     
@<TRIPOS>BOND
     1    1    2 1
     2    1   12 1
     3    1   20 2
     4    2    3 1
     5    2   23 1
     6    2   24 1
     7    3    4 am
     8    4    5 1
     9    4    6 2
    10    5    7 1
    11    5    8 2
    12    7   11 2
    13    7   21 1
    14    8    9 1
    15    9   10 2
    16    9   22 1
    17   10   11 1
    18   12   13 2
    19   12   17 1
    20   13   14 1
    21   14   15 2
    22   15   16 1
    23   16   17 2
    24   17   18 1
    25   18   19 2
    26   19   20 1
    27    3   25 1
    28    8   26 1
    29   10   27 1
    30   11   28 1
    31   13   29 1
    32   14   30 1
    33   15   31 1
    34   16   32 1
    35   18   33 1
    36   19   34 1
    37   20   35 1
    38   21   36 1
    39   21   37 1
    40   21   38 1
    41   22   39 1
    42   22   40 1
    43   23   41 1
    44   23   42 1
    45   23   43 1
    46   24   44 1
    47   24   45 1
    48   24   46 1
@<TRIPOS>PROPERTY_DATA
  Total_Score	| 9.9300
  Crash		| -1.4169
  Polar		| 4.5067
  FragIndex	| 1
  FragRMSD	| 0.563

