@<TRIPOS>MOLECULE
BindingDB_31522
 40 42 0 0 0
SMALL
NO_CHARGES


@<TRIPOS>ATOM
1    C       -33.0226   21.6990   29.3590  C     
2    C       -32.1243   20.6028   28.9029  C     
3    C       -32.4788   19.9932   27.5146  C     
4    N       -30.7682   21.1003   28.8880  N     
5    C       -29.7613   20.6709   29.6515  C     
6    C       -28.5107   21.2382   29.5393  C     
7    O       -29.9098   19.7103   30.4012  O     
8    C       -28.3394   22.6430   29.4725  C     
9    C       -27.3477   20.4218   29.5115  C     
10   C       -26.0646   20.9811   29.4139  C     
11   C       -25.9074   22.3770   29.3453  C     
12   C       -27.0489   23.2071   29.3920  C     
13   C       -33.5848   21.7844   30.6746  C     
14   C       -33.3564   20.8542   31.7254  C     
15   C       -33.9418   21.0101   33.0009  C     
16   C       -34.7732   22.1057   33.2665  C     
17   C       -35.0180   23.0514   32.2624  C     
18   C       -34.4220   22.9098   30.9857  C     
19   C       -34.6416   23.8838   30.0177  C     
20   C       -34.0566   23.7879   28.8072  C     
21   C       -33.2568   22.7276   28.5025  C     
22   N       -24.6764   22.9038   29.2065  N     
23   H       -32.2084   19.7455   29.5633  H     
24   H       -33.5121   19.6424   27.5071  H     
25   H       -31.8347   19.1352   27.3261  H     
26   H       -32.3407   20.7035   26.7024  H     
27   H       -30.5596   21.8033   28.2432  H     
28   H       -29.1524   23.2633   29.5063  H     
29   H       -27.4302   19.3987   29.5697  H     
30   H       -25.2501   20.3671   29.3903  H     
31   H       -26.9388   24.2277   29.3368  H     
32   H       -32.7513   20.0466   31.6167  H     
33   H       -33.7537   20.3262   33.7422  H     
34   H       -35.2030   22.2152   34.1936  H     
35   H       -35.6283   23.8506   32.4722  H     
36   H       -35.2186   24.6708   30.2070  H     
37   H       -34.2212   24.5016   28.1310  H     
38   H       -32.8265   22.7423   27.6020  H     
39   H       -24.5582   23.8613   29.1415  H     
40   H       -23.9064   22.3204   29.1568  H     
@<TRIPOS>BOND
     1    1    2 1
     2    1   13 1
     3    1   21 2
     4    2    3 1
     5    2    4 1
     6    4    5 am
     7    5    6 1
     8    5    7 2
     9    6    8 1
    10    6    9 2
    11    8   12 2
    12    9   10 1
    13   10   11 2
    14   11   12 1
    15   11   22 1
    16   13   14 2
    17   13   18 1
    18   14   15 1
    19   15   16 2
    20   16   17 1
    21   17   18 2
    22   18   19 1
    23   19   20 2
    24   20   21 1
    25    2   23 1
    26    3   24 1
    27    3   25 1
    28    3   26 1
    29    4   27 1
    30    8   28 1
    31    9   29 1
    32   10   30 1
    33   12   31 1
    34   14   32 1
    35   15   33 1
    36   16   34 1
    37   17   35 1
    38   19   36 1
    39   20   37 1
    40   21   38 1
    41   22   39 1
    42   22   40 1
@<TRIPOS>PROPERTY_DATA
  Total_Score	| 7.2000
  Crash		| -0.7585
  Polar		| 3.1156
  FragIndex	| 1
  FragRMSD	| 0.194

