@<TRIPOS>MOLECULE
BindingDB_31530
 50 52 0 0 0
SMALL
NO_CHARGES


@<TRIPOS>ATOM
1    C       -32.9482   21.5544   29.2196  C     
2    C       -32.1425   20.3968   28.7706  C     
3    N       -30.7665   20.8145   28.7399  N     
4    C       -29.8298   20.5284   29.6368  C     
5    C       -28.5573   21.0717   29.5333  C     
6    O       -30.0641   19.8099   30.6077  O     
7    C       -27.4062   20.2790   29.2541  C     
8    C       -28.4088   22.4706   29.6838  C     
9    C       -27.1477   23.1008   29.5724  C     
10   C       -26.0232   22.3072   29.2600  C     
11   C       -26.1525   20.9187   29.1141  C     
12   C       -33.4842   21.6905   30.5464  C     
13   C       -33.2799   20.7680   31.6093  C     
14   C       -33.8410   20.9682   32.8811  C     
15   C       -34.6205   22.1061   33.1369  C     
16   C       -34.8161   23.0577   32.1270  C     
17   C       -34.2385   22.8716   30.8485  C     
18   C       -34.3818   23.8614   29.8751  C     
19   C       -33.8184   23.7116   28.6688  C     
20   C       -33.1198   22.5866   28.3530  C     
21   C       -27.4765   18.8013   29.0634  C     
22   C       -27.0125   24.5792   29.6789  C     
23   C       -32.5600   19.7736   27.4077  C     
24   N       -26.3128   25.0243   30.9098  N     
25   C       -25.0481   25.7694   30.7476  C     
26   H       -32.2614   19.5510   29.4452  H     
27   H       -30.5049   21.3991   28.0069  H     
28   H       -29.2314   23.0452   29.8913  H     
29   H       -25.1060   22.7393   29.1106  H     
30   H       -25.3157   20.3874   28.8585  H     
31   H       -32.7028   19.9377   31.5048  H     
32   H       -33.6713   20.2912   33.6277  H     
33   H       -35.0280   22.2494   34.0633  H     
34   H       -35.3688   23.8949   32.3359  H     
35   H       -34.8801   24.6993   30.0733  H     
36   H       -33.9085   24.4345   27.9915  H     
37   H       -32.7145   22.5558   27.4448  H     
38   H       -27.8337   18.3253   29.9773  H     
39   H       -26.5055   18.3664   28.8232  H     
40   H       -28.1633   18.5702   28.2491  H     
41   H       -26.5258   24.9665   28.7777  H     
42   H       -28.0040   25.0379   29.7109  H     
43   H       -33.6146   19.4858   27.4309  H     
44   H       -31.9683   18.8765   27.2191  H     
45   H       -32.4003   20.4626   26.5775  H     
46   H       -26.9587   25.6334   31.4164  H     
47   H       -26.1183   24.2182   31.5094  H     
48   H       -24.2567   25.0990   30.4019  H     
49   H       -24.7682   26.1750   31.7218  H     
50   H       -25.1618   26.6010   30.0462  H     
@<TRIPOS>BOND
     1    1    2 1
     2    1   12 1
     3    1   20 2
     4    2    3 1
     5    2   23 1
     6    3    4 am
     7    4    5 1
     8    4    6 2
     9    5    7 1
    10    5    8 2
    11    7   11 2
    12    7   21 1
    13    8    9 1
    14    9   10 2
    15    9   22 1
    16   10   11 1
    17   12   13 2
    18   12   17 1
    19   13   14 1
    20   14   15 2
    21   15   16 1
    22   16   17 2
    23   17   18 1
    24   18   19 2
    25   19   20 1
    26   22   24 1
    27   24   25 1
    28    2   26 1
    29    3   27 1
    30    8   28 1
    31   10   29 1
    32   11   30 1
    33   13   31 1
    34   14   32 1
    35   15   33 1
    36   16   34 1
    37   18   35 1
    38   19   36 1
    39   20   37 1
    40   21   38 1
    41   21   39 1
    42   21   40 1
    43   22   41 1
    44   22   42 1
    45   23   43 1
    46   23   44 1
    47   23   45 1
    48   24   46 1
    49   24   47 1
    50   25   48 1
    51   25   49 1
    52   25   50 1
@<TRIPOS>PROPERTY_DATA
  Total_Score	| 11.7922
  Crash		| -0.9332
  Polar		| 5.5653
  FragIndex	| 1
  FragRMSD	| 0.181

