@<TRIPOS>MOLECULE
BindingDB_31508
 41 43 0 0 0
SMALL
NO_CHARGES


@<TRIPOS>ATOM
1    C       -34.0304   22.0173   31.4536  C     
2    C       -34.3639   21.8284   32.8127  C     
3    C       -35.0486   22.8343   33.5161  C     
4    C       -35.3957   24.0326   32.8695  C     
5    C       -35.0529   24.2409   31.5214  C     
6    C       -34.3678   23.2401   30.8002  C     
7    C       -33.9886   23.4085   29.4667  C     
8    C       -33.3150   22.4348   28.8207  C     
9    C       -32.9770   21.2408   29.4387  C     
10   C       -33.3458   21.0381   30.7301  C     
11   C       -32.1220   20.2503   28.7538  C     
12   C       -32.6210   19.8438   27.3437  C     
13   N       -30.7742   20.7646   28.7050  N     
14   C       -29.8219   20.5056   29.5962  C     
15   C       -28.5617   21.0623   29.4849  C     
16   O       -30.0305   19.7917   30.5693  O     
17   C       -27.4029   20.2777   29.1966  C     
18   C       -28.4166   22.4491   29.7234  C     
19   C       -27.1513   23.0550   29.6774  C     
20   C       -26.0129   22.2924   29.3800  C     
21   C       -26.1414   20.9150   29.1386  C     
22   C       -27.4891   18.8197   28.9084  C     
23   H       -34.1093   20.9675   33.2991  H     
24   H       -35.2926   22.6939   34.5003  H     
25   H       -35.8954   24.7601   33.3870  H     
26   H       -35.3052   25.1247   31.0733  H     
27   H       -34.2033   24.2538   28.9852  H     
28   H       -33.0532   22.5936   27.8749  H     
29   H       -33.0972   20.1952   31.1946  H     
30   H       -32.1305   19.3047   29.3053  H     
31   H       -33.6612   19.5134   27.3918  H     
32   H       -32.0274   19.0034   26.9759  H     
33   H       -32.5380   20.6703   26.6366  H     
34   H       -30.5659   21.3888   27.9902  H     
35   H       -29.2307   23.0301   29.9488  H     
36   H       -27.0557   24.0571   29.8567  H     
37   H       -25.0916   22.7363   29.3405  H     
38   H       -25.2970   20.3785   28.9176  H     
39   H       -27.9042   18.2904   29.7687  H     
40   H       -26.5161   18.3740   28.6858  H     
41   H       -28.1382   18.6551   28.0452  H     
@<TRIPOS>BOND
     1    1    2 2
     2    1    6 1
     3    1   10 1
     4    2    3 1
     5    3    4 2
     6    4    5 1
     7    5    6 2
     8    6    7 1
     9    7    8 2
    10    8    9 1
    11    9   10 2
    12    9   11 1
    13   11   12 1
    14   11   13 1
    15   13   14 am
    16   14   15 1
    17   14   16 2
    18   15   17 1
    19   15   18 2
    20   17   21 2
    21   17   22 1
    22   18   19 1
    23   19   20 2
    24   20   21 1
    25    2   23 1
    26    3   24 1
    27    4   25 1
    28    5   26 1
    29    7   27 1
    30    8   28 1
    31   10   29 1
    32   11   30 1
    33   12   31 1
    34   12   32 1
    35   12   33 1
    36   13   34 1
    37   18   35 1
    38   19   36 1
    39   20   37 1
    40   21   38 1
    41   22   39 1
    42   22   40 1
    43   22   41 1
@<TRIPOS>PROPERTY_DATA
  Total_Score	| 8.9499
  Crash		| -0.8441
  Polar		| 3.3998
  FragIndex	| 1
  FragRMSD	| 0.966

