@<TRIPOS>MOLECULE
BindingDB_31520
 41 43 0 0 0
SMALL
NO_CHARGES


@<TRIPOS>ATOM
1    C       -32.9838   21.5881   29.3174  C     
2    C       -32.1011   20.4873   28.8616  C     
3    C       -32.4961   19.8576   27.4932  C     
4    N       -30.7343   20.9466   28.8379  N     
5    C       -29.7998   20.6252   29.7232  C     
6    C       -28.5061   21.0947   29.5772  C     
7    O       -30.0395   19.8924   30.6773  O     
8    C       -27.4273   20.2380   29.1967  C     
9    C       -28.2408   22.4511   29.8889  C     
10   C       -26.9444   22.9764   29.7894  C     
11   C       -25.8957   22.1575   29.3399  C     
12   C       -26.1372   20.8025   29.0424  C     
13   C       -27.6441   18.7895   28.9417  C     
14   C       -33.5486   21.6952   30.6331  C     
15   C       -33.3346   20.7743   31.6979  C     
16   C       -33.8761   20.9831   32.9837  C     
17   C       -34.6653   22.1119   33.2417  C     
18   C       -34.9026   23.0452   32.2222  C     
19   C       -34.3517   22.8451   30.9331  C     
20   C       -34.5705   23.8028   29.9417  C     
21   C       -33.9988   23.6783   28.7342  C     
22   C       -33.2089   22.6076   28.4443  C     
23   H       -32.1688   19.6353   29.5345  H     
24   H       -33.5146   19.4520   27.5444  H     
25   H       -31.8140   19.0323   27.2665  H     
26   H       -32.4451   20.5747   26.6664  H     
27   H       -30.4819   21.5592   28.1212  H     
28   H       -28.9957   23.0589   30.2367  H     
29   H       -26.7678   23.9566   30.0264  H     
30   H       -24.9521   22.5422   29.2524  H     
31   H       -25.3526   20.2241   28.7290  H     
32   H       -28.0924   18.3258   29.8274  H     
33   H       -26.7125   18.2561   28.7261  H     
34   H       -28.3298   18.6623   28.0958  H     
35   H       -32.7719   19.9382   31.5850  H     
36   H       -33.6895   20.3151   33.7368  H     
37   H       -35.0574   22.2632   34.1764  H     
38   H       -35.4742   23.8693   32.4334  H     
39   H       -35.1395   24.6057   30.1220  H     
40   H       -34.1495   24.3863   28.0459  H     
41   H       -32.7851   22.6050   27.5475  H     
@<TRIPOS>BOND
     1    1    2 1
     2    1   14 1
     3    1   22 2
     4    2    3 1
     5    2    4 1
     6    4    5 am
     7    5    6 1
     8    5    7 2
     9    6    8 1
    10    6    9 2
    11    8   12 2
    12    8   13 1
    13    9   10 1
    14   10   11 2
    15   11   12 1
    16   14   15 2
    17   14   19 1
    18   15   16 1
    19   16   17 2
    20   17   18 1
    21   18   19 2
    22   19   20 1
    23   20   21 2
    24   21   22 1
    25    2   23 1
    26    3   24 1
    27    3   25 1
    28    3   26 1
    29    4   27 1
    30    9   28 1
    31   10   29 1
    32   11   30 1
    33   12   31 1
    34   13   32 1
    35   13   33 1
    36   13   34 1
    37   15   35 1
    38   16   36 1
    39   17   37 1
    40   18   38 1
    41   20   39 1
    42   21   40 1
    43   22   41 1
@<TRIPOS>PROPERTY_DATA
  Total_Score	| 9.9007
  Crash		| -0.6911
  Polar		| 3.4497
  FragIndex	| 1
  FragRMSD	| 0.130

