@<TRIPOS>MOLECULE
BindingDB_31514
 44 46 0 0 0
SMALL
NO_CHARGES


@<TRIPOS>ATOM
1    C       -33.8345   21.6441   31.6927  C     
2    C       -34.0404   21.3602   33.0626  C     
3    C       -34.6963   22.2925   33.8859  C     
4    C       -35.1637   23.5053   33.3456  C     
5    C       -34.9704   23.7959   31.9855  C     
6    C       -34.2913   22.8821   31.1505  C     
7    C       -34.0006   23.1804   29.8187  C     
8    C       -33.2767   22.3175   29.0766  C     
9    C       -32.8560   21.0916   29.5652  C     
10   C       -33.1521   20.7649   30.8542  C     
11   C       -32.0331   20.1829   28.7461  C     
12   C       -32.6081   19.8753   27.3375  C     
13   N       -30.6834   20.6900   28.6731  N     
14   C       -29.7175   20.4220   29.5489  C     
15   C       -28.4288   20.9316   29.4029  C     
16   O       -29.9428   19.7384   30.5430  O     
17   C       -27.3266   20.0424   29.2176  C     
18   C       -28.1918   22.3350   29.5063  C     
19   C       -26.8628   22.8207   29.4504  C     
20   C       -25.7834   21.9491   29.2588  C     
21   C       -26.0175   20.5717   29.1361  C     
22   C       -27.4978   18.5669   29.0892  C     
23   C       -29.2965   23.3159   29.6749  C     
24   H       -33.6953   20.4870   33.4807  H     
25   H       -34.8212   22.0955   34.8821  H     
26   H       -35.6379   24.1792   33.9469  H     
27   H       -35.2991   24.6918   31.6081  H     
28   H       -34.3092   24.0396   29.4184  H     
29   H       -33.0617   22.5793   28.1403  H     
30   H       -32.8467   19.9011   31.2337  H     
31   H       -32.0079   19.1935   29.2217  H     
32   H       -33.6690   19.6182   27.4195  H     
33   H       -32.0828   19.0185   26.9092  H     
34   H       -32.4893   20.7327   26.6681  H     
35   H       -30.4731   21.2846   27.9293  H     
36   H       -26.6709   23.8228   29.5250  H     
37   H       -24.8269   22.3158   29.2110  H     
38   H       -25.2119   19.9567   28.9979  H     
39   H       -27.9092   18.1607   30.0188  H     
40   H       -26.5546   18.0506   28.8852  H     
41   H       -28.1857   18.3498   28.2664  H     
42   H       -29.8477   23.4127   28.7336  H     
43   H       -28.9323   24.3079   29.9658  H     
44   H       -29.9802   22.9701   30.4546  H     
@<TRIPOS>BOND
     1    1    2 2
     2    1    6 1
     3    1   10 1
     4    2    3 1
     5    3    4 2
     6    4    5 1
     7    5    6 2
     8    6    7 1
     9    7    8 2
    10    8    9 1
    11    9   10 2
    12    9   11 1
    13   11   12 1
    14   11   13 1
    15   13   14 am
    16   14   15 1
    17   14   16 2
    18   15   17 1
    19   15   18 2
    20   17   21 2
    21   17   22 1
    22   18   19 1
    23   18   23 1
    24   19   20 2
    25   20   21 1
    26    2   24 1
    27    3   25 1
    28    4   26 1
    29    5   27 1
    30    7   28 1
    31    8   29 1
    32   10   30 1
    33   11   31 1
    34   12   32 1
    35   12   33 1
    36   12   34 1
    37   13   35 1
    38   19   36 1
    39   20   37 1
    40   21   38 1
    41   22   39 1
    42   22   40 1
    43   22   41 1
    44   23   42 1
    45   23   43 1
    46   23   44 1
@<TRIPOS>PROPERTY_DATA
  Total_Score	| 8.4785
  Crash		| -1.7756
  Polar		| 3.2812
  FragIndex	| 1
  FragRMSD	| 0.645

