@<TRIPOS>MOLECULE
BindingDB_31527
 47 49 0 0 0
SMALL
NO_CHARGES


@<TRIPOS>ATOM
1    C       -32.8563   21.6710   29.4519  C     
2    C       -31.9427   20.5862   29.0185  C     
3    N       -30.5889   21.0859   28.9798  N     
4    C       -29.6038   20.7662   29.8148  C     
5    C       -28.3508   21.3475   29.6802  C     
6    O       -29.7850   20.0085   30.7567  O     
7    C       -27.1862   20.5975   29.3276  C     
8    C       -28.2370   22.7430   29.9077  C     
9    C       -27.0037   23.4053   29.7537  C     
10   C       -25.8817   22.6849   29.3208  C     
11   C       -25.9729   21.3002   29.1076  C     
12   C       -33.4940   21.7190   30.7357  C     
13   C       -33.2800   20.7833   31.7852  C     
14   C       -33.9183   20.9055   33.0318  C     
15   C       -34.7994   21.9676   33.2718  C     
16   C       -35.0322   22.9192   32.2692  C     
17   C       -34.3775   22.8129   31.0205  C     
18   C       -34.5655   23.8010   30.0550  C     
19   C       -33.9107   23.7414   28.8845  C     
20   C       -33.0646   22.7100   28.6009  C     
21   C       -27.2038   19.1193   29.0797  C     
22   N       -26.8903   24.7171   30.0387  N     
23   C       -32.2998   19.9330   27.6576  C     
24   O       -25.9355   18.4596   29.2826  O     
25   C       -25.4134   18.5119   30.6259  C     
26   H       -32.0049   19.7377   29.6920  H     
27   H       -30.3784   21.7214   28.2692  H     
28   H       -29.0539   23.2927   30.1956  H     
29   H       -24.9832   23.1535   29.1843  H     
30   H       -25.1318   20.8056   28.8015  H     
31   H       -32.6338   20.0029   31.6946  H     
32   H       -33.7355   20.2212   33.7722  H     
33   H       -35.2655   22.0478   34.1796  H     
34   H       -35.6742   23.6907   32.4652  H     
35   H       -35.1729   24.5697   30.2278  H     
36   H       -34.0488   24.4613   28.2086  H     
37   H       -32.5922   22.7481   27.7238  H     
38   H       -27.9503   18.6043   29.6873  H     
39   H       -27.4948   18.9690   28.0407  H     
40   H       -26.0381   25.1680   29.9355  H     
41   H       -27.6309   25.1862   30.4509  H     
42   H       -33.3417   19.6009   27.6633  H     
43   H       -31.6660   19.0572   27.4893  H     
44   H       -32.1492   20.6258   26.8280  H     
45   H       -25.2808   19.5367   30.9745  H     
46   H       -24.4368   18.0268   30.6359  H     
47   H       -26.0702   17.9758   31.3133  H     
@<TRIPOS>BOND
     1    1    2 1
     2    1   12 1
     3    1   20 2
     4    2    3 1
     5    2   23 1
     6    3    4 am
     7    4    5 1
     8    4    6 2
     9    5    7 1
    10    5    8 2
    11    7   11 2
    12    7   21 1
    13    8    9 1
    14    9   10 2
    15    9   22 1
    16   10   11 1
    17   12   13 2
    18   12   17 1
    19   13   14 1
    20   14   15 2
    21   15   16 1
    22   16   17 2
    23   17   18 1
    24   18   19 2
    25   19   20 1
    26   21   24 1
    27   24   25 1
    28    2   26 1
    29    3   27 1
    30    8   28 1
    31   10   29 1
    32   11   30 1
    33   13   31 1
    34   14   32 1
    35   15   33 1
    36   16   34 1
    37   18   35 1
    38   19   36 1
    39   20   37 1
    40   21   38 1
    41   21   39 1
    42   22   40 1
    43   22   41 1
    44   23   42 1
    45   23   43 1
    46   23   44 1
    47   25   45 1
    48   25   46 1
    49   25   47 1
@<TRIPOS>PROPERTY_DATA
  Total_Score	| 8.9636
  Crash		| -2.4316
  Polar		| 4.1670
  FragIndex	| 1
  FragRMSD	| 0.234

