@<TRIPOS>MOLECULE
BindingDB_31531
 47 49 0 0 0
SMALL
NO_CHARGES


@<TRIPOS>ATOM
1    C       -32.9661   21.6055   29.3508  C     
2    C       -32.0433   20.5216   28.9495  C     
3    N       -30.6761   20.9861   28.8680  N     
4    C       -29.6822   20.6424   29.6922  C     
5    C       -28.3496   21.0540   29.5017  C     
6    O       -29.9587   19.9777   30.6828  O     
7    C       -27.2883   20.1226   29.2473  C     
8    C       -28.0241   22.4412   29.5608  C     
9    C       -26.7039   22.9091   29.3999  C     
10   C       -25.6759   21.9698   29.1667  C     
11   C       -25.9654   20.6001   29.1031  C     
12   C       -33.5370   21.7421   30.6639  C     
13   C       -33.4354   20.7700   31.6948  C     
14   C       -33.9852   20.9937   32.9733  C     
15   C       -34.6738   22.1865   33.2492  C     
16   C       -34.8356   23.1463   32.2406  C     
17   C       -34.2917   22.9302   30.9505  C     
18   C       -34.5228   23.8545   29.9308  C     
19   C       -34.0066   23.6577   28.7038  C     
20   C       -33.2410   22.5663   28.4333  C     
21   C       -27.4956   18.6545   29.0751  C     
22   C       -26.3876   24.3576   29.4365  C     
23   C       -32.5047   19.8665   27.6197  C     
24   N       -26.3562   24.8600   30.8161  N     
25   H       -32.0476   19.7390   29.7025  H     
26   H       -30.4590   21.5745   28.1208  H     
27   H       -28.7583   23.1264   29.7498  H     
28   H       -24.7060   22.2695   29.0441  H     
29   H       -25.1864   19.9503   28.9480  H     
30   H       -32.9702   19.8748   31.5564  H     
31   H       -33.8869   20.2865   33.7066  H     
32   H       -35.0661   22.3478   34.1802  H     
33   H       -35.3369   24.0145   32.4598  H     
34   H       -35.0706   24.6655   30.1037  H     
35   H       -34.1971   24.3163   27.9826  H     
36   H       -32.8423   22.5054   27.5219  H     
37   H       -27.8146   18.2012   30.0150  H     
38   H       -26.5919   18.1288   28.7609  H     
39   H       -28.2573   18.4788   28.3121  H     
40   H       -25.3940   24.5628   29.0047  H     
41   H       -27.1279   24.9210   28.8506  H     
42   H       -33.4976   19.4213   27.7465  H     
43   H       -31.8082   19.0709   27.3327  H     
44   H       -32.5493   20.5935   26.8066  H     
45   H       -27.3115   24.9714   31.1610  H     
46   H       -25.8933   25.7685   30.8273  H     
47   H       -25.8454   24.2022   31.4205  H     
@<TRIPOS>BOND
     1    1    2 1
     2    1   12 1
     3    1   20 2
     4    2    3 1
     5    2   23 1
     6    3    4 am
     7    4    5 1
     8    4    6 2
     9    5    7 1
    10    5    8 2
    11    7   11 2
    12    7   21 1
    13    8    9 1
    14    9   10 2
    15    9   22 1
    16   10   11 1
    17   12   13 2
    18   12   17 1
    19   13   14 1
    20   14   15 2
    21   15   16 1
    22   16   17 2
    23   17   18 1
    24   18   19 2
    25   19   20 1
    26   22   24 1
    27    2   25 1
    28    3   26 1
    29    8   27 1
    30   10   28 1
    31   11   29 1
    32   13   30 1
    33   14   31 1
    34   15   32 1
    35   16   33 1
    36   18   34 1
    37   19   35 1
    38   20   36 1
    39   21   37 1
    40   21   38 1
    41   21   39 1
    42   22   40 1
    43   22   41 1
    44   23   42 1
    45   23   43 1
    46   23   44 1
    47   24   45 1
    48   24   46 1
    49   24   47 1
@<TRIPOS>PROPERTY_DATA
  Total_Score	| 11.2038
  Crash		| -1.1116
  Polar		| 5.4294
  FragIndex	| 1
  FragRMSD	| 0.257

