@<TRIPOS>MOLECULE
BindingDB_31516
 40 42 0 0 0
SMALL
NO_CHARGES


@<TRIPOS>ATOM
1    C       -34.0566   22.0010   31.2949  C     
2    C       -34.3190   21.8943   32.6783  C     
3    C       -34.8553   22.9822   33.3813  C     
4    C       -35.1600   24.1757   32.7032  C     
5    C       -34.9022   24.2971   31.3256  C     
6    C       -34.3426   23.2142   30.6059  C     
7    C       -34.0380   23.2901   29.2436  C     
8    C       -33.4321   22.2497   28.6221  C     
9    C       -33.1287   21.0721   29.2794  C     
10   C       -33.4824   20.9480   30.5861  C     
11   C       -32.3102   20.0047   28.6599  C     
12   C       -32.6894   19.6718   27.1919  C     
13   N       -30.8790   20.1786   28.7505  N     
14   C       -30.1647   21.1337   29.3415  C     
15   C       -28.7583   21.1332   29.3702  C     
16   O       -30.7726   22.0538   29.8882  O     
17   C       -27.9962   20.0340   28.8806  C     
18   C       -28.0269   22.2319   29.8958  C     
19   C       -26.6187   22.2420   29.9286  C     
20   C       -25.8939   21.1336   29.4571  C     
21   C       -26.5881   20.0314   28.9338  C     
22   N       -24.5504   21.1200   29.5260  N     
23   H       -34.1118   21.0295   33.1827  H     
24   H       -35.0423   22.9004   34.3827  H     
25   H       -35.5670   24.9603   33.2147  H     
26   H       -35.1340   25.1727   30.8474  H     
27   H       -34.2548   24.1112   28.7263  H     
28   H       -33.2288   22.3468   27.6526  H     
29   H       -33.2742   20.1090   31.0804  H     
30   H       -32.5014   19.0717   29.1955  H     
31   H       -33.7668   19.5247   27.0900  H     
32   H       -32.1960   18.7427   26.8924  H     
33   H       -32.3686   20.4637   26.5111  H     
34   H       -30.3665   19.4481   28.3645  H     
35   H       -28.4526   19.2110   28.4854  H     
36   H       -28.5112   23.0563   30.2615  H     
37   H       -26.1219   23.0484   30.3144  H     
38   H       -26.0670   19.2163   28.5971  H     
39   H       -24.0540   20.3400   29.2287  H     
40   H       -24.0744   21.8783   29.8999  H     
@<TRIPOS>BOND
     1    1    2 2
     2    1    6 1
     3    1   10 1
     4    2    3 1
     5    3    4 2
     6    4    5 1
     7    5    6 2
     8    6    7 1
     9    7    8 2
    10    8    9 1
    11    9   10 2
    12    9   11 1
    13   11   12 1
    14   11   13 1
    15   13   14 am
    16   14   15 1
    17   14   16 2
    18   15   17 1
    19   15   18 2
    20   17   21 2
    21   18   19 1
    22   19   20 2
    23   20   21 1
    24   20   22 1
    25    2   23 1
    26    3   24 1
    27    4   25 1
    28    5   26 1
    29    7   27 1
    30    8   28 1
    31   10   29 1
    32   11   30 1
    33   12   31 1
    34   12   32 1
    35   12   33 1
    36   13   34 1
    37   17   35 1
    38   18   36 1
    39   19   37 1
    40   21   38 1
    41   22   39 1
    42   22   40 1
@<TRIPOS>PROPERTY_DATA
  Total_Score	| 5.4577
  Crash		| -1.6666
  Polar		| 1.0405
  FragIndex	| 1
  FragRMSD	| 1.251

