@<TRIPOS>MOLECULE
BindingDB_31521
 44 46 0 0 0
SMALL
NO_CHARGES


@<TRIPOS>ATOM
1    C       -33.2446   21.6545   29.7332  C     
2    C       -32.3041   20.6021   29.2395  C     
3    C       -32.8186   19.8189   27.9870  C     
4    N       -30.9033   21.0852   29.0856  N     
5    C       -29.8765   20.6402   29.8566  C     
6    C       -28.5345   21.0274   29.7707  C     
7    O       -30.0871   19.8102   30.7346  O     
8    C       -27.4941   20.1432   29.3370  C     
9    C       -28.1891   22.3716   30.0881  C     
10   C       -26.8722   22.8399   29.9512  C     
11   C       -25.8633   21.9721   29.5011  C     
12   C       -26.1724   20.6379   29.2108  C     
13   C       -27.7639   18.7221   28.9871  C     
14   C       -33.7577   21.7231   31.0769  C     
15   C       -33.5018   20.7716   32.1110  C     
16   C       -34.0895   20.8811   33.3803  C     
17   C       -34.9505   21.9433   33.6744  C     
18   C       -35.2081   22.9174   32.7071  C     
19   C       -34.6176   22.8226   31.4259  C     
20   C       -34.8796   23.8069   30.4799  C     
21   C       -34.4098   23.6902   29.2289  C     
22   C       -33.6475   22.6266   28.8659  C     
23   C       -30.6458   22.0744   28.0505  C     
24   H       -32.3095   19.7879   29.9558  H     
25   H       -33.7772   19.3444   28.2172  H     
26   H       -32.1034   19.0381   27.7195  H     
27   H       -32.9634   20.4515   27.1171  H     
28   H       -28.9075   23.0284   30.4130  H     
29   H       -26.6473   23.8130   30.1765  H     
30   H       -24.9063   22.3150   29.3992  H     
31   H       -25.4153   20.0229   28.8962  H     
32   H       -28.1602   18.1938   29.8558  H     
33   H       -26.8676   18.1887   28.6604  H     
34   H       -28.4940   18.6767   28.1774  H     
35   H       -32.8857   19.9796   31.9750  H     
36   H       -33.8953   20.1737   34.0948  H     
37   H       -35.3901   22.0080   34.5975  H     
38   H       -35.8403   23.6913   32.9356  H     
39   H       -35.4283   24.6055   30.7071  H     
40   H       -34.6318   24.3876   28.5525  H     
41   H       -33.3730   22.5872   27.9111  H     
42   H       -31.1792   21.8312   27.1250  H     
43   H       -29.5925   22.1473   27.7648  H     
44   H       -30.9590   23.0641   28.4034  H     
@<TRIPOS>BOND
     1    1    2 1
     2    1   14 1
     3    1   22 2
     4    2    3 1
     5    2    4 1
     6    4    5 am
     7    4   23 1
     8    5    6 1
     9    5    7 2
    10    6    8 1
    11    6    9 2
    12    8   12 2
    13    8   13 1
    14    9   10 1
    15   10   11 2
    16   11   12 1
    17   14   15 2
    18   14   19 1
    19   15   16 1
    20   16   17 2
    21   17   18 1
    22   18   19 2
    23   19   20 1
    24   20   21 2
    25   21   22 1
    26    2   24 1
    27    3   25 1
    28    3   26 1
    29    3   27 1
    30    9   28 1
    31   10   29 1
    32   11   30 1
    33   12   31 1
    34   13   32 1
    35   13   33 1
    36   13   34 1
    37   15   35 1
    38   16   36 1
    39   17   37 1
    40   18   38 1
    41   20   39 1
    42   21   40 1
    43   22   41 1
    44   23   42 1
    45   23   43 1
    46   23   44 1
@<TRIPOS>PROPERTY_DATA
  Total_Score	| 5.6374
  Crash		| -4.1803
  Polar		| 1.9557
  FragIndex	| 1
  FragRMSD	| 0.433

