@<TRIPOS>MOLECULE
BindingDB_13599
 72 77 0 0 0
SMALL
NO_CHARGES


@<TRIPOS>ATOM
1    C        37.4069   48.8382   55.3215  C     
2    C        38.6245   48.1958   55.0423  C     
3    C        38.6406   47.0157   54.2718  C     
4    C        37.4427   46.4385   53.7490  C     
5    C        36.2252   47.1274   54.0302  C     
6    C        36.2051   48.3096   54.8014  C     
7    C        36.1841   44.3477   52.7961  C     
8    C        36.1481   43.1116   51.9429  C     
9    C        36.9350   41.9709   52.2364  C     
10   C        36.9094   40.8286   51.4142  C     
11   C        36.0551   40.7682   50.2889  C     
12   C        35.2305   41.8831   50.0171  C     
13   C        35.2670   43.0231   50.8381  C     
14   C        35.9783   39.6057   49.4713  C     
15   C        36.1071   39.7069   48.0682  C     
16   C        35.9357   38.5739   47.2593  C     
17   C        35.6312   37.3273   47.8300  C     
18   C        35.4941   37.1993   49.2297  C     
19   C        35.6800   38.3446   50.0407  C     
20   C        37.5362   45.1725   52.9014  C     
21   C        38.0104   45.6105   51.4507  C     
22   C        37.0497   46.3536   50.5789  C     
23   C        36.3483   45.6740   49.5591  C     
24   C        35.3961   46.3352   48.7660  C     
25   C        35.1516   47.7206   48.9165  C     
26   C        35.9198   48.4167   49.8812  C     
27   C        36.8534   47.7489   50.6993  C     
28   C        34.0911   48.3897   48.0932  C     
29   F        32.9669   47.5930   48.0462  F     
30   F        33.6664   49.5857   48.6324  F     
31   P        34.5955   48.6898   46.5338  P     
32   O        35.7487   49.5510   46.4658  O     
33   O        34.9615   47.4185   45.7449  O     
34   O        33.4937   49.3782   45.7138  O     
35   N        38.5312   44.2980   53.5373  N     
36   N        39.5695   43.8320   52.9395  N     
37   N        40.2755   43.0639   53.6462  N     
38   C        39.6955   42.9908   54.8428  C     
39   C        38.5632   43.7974   54.7938  C     
40   C        38.0832   43.2007   57.1043  C     
41   C        37.7438   43.9184   55.9355  C     
42   C        40.0573   42.2711   55.9929  C     
43   C        39.2363   42.3849   57.1328  C     
44   P        35.0705   35.8143   49.9024  P     
45   O        33.7606   35.9916   50.4755  O     
46   O        34.9869   34.6294   48.9204  O     
47   O        36.0437   35.4366   51.0357  O     
48   H        37.3907   49.7006   55.8802  H     
49   H        39.5039   48.5805   55.4151  H     
50   H        39.5474   46.5754   54.0841  H     
51   H        35.3191   46.7931   53.6733  H     
52   H        35.3172   48.7900   54.9826  H     
53   H        35.4191   45.0265   52.4245  H     
54   H        35.8541   44.0570   53.7929  H     
55   H        37.5378   41.9429   53.0624  H     
56   H        37.4972   40.0296   51.6662  H     
57   H        34.5754   41.8699   49.2301  H     
58   H        34.6215   43.7898   50.6307  H     
59   H        36.3230   40.6053   47.6214  H     
60   H        36.0233   38.6674   46.2515  H     
61   H        35.4871   36.5321   47.2034  H     
62   H        35.5639   38.2805   51.0569  H     
63   H        38.9169   46.2139   51.5245  H     
64   H        38.3227   44.7097   50.9160  H     
65   H        36.5159   44.6807   49.3848  H     
66   H        34.8770   45.7901   48.0734  H     
67   H        35.8150   49.4263   49.9996  H     
68   H        37.3976   48.2999   51.3692  H     
69   H        37.4994   43.2846   57.9408  H     
70   H        36.9163   44.5145   55.9255  H     
71   H        40.8923   41.6811   55.9985  H     
72   H        39.4718   41.8656   57.9816  H     
@<TRIPOS>BOND
     1    1    2 2
     2    1    6 1
     3    2    3 1
     4    3    4 2
     5    4    5 1
     6    4   20 1
     7    5    6 2
     8    7    8 1
     9    7   20 1
    10    8    9 1
    11    8   13 2
    12    9   10 2
    13   10   11 1
    14   11   12 2
    15   11   14 1
    16   12   13 1
    17   14   15 2
    18   14   19 1
    19   15   16 1
    20   16   17 2
    21   17   18 1
    22   18   19 2
    23   18   44 1
    24   20   21 1
    25   20   35 1
    26   21   22 1
    27   22   23 1
    28   22   27 2
    29   23   24 2
    30   24   25 1
    31   25   26 2
    32   25   28 1
    33   26   27 1
    34   28   29 1
    35   28   30 1
    36   28   31 1
    37   31   32 2
    38   31   33 1
    39   31   34 1
    40   35   36 1
    41   35   39 1
    42   36   37 2
    43   37   38 1
    44   38   39 2
    45   38   42 1
    46   39   41 1
    47   40   41 2
    48   40   43 1
    49   42   43 2
    50   44   45 2
    51   44   46 1
    52   44   47 1
    53    1   48 1
    54    2   49 1
    55    3   50 1
    56    5   51 1
    57    6   52 1
    58    7   53 1
    59    7   54 1
    60    9   55 1
    61   10   56 1
    62   12   57 1
    63   13   58 1
    64   15   59 1
    65   16   60 1
    66   17   61 1
    67   19   62 1
    68   21   63 1
    69   21   64 1
    70   23   65 1
    71   24   66 1
    72   26   67 1
    73   27   68 1
    74   40   69 1
    75   41   70 1
    76   42   71 1
    77   43   72 1
@<TRIPOS>PROPERTY_DATA
  Total_Score	| 15.5453
  Crash		| -1.9637
  Polar		| 8.7405
  FragIndex	| 1
  FragRMSD	| 0.539

