@<TRIPOS>MOLECULE
BindingDB_13593
 46 49 0 0 0
SMALL
NO_CHARGES


@<TRIPOS>ATOM
1    C        39.6786   42.6972   54.4650  C     
2    C        40.2079   42.3033   55.7121  C     
3    C        39.7480   42.9036   56.9049  C     
4    C        38.7568   43.9094   56.8603  C     
5    C        38.6913   43.7025   54.4280  C     
6    C        38.2485   44.2911   55.6050  C     
7    N        37.3264   45.1930   55.2530  N     
8    N        37.2120   45.1593   53.9936  N     
9    N        37.9807   44.2963   53.4483  N     
10   C        38.0414   44.0269   52.0305  C     
11   C        36.8673   43.1924   51.6047  C     
12   C        35.5400   43.6639   51.7555  C     
13   C        34.4353   42.8837   51.3447  C     
14   C        34.6439   41.6141   50.7825  C     
15   C        35.9482   41.1106   50.6533  C     
16   C        37.0471   41.8882   51.0724  C     
17   C        38.3365   45.3103   51.1715  C     
18   C        37.2016   46.0369   50.5246  C     
19   C        36.9595   47.4111   50.7713  C     
20   C        35.9696   48.1098   50.0443  C     
21   C        35.1963   47.4695   49.0406  C     
22   C        35.4434   46.0933   48.8136  C     
23   C        36.4397   45.3937   49.5255  C     
24   C        34.1528   48.1905   48.2391  C     
25   F        33.0020   47.4279   48.2005  F     
26   F        33.7663   49.3876   48.8114  F     
27   P        34.6257   48.5283   46.6763  P     
28   O        35.7546   49.4151   46.6022  O     
29   O        35.0130   47.2736   45.8695  O     
30   O        33.5031   49.2110   45.8664  O     
31   H        40.0145   42.2594   53.6049  H     
32   H        40.9314   41.5845   55.7508  H     
33   H        40.1354   42.6149   57.8052  H     
34   H        38.4219   44.3567   57.7145  H     
35   H        38.9407   43.4166   51.8859  H     
36   H        35.3568   44.5856   52.1601  H     
37   H        33.4875   43.2386   51.4687  H     
38   H        33.8470   41.0523   50.4752  H     
39   H        36.1027   40.1815   50.2589  H     
40   H        37.9832   41.4872   50.9868  H     
41   H        38.8981   46.0032   51.8057  H     
42   H        39.0235   45.0320   50.3670  H     
43   H        37.5213   47.9172   51.4585  H     
44   H        35.8331   49.1031   50.2510  H     
45   H        34.9175   45.5852   48.0992  H     
46   H        36.6149   44.4170   49.2888  H     
@<TRIPOS>BOND
     1    1    2 2
     2    1    5 1
     3    2    3 1
     4    3    4 2
     5    4    6 1
     6    5    6 2
     7    5    9 1
     8    6    7 1
     9    7    8 2
    10    8    9 1
    11    9   10 1
    12   10   11 1
    13   10   17 1
    14   11   12 1
    15   11   16 2
    16   12   13 2
    17   13   14 1
    18   14   15 2
    19   15   16 1
    20   17   18 1
    21   18   19 2
    22   18   23 1
    23   19   20 1
    24   20   21 2
    25   21   22 1
    26   21   24 1
    27   22   23 2
    28   24   25 1
    29   24   26 1
    30   24   27 1
    31   27   28 2
    32   27   29 1
    33   27   30 1
    34    1   31 1
    35    2   32 1
    36    3   33 1
    37    4   34 1
    38   10   35 1
    39   12   36 1
    40   13   37 1
    41   14   38 1
    42   15   39 1
    43   16   40 1
    44   17   41 1
    45   17   42 1
    46   19   43 1
    47   20   44 1
    48   22   45 1
    49   23   46 1
@<TRIPOS>PROPERTY_DATA
  Total_Score	| 11.2927
  Crash		| -1.6111
  Polar		| 6.0761
  FragIndex	| 1
  FragRMSD	| 0.996

