@<TRIPOS>MOLECULE
BindingDB_13596
 65 69 0 0 0
SMALL
NO_CHARGES


@<TRIPOS>ATOM
1    C        37.6535   43.6874   55.8471  C     
2    C        38.0276   43.0438   57.0479  C     
3    C        39.2319   42.3120   57.1198  C     
4    C        40.0763   42.2164   55.9902  C     
5    C        38.4936   43.5766   54.7184  C     
6    C        39.6813   42.8586   54.8064  C     
7    N        40.2705   42.9377   53.6123  N     
8    N        39.5190   43.6282   52.8714  N     
9    N        38.4478   44.0453   53.4460  N     
10   C        37.2500   46.0946   53.7073  C     
11   C        38.4015   46.8112   54.1478  C     
12   C        38.3038   47.9471   54.9748  C     
13   C        37.0453   48.3971   55.4025  C     
14   C        35.8844   47.7189   54.9896  C     
15   C        35.9897   46.5843   54.1541  C     
16   C        37.9138   45.3971   51.3736  C     
17   C        36.9523   46.1944   50.5464  C     
18   C        36.2762   45.6027   49.4588  C     
19   C        35.3426   46.3244   48.6979  C     
20   C        35.1086   47.7011   48.9377  C     
21   C        35.8411   48.3130   49.9839  C     
22   C        36.7465   47.5744   50.7726  C     
23   C        34.1047   48.4497   48.1086  C     
24   F        32.9189   47.7512   48.0819  F     
25   F        33.7804   49.6832   48.6309  F     
26   P        34.6058   48.7085   46.5362  P     
27   O        35.7747   49.5428   46.4276  O     
28   O        34.9490   47.4121   45.7788  O     
29   O        33.4960   49.3723   45.7016  O     
30   C        37.4319   44.8842   52.7978  C     
31   C        36.1313   43.9826   52.6136  C     
32   C        36.1894   42.8057   51.6830  C     
33   C        35.3290   42.7371   50.5572  C     
34   C        35.4019   41.6695   49.6475  C     
35   C        37.1138   40.6296   51.0011  C     
36   C        37.0447   41.7034   51.9132  C     
37   C        36.3010   40.5933   49.8426  C     
38   P        34.9248   38.6944   48.6176  P     
39   O        33.8189   39.6047   48.4512  O     
40   O        34.9785   37.8096   47.3565  O     
41   O        34.6165   37.7728   49.8165  O     
42   C        36.3795   39.4821   48.8364  C     
43   F        36.8057   39.9870   47.6280  F     
44   F        37.3047   38.5157   49.1705  F     
45   F        36.9596   49.4493   56.1745  F     
46   F        34.7008   48.1140   55.3949  F     
47   H        36.7833   44.2205   55.8074  H     
48   H        37.4197   43.1054   57.8692  H     
49   H        39.5018   41.8595   58.0014  H     
50   H        40.9584   41.7018   56.0386  H     
51   H        39.3381   46.5020   53.8762  H     
52   H        39.1559   48.4277   55.2798  H     
53   H        35.1181   46.1220   53.8915  H     
54   H        38.2312   44.5229   50.8011  H     
55   H        38.8189   45.9995   51.4791  H     
56   H        36.4473   44.6266   49.2158  H     
57   H        34.8402   45.8308   47.9575  H     
58   H        35.7285   49.3109   50.1798  H     
59   H        37.2625   48.0652   51.5072  H     
60   H        35.8060   43.6022   53.5819  H     
61   H        35.3233   44.6322   52.2745  H     
62   H        34.6532   43.4825   50.3750  H     
63   H        34.7846   41.6857   48.8306  H     
64   H        37.7599   39.8622   51.2066  H     
65   H        37.6282   41.6763   52.7521  H     
@<TRIPOS>BOND
     1    1    2 2
     2    1    5 1
     3    2    3 1
     4    3    4 2
     5    4    6 1
     6    5    6 2
     7    5    9 1
     8    6    7 1
     9    7    8 2
    10    8    9 1
    11    9   30 1
    12   10   11 1
    13   10   15 2
    14   30   10 1
    15   11   12 2
    16   12   13 1
    17   13   14 2
    18   13   45 1
    19   14   15 1
    20   14   46 1
    21   16   17 1
    22   16   30 1
    23   17   18 2
    24   17   22 1
    25   18   19 1
    26   19   20 2
    27   20   21 1
    28   20   23 1
    29   21   22 2
    30   23   24 1
    31   23   25 1
    32   23   26 1
    33   26   27 2
    34   26   28 1
    35   26   29 1
    36   30   31 1
    37   31   32 1
    38   32   33 1
    39   32   36 2
    40   33   34 2
    41   34   37 1
    42   35   36 1
    43   35   37 2
    44   37   42 1
    45   38   39 2
    46   38   40 1
    47   38   41 1
    48   38   42 1
    49   42   43 1
    50   42   44 1
    51    1   47 1
    52    2   48 1
    53    3   49 1
    54    4   50 1
    55   11   51 1
    56   12   52 1
    57   15   53 1
    58   16   54 1
    59   16   55 1
    60   18   56 1
    61   19   57 1
    62   21   58 1
    63   22   59 1
    64   31   60 1
    65   31   61 1
    66   33   62 1
    67   34   63 1
    68   35   64 1
    69   36   65 1
@<TRIPOS>PROPERTY_DATA
  Total_Score	| 15.2266
  Crash		| -1.6163
  Polar		| 8.5264
  FragIndex	| 1
  FragRMSD	| 0.501

