@<TRIPOS>MOLECULE
BindingDB_13595
 65 69 0 0 0
SMALL
NO_CHARGES


@<TRIPOS>ATOM
1    C        37.6496   43.7261   55.8418  C     
2    C        38.0272   43.1049   57.0532  C     
3    C        39.2342   42.3746   57.1348  C     
4    C        40.0713   42.2549   56.0077  C     
5    C        38.4870   43.5987   54.7132  C     
6    C        39.6685   42.8765   54.8141  C     
7    N        40.2598   42.9327   53.6216  N     
8    N        39.5128   43.6051   52.8639  N     
9    N        38.4389   44.0290   53.4303  N     
10   C        37.1921   46.0800   53.6414  C     
11   C        35.9061   46.5331   54.0565  C     
12   C        35.7466   47.6995   54.8257  C     
13   C        36.8710   48.4448   55.2183  C     
14   C        38.1540   48.0293   54.8286  C     
15   C        38.3046   46.8669   54.0522  C     
16   C        37.9363   45.3610   51.3484  C     
17   C        37.0041   46.1741   50.5118  C     
18   C        36.8100   47.5577   50.7359  C     
19   C        35.8895   48.2950   49.9675  C     
20   C        35.1343   47.6798   48.9348  C     
21   C        35.3674   46.3041   48.6856  C     
22   C        36.3157   45.5833   49.4262  C     
23   C        34.1237   48.4308   48.1252  C     
24   F        32.9373   47.7269   48.1058  F     
25   F        33.8064   49.6635   48.6566  F     
26   P        34.6126   48.6937   46.5527  P     
27   O        35.7762   49.5347   46.4546  O     
28   O        34.9618   47.4027   45.7936  O     
29   O        33.5110   49.3619   45.7178  O     
30   C        37.4227   44.8525   52.7654  C     
31   C        36.1385   43.9423   52.5570  C     
32   C        36.2160   42.7680   51.6307  C     
33   C        37.0466   41.6524   51.8975  C     
34   C        37.0758   40.5384   51.0367  C     
35   C        35.4371   41.6049   49.6050  C     
36   C        35.3783   42.6911   50.4880  C     
37   C        36.2740   40.4885   49.8667  C     
38   P        34.8413   38.5615   48.7019  P     
39   O        34.8727   37.7273   47.5265  O     
40   O        34.4359   37.6487   49.8812  O     
41   O        33.6882   39.5592   48.4761  O     
42   C        36.3119   39.3314   48.9114  C     
43   F        36.7513   39.7832   47.6844  F     
44   F        37.2161   38.3549   49.2839  F     
45   H        36.7806   44.2613   55.7943  H     
46   H        37.4282   43.1912   57.8769  H     
47   H        39.4983   41.9254   58.0148  H     
48   H        40.9519   41.7363   56.0531  H     
49   H        35.0550   46.0346   53.7905  H     
50   H        34.8072   48.0086   55.1008  H     
51   H        36.7539   49.2995   55.7709  H     
52   H        38.9750   48.5718   55.1073  H     
53   H        39.2531   46.5950   53.7860  H     
54   H        38.2425   44.4801   50.7799  H     
55   H        38.8526   45.9485   51.4763  H     
56   H        37.3473   48.0470   51.4552  H     
57   H        35.7787   49.2914   50.1700  H     
58   H        34.8524   45.8144   47.9501  H     
59   H        36.4916   44.6075   49.1764  H     
60   H        35.8044   43.5623   53.5239  H     
61   H        35.3321   44.5908   52.2051  H     
62   H        37.6174   41.6266   52.7418  H     
63   H        37.6916   39.7574   51.2766  H     
64   H        34.8477   41.6273   48.7711  H     
65   H        34.7064   43.4358   50.2914  H     
@<TRIPOS>BOND
     1    1    2 2
     2    1    5 1
     3    2    3 1
     4    3    4 2
     5    4    6 1
     6    5    6 2
     7    5    9 1
     8    6    7 1
     9    7    8 2
    10    8    9 1
    11    9   30 1
    12   10   11 1
    13   10   15 2
    14   30   10 1
    15   11   12 2
    16   12   13 1
    17   13   14 2
    18   14   15 1
    19   16   17 1
    20   16   30 1
    21   17   18 2
    22   17   22 1
    23   18   19 1
    24   19   20 2
    25   20   21 1
    26   20   23 1
    27   21   22 2
    28   23   24 1
    29   23   25 1
    30   23   26 1
    31   26   27 2
    32   26   28 1
    33   26   29 1
    34   30   31 1
    35   31   32 1
    36   32   33 1
    37   32   36 2
    38   33   34 2
    39   34   37 1
    40   35   36 1
    41   35   37 2
    42   37   42 1
    43   38   39 2
    44   38   40 1
    45   38   41 1
    46   38   42 1
    47   42   43 1
    48   42   44 1
    49    1   45 1
    50    2   46 1
    51    3   47 1
    52    4   48 1
    53   11   49 1
    54   12   50 1
    55   13   51 1
    56   14   52 1
    57   15   53 1
    58   16   54 1
    59   16   55 1
    60   18   56 1
    61   19   57 1
    62   21   58 1
    63   22   59 1
    64   31   60 1
    65   31   61 1
    66   33   62 1
    67   34   63 1
    68   35   64 1
    69   36   65 1
@<TRIPOS>PROPERTY_DATA
  Total_Score	| 15.1423
  Crash		| -1.8064
  Polar		| 8.7911
  FragIndex	| 1
  FragRMSD	| 0.342

