@<TRIPOS>MOLECULE
BindingDB_50142328
 71 75 0 0 0
SMALL
NO_CHARGES


@<TRIPOS>ATOM
1    N        38.4373   44.0678   53.4447  N     
2    N        39.5264   43.6944   52.8719  N     
3    C        37.3847   44.8562   52.7911  C     
4    P        34.8275   38.6820   48.5979  P     
5    P        34.6313   48.6915   46.5232  P     
6    C        34.1134   48.4453   48.0912  C     
7    C        36.2829   39.4803   48.7715  C     
8    N        40.2987   43.0363   53.6219  N     
9    C        38.4991   43.6136   54.7184  C     
10   C        39.7138   42.9487   54.8156  C     
11   C        36.6154   49.6883   55.9858  C     
12   C        37.1472   46.0937   53.6558  C     
13   C        35.0991   47.6858   48.9219  C     
14   C        36.2366   40.5773   49.7909  C     
15   C        37.8598   45.3393   51.3524  C     
16   C        36.1201   43.9114   52.6199  C     
17   O        33.7132   39.5942   48.5308  O     
18   O        35.7970   49.5278   46.4261  O     
19   C        36.8005   48.5015   55.2335  C     
20   F        36.6591   39.9913   47.5489  F     
21   F        32.9170   47.7688   48.0604  F     
22   F        37.2292   38.5231   49.0608  F     
23   F        33.8118   49.6800   48.6184  F     
24   O        35.3929   49.9989   56.4989  O     
25   O        34.8173   37.8333   47.3099  O     
26   O        34.9840   47.3977   45.7664  O     
27   O        33.5386   49.3639   45.6747  O     
28   O        34.5947   37.7180   49.7808  O     
29   C        38.2474   46.9106   54.0432  C     
30   C        35.8703   46.5129   54.1283  C     
31   C        35.6980   47.6793   54.8921  C     
32   C        38.0827   48.0861   54.7972  C     
33   C        35.2941   46.3023   48.6972  C     
34   C        37.0681   40.5912   50.9398  C     
35   C        35.8450   48.2900   49.9661  C     
36   C        35.3498   41.6670   49.6238  C     
37   C        36.1714   42.7604   51.6642  C     
38   C        36.9164   46.1527   50.5269  C     
39   O        37.6471   50.5570   56.1987  O     
40   C        37.0191   41.6517   51.8669  C     
41   C        36.7373   47.5369   50.7542  C     
42   C        36.2144   45.5621   49.4532  C     
43   C        35.3037   42.7227   50.5502  C     
44   C        37.6531   43.6972   55.8436  C     
45   C        40.1461   42.3508   56.0094  C     
46   C        37.5717   51.7815   56.9309  C     
47   C        38.0695   43.1138   57.0577  C     
48   C        39.3104   42.4419   57.1398  C     
49   H        38.7847   45.9131   51.4334  H     
50   H        38.1378   44.4485   50.7842  H     
51   H        35.8406   43.5043   53.5968  H     
52   H        35.2887   44.5484   52.3089  H     
53   H        39.1985   46.6495   53.7697  H     
54   H        35.0265   45.9802   53.9259  H     
55   H        34.7502   47.9246   55.1906  H     
56   H        38.9107   48.6346   55.0404  H     
57   H        34.7765   45.8177   47.9615  H     
58   H        37.7039   39.8155   51.1263  H     
59   H        35.7582   49.2898   50.1583  H     
60   H        34.7213   41.6953   48.8225  H     
61   H        37.6057   41.6019   52.7014  H     
62   H        37.2755   48.0170   51.4813  H     
63   H        36.3595   44.5784   49.2168  H     
64   H        34.6374   43.4817   50.3884  H     
65   H        36.7604   44.1884   55.7926  H     
66   H        41.0484   41.8737   56.0551  H     
67   H        36.8217   52.4414   56.4885  H     
68   H        38.5412   52.2785   56.8995  H     
69   H        37.3106   51.5854   57.9739  H     
70   H        37.4720   43.1787   57.8833  H     
71   H        39.6064   42.0292   58.0248  H     
@<TRIPOS>BOND
     1    1    2 1
     2    1    3 1
     3    1    9 1
     4    2    8 2
     5    3   12 1
     6    3   15 1
     7    3   16 1
     8    4    7 1
     9    4   17 2
    10    4   25 1
    11    4   28 1
    12    5    6 1
    13    5   18 2
    14    5   26 1
    15    5   27 1
    16    6   13 1
    17    6   21 1
    18    6   23 1
    19    7   14 1
    20    7   20 1
    21    7   22 1
    22    8   10 1
    23    9   10 2
    24    9   44 1
    25   10   45 1
    26   11   19 1
    27   11   24 2
    28   11   39 1
    29   12   29 2
    30   12   30 1
    31   13   33 2
    32   13   35 1
    33   14   34 1
    34   14   36 2
    35   15   38 1
    36   16   37 1
    37   19   31 1
    38   19   32 2
    39   29   32 1
    40   30   31 2
    41   33   42 1
    42   34   40 2
    43   35   41 2
    44   36   43 1
    45   37   40 1
    46   37   43 2
    47   38   41 1
    48   38   42 2
    49   39   46 1
    50   44   47 2
    51   45   48 2
    52   47   48 1
    53   15   49 1
    54   15   50 1
    55   16   51 1
    56   16   52 1
    57   29   53 1
    58   30   54 1
    59   31   55 1
    60   32   56 1
    61   33   57 1
    62   34   58 1
    63   35   59 1
    64   36   60 1
    65   40   61 1
    66   41   62 1
    67   42   63 1
    68   43   64 1
    69   44   65 1
    70   45   66 1
    71   46   67 1
    72   46   68 1
    73   46   69 1
    74   47   70 1
    75   48   71 1
@<TRIPOS>PROPERTY_DATA
  Total_Score	| 15.4806
  Crash		| -1.7958
  Polar		| 8.6972
  FragIndex	| 1
  FragRMSD	| 0.392

