@<TRIPOS>MOLECULE
BindingDB_13598
 69 74 0 0 0
SMALL
NO_CHARGES


@<TRIPOS>ATOM
1    C        37.1838   48.6092   55.2803  C     
2    C        36.0056   48.0314   54.7747  C     
3    C        36.0711   46.8684   53.9865  C     
4    C        37.3075   46.2467   53.6605  C     
5    C        38.4797   46.8541   54.2029  C     
6    C        38.4240   48.0180   54.9908  C     
7    C        36.1017   44.1708   52.6113  C     
8    C        36.1420   42.9412   51.7530  C     
9    C        36.9301   41.8166   52.1110  C     
10   C        36.9159   40.6471   51.3392  C     
11   C        36.1077   40.5107   50.1705  C     
12   C        35.3096   41.6448   49.8344  C     
13   C        35.3000   42.7986   50.6230  C     
14   C        36.0602   39.2843   49.4044  C     
15   C        35.0536   39.0540   48.4134  C     
16   C        34.9888   37.8523   47.6914  C     
17   C        35.9104   36.8184   47.9478  C     
18   C        36.8995   37.0039   48.9290  C     
19   C        36.9882   38.2191   49.6223  C     
20   C        37.4387   45.0092   52.7766  C     
21   C        37.9280   45.4939   51.3445  C     
22   C        36.9820   46.2871   50.5046  C     
23   C        36.2510   45.6575   49.4752  C     
24   C        35.2976   46.3516   48.7174  C     
25   C        35.0930   47.7440   48.8973  C     
26   C        35.8760   48.3911   49.8841  C     
27   C        36.8116   47.6823   50.6626  C     
28   C        34.0586   48.4535   48.0750  C     
29   F        32.9023   47.7068   48.0629  F     
30   F        33.7075   49.6825   48.5940  F     
31   P        34.5415   48.7138   46.4967  P     
32   O        33.5189   49.3519   45.7106  O     
33   O        35.7842   49.6066   46.3965  O     
34   O        34.9102   47.4344   45.7261  O     
35   N        38.4277   44.1229   53.4004  N     
36   N        39.4920   43.6955   52.8271  N     
37   N        40.2158   42.9634   53.5549  N     
38   C        39.6083   42.8630   54.7371  C     
39   C        38.4403   43.6082   54.6546  C     
40   C        37.9410   43.0353   56.9656  C     
41   C        37.5802   43.6955   55.7697  C     
42   C        39.9804   42.1868   55.9111  C     
43   C        39.1359   42.2878   57.0369  C     
44   H        37.1338   49.4582   55.8472  H     
45   H        35.1007   48.4615   54.9799  H     
46   H        35.1867   46.4883   53.6519  H     
47   H        39.4006   46.4446   54.0293  H     
48   H        39.2838   48.4365   55.3572  H     
49   H        35.3487   44.8542   52.2067  H     
50   H        35.7355   43.8707   53.5940  H     
51   H        37.4944   41.8257   52.9688  H     
52   H        37.4878   39.8717   51.6852  H     
53   H        34.7121   41.6611   49.0050  H     
54   H        34.6635   43.5551   50.3499  H     
55   H        34.3242   39.7444   48.2109  H     
56   H        34.2602   37.7191   46.9859  H     
57   H        35.8565   35.9398   47.4265  H     
58   H        37.5783   36.2594   49.1184  H     
59   H        37.7635   38.3066   50.2850  H     
60   H        38.8429   46.0858   51.4349  H     
61   H        38.2223   44.6009   50.7845  H     
62   H        36.3936   44.6696   49.2683  H     
63   H        34.7624   45.8315   48.0205  H     
64   H        35.7786   49.3957   50.0511  H     
65   H        37.3732   48.1988   51.3405  H     
66   H        37.3289   43.0973   57.7839  H     
67   H        36.7166   44.2351   55.7298  H     
68   H        40.8483   41.6496   55.9492  H     
69   H        39.3981   41.8275   57.9117  H     
@<TRIPOS>BOND
     1    1    2 2
     2    1    6 1
     3    2    3 1
     4    3    4 2
     5    4    5 1
     6    4   20 1
     7    5    6 2
     8    7    8 1
     9    7   20 1
    10    8    9 1
    11    8   13 2
    12    9   10 2
    13   10   11 1
    14   11   12 2
    15   11   14 1
    16   12   13 1
    17   14   15 2
    18   14   19 1
    19   15   16 1
    20   16   17 2
    21   17   18 1
    22   18   19 2
    23   20   21 1
    24   20   35 1
    25   21   22 1
    26   22   23 1
    27   22   27 2
    28   23   24 2
    29   24   25 1
    30   25   26 2
    31   25   28 1
    32   26   27 1
    33   28   29 1
    34   28   30 1
    35   28   31 1
    36   31   32 2
    37   31   33 1
    38   31   34 1
    39   35   36 1
    40   35   39 1
    41   36   37 2
    42   37   38 1
    43   38   39 2
    44   38   42 1
    45   39   41 1
    46   40   41 2
    47   40   43 1
    48   42   43 2
    49    1   44 1
    50    2   45 1
    51    3   46 1
    52    5   47 1
    53    6   48 1
    54    7   49 1
    55    7   50 1
    56    9   51 1
    57   10   52 1
    58   12   53 1
    59   13   54 1
    60   15   55 1
    61   16   56 1
    62   17   57 1
    63   18   58 1
    64   19   59 1
    65   21   60 1
    66   21   61 1
    67   23   62 1
    68   24   63 1
    69   26   64 1
    70   27   65 1
    71   40   66 1
    72   41   67 1
    73   42   68 1
    74   43   69 1
@<TRIPOS>PROPERTY_DATA
  Total_Score	| 15.0733
  Crash		| -1.2780
  Polar		| 7.4094
  FragIndex	| 1
  FragRMSD	| 0.765

