@<TRIPOS>MOLECULE
BindingDB_50142323
 65 69 0 0 0
SMALL
NO_CHARGES


@<TRIPOS>ATOM
1    N        38.5016   44.0641   53.4459  N     
2    N        39.5453   43.6380   52.8327  N     
3    C        34.3432   48.8628   48.2662  C     
4    C        37.4762   44.9423   52.8616  C     
5    P        34.6827   48.8023   46.6278  P     
6    C        35.2926   48.0502   49.1066  C     
7    P        34.9434   38.7164   48.5408  P     
8    C        36.3800   39.5322   48.7721  C     
9    N        40.3134   42.9397   53.5558  N     
10   C        38.5835   43.5938   54.7108  C     
11   C        35.2545   46.6295   49.1119  C     
12   C        39.7696   42.8723   54.7703  C     
13   C        36.2593   48.6609   49.9459  C     
14   C        36.3087   40.6176   49.8090  C     
15   C        38.0200   45.6310   51.5399  C     
16   C        36.2106   44.0111   52.5976  C     
17   O        35.8758   49.5477   46.3181  O     
18   O        33.8188   39.6111   48.4282  O     
19   C        37.2002   46.0898   53.8412  C     
20   C        36.1789   45.8829   49.8578  C     
21   F        33.0477   48.4562   48.4855  F     
22   F        34.3208   50.1952   48.6142  F     
23   C        37.0878   46.4898   50.7401  C     
24   F        36.7713   40.0682   47.5637  F     
25   F        37.3255   38.5785   49.0748  F     
26   O        34.9135   47.4112   46.0083  O     
27   O        33.5651   49.4321   45.7732  O     
28   O        34.9862   37.8896   47.2381  O     
29   O        34.6827   37.7482   49.7124  O     
30   C        37.1739   40.6655   50.9330  C     
31   C        35.3848   41.6785   49.6664  C     
32   Br       33.9396   45.6266   48.2580  Br    
33   C        37.1226   47.9017   50.7645  C     
34   C        36.2605   42.8327   51.6625  C     
35   C        37.1383   41.7390   51.8470  C     
36   C        35.3363   42.7296   50.5937  C     
37   C        37.7908   43.7356   55.8679  C     
38   C        40.2089   42.2598   55.9571  C     
39   C        35.9169   46.6826   54.0185  C     
40   C        38.2595   46.6558   54.6054  C     
41   C        38.2134   43.1350   57.0724  C     
42   C        39.4169   42.4011   57.1163  C     
43   C        38.0403   47.6697   55.5584  C     
44   C        35.6965   47.7235   54.9441  C     
45   C        36.7559   48.2065   55.7281  C     
46   H        36.3376   49.6764   49.9773  H     
47   H        38.8854   46.2439   51.8057  H     
48   H        38.4200   44.8605   50.8734  H     
49   H        35.8553   43.6178   53.5510  H     
50   H        35.4103   44.6510   52.2407  H     
51   H        36.1810   44.8759   49.7516  H     
52   H        37.8341   39.9044   51.1066  H     
53   H        34.7281   41.7007   48.8810  H     
54   H        37.7855   48.3924   51.3724  H     
55   H        37.7524   41.7032   52.6579  H     
56   H        34.6204   43.4478   50.4626  H     
57   H        36.9310   44.2795   55.8494  H     
58   H        41.0919   41.7432   55.9836  H     
59   H        35.1054   46.3889   53.4769  H     
60   H        39.2147   46.3063   54.4939  H     
61   H        37.6526   43.2475   57.9197  H     
62   H        39.7185   41.9768   57.9968  H     
63   H        38.8196   48.0193   56.1219  H     
64   H        34.7607   48.1251   55.0579  H     
65   H        36.5956   48.9533   56.4152  H     
@<TRIPOS>BOND
     1    1    2 1
     2    1    4 1
     3    1   10 1
     4    2    9 2
     5    3    5 1
     6    3    6 1
     7    3   21 1
     8    3   22 1
     9    4   15 1
    10    4   16 1
    11    4   19 1
    12    5   17 2
    13    5   26 1
    14    5   27 1
    15    6   11 1
    16    6   13 2
    17    7    8 1
    18    7   18 2
    19    7   28 1
    20    7   29 1
    21    8   14 1
    22    8   24 1
    23    8   25 1
    24    9   12 1
    25   10   12 2
    26   10   37 1
    27   11   20 2
    28   11   32 1
    29   12   38 1
    30   13   33 1
    31   14   30 2
    32   14   31 1
    33   15   23 1
    34   16   34 1
    35   19   39 1
    36   19   40 2
    37   20   23 1
    38   23   33 2
    39   30   35 1
    40   31   36 2
    41   34   35 2
    42   34   36 1
    43   37   41 2
    44   38   42 2
    45   39   44 2
    46   40   43 1
    47   41   42 1
    48   43   45 2
    49   44   45 1
    50   13   46 1
    51   15   47 1
    52   15   48 1
    53   16   49 1
    54   16   50 1
    55   20   51 1
    56   30   52 1
    57   31   53 1
    58   33   54 1
    59   35   55 1
    60   36   56 1
    61   37   57 1
    62   38   58 1
    63   39   59 1
    64   40   60 1
    65   41   61 1
    66   42   62 1
    67   43   63 1
    68   44   64 1
    69   45   65 1
@<TRIPOS>PROPERTY_DATA
  Total_Score	| 10.4062
  Crash		| -6.5271
  Polar		| 8.1972
  FragIndex	| 1
  FragRMSD	| 0.634

