@<TRIPOS>MOLECULE
BindingDB_50142335
 69 73 0 0 0
SMALL
NO_CHARGES


@<TRIPOS>ATOM
1    N        35.8393   44.9617   53.0514  N     
2    N        35.1307   44.5459   52.0713  N     
3    P        34.7627   36.9325   49.0941  P     
4    P        34.5968   48.6904   46.4788  P     
5    C        34.0744   48.4372   48.0368  C     
6    C        35.2443   38.4326   48.5490  C     
7    N        33.9335   44.2823   52.3779  N     
8    C        37.2595   45.3315   52.9736  C     
9    C        35.0276   44.9586   54.1392  C     
10   C        33.7914   44.5211   53.6802  C     
11   C        35.6909   39.3427   49.6576  C     
12   C        35.1046   47.7416   48.8680  C     
13   O        33.5643   36.9973   49.8926  O     
14   O        35.7602   49.5340   46.4386  O     
15   C        37.8047   45.5647   51.4942  C     
16   C        37.4961   46.6408   53.7295  C     
17   C        37.9453   42.8307   52.8377  C     
18   F        32.9132   47.6979   48.0004  F     
19   F        34.2126   39.0173   47.8513  F     
20   F        33.7031   49.6571   48.5540  F     
21   F        36.2209   38.2114   47.5983  F     
22   C        36.8275   42.0815   52.7565  C     
23   O        34.4688   35.9869   47.9118  O     
24   O        35.8686   36.2772   49.9462  O     
25   O        34.9822   47.3990   45.7356  O     
26   O        33.5097   49.3800   45.6386  O     
27   C        35.3183   46.3524   48.7148  C     
28   C        37.0412   39.7349   49.8063  C     
29   C        35.8937   48.4264   49.8221  C     
30   C        34.7554   39.8690   50.5843  C     
31   C        38.0443   44.0869   53.5896  C     
32   C        36.9420   46.3343   50.5505  C     
33   C        36.5067   41.1438   51.7611  C     
34   C        36.2297   45.6665   49.5292  C     
35   C        36.8045   47.7348   50.6405  C     
36   C        35.1561   40.7342   51.6201  C     
37   C        37.4371   40.6215   50.8256  C     
38   C        35.1866   45.3004   55.4990  C     
39   C        32.6798   44.3924   54.5310  C     
40   C        36.4780   47.6304   53.8686  C     
41   C        38.7816   46.9999   54.2230  C     
42   C        34.0862   45.1804   56.3733  C     
43   C        32.8381   44.7287   55.8896  C     
44   C        39.0197   48.2288   54.8663  C     
45   C        36.7047   48.8583   54.5151  C     
46   C        37.9780   49.1555   55.0218  C     
47   H        38.7810   46.0547   51.5312  H     
48   H        38.0054   44.6022   51.0237  H     
49   H        38.7138   42.6132   52.2450  H     
50   H        36.1135   42.2963   53.4161  H     
51   H        34.7896   45.8193   48.0202  H     
52   H        37.7571   39.3860   49.1646  H     
53   H        35.8114   49.4386   49.9345  H     
54   H        33.7639   39.6288   50.5093  H     
55   H        39.1100   44.3106   53.6405  H     
56   H        37.7382   43.9046   54.6207  H     
57   H        36.3259   44.6572   49.4042  H     
58   H        37.3555   48.2644   51.3162  H     
59   H        34.4320   41.0918   52.2510  H     
60   H        38.4223   40.8761   50.8631  H     
61   H        36.0814   45.6355   55.8547  H     
62   H        31.7792   44.0652   54.1724  H     
63   H        35.5484   47.4831   53.4720  H     
64   H        39.5821   46.3831   54.0992  H     
65   H        34.1911   45.4196   57.3606  H     
66   H        32.0450   44.6448   56.5298  H     
67   H        39.9578   48.4538   55.2079  H     
68   H        35.9514   49.5462   54.5899  H     
69   H        38.1499   50.0549   55.4773  H     
@<TRIPOS>BOND
     1    1    2 1
     2    1    8 1
     3    1    9 1
     4    2    7 2
     5    3    6 1
     6    3   13 2
     7    3   23 1
     8    3   24 1
     9    4    5 1
    10    4   14 2
    11    4   25 1
    12    4   26 1
    13    5   12 1
    14    5   18 1
    15    5   20 1
    16    6   11 1
    17    6   19 1
    18    6   21 1
    19    7   10 1
    20    8   15 1
    21    8   16 1
    22    8   31 1
    23    9   10 2
    24    9   38 1
    25   10   39 1
    26   11   28 2
    27   11   30 1
    28   12   27 1
    29   12   29 2
    30   15   32 1
    31   16   40 2
    32   16   41 1
    33   17   22 2
    34   17   31 1
    35   22   33 1
    36   27   34 2
    37   28   37 1
    38   29   35 1
    39   30   36 2
    40   32   34 1
    41   32   35 2
    42   33   36 1
    43   33   37 2
    44   38   42 2
    45   39   43 2
    46   40   45 1
    47   41   44 2
    48   42   43 1
    49   44   46 1
    50   45   46 2
    51   15   47 1
    52   15   48 1
    53   17   49 1
    54   22   50 1
    55   27   51 1
    56   28   52 1
    57   29   53 1
    58   30   54 1
    59   31   55 1
    60   31   56 1
    61   34   57 1
    62   35   58 1
    63   36   59 1
    64   37   60 1
    65   38   61 1
    66   39   62 1
    67   40   63 1
    68   41   64 1
    69   42   65 1
    70   43   66 1
    71   44   67 1
    72   45   68 1
    73   46   69 1
@<TRIPOS>PROPERTY_DATA
  Total_Score	| 12.8120
  Crash		| -1.2327
  Polar		| 7.9114
  FragIndex	| 1
  FragRMSD	| 0.556

