@<TRIPOS>MOLECULE
BindingDB_50142334
 73 78 0 0 0
SMALL
NO_CHARGES


@<TRIPOS>ATOM
1    N        38.4982   43.9650   53.4092  N     
2    N        39.6815   43.7522   52.9611  N     
3    C        37.4327   44.5936   52.6225  C     
4    P        34.5848   48.6219   46.5791  P     
5    C        34.1035   48.3388   48.1484  C     
6    N        40.4407   43.1282   53.7572  N     
7    C        38.4506   43.3797   54.6305  C     
8    C        39.7328   42.8842   54.8580  C     
9    C        35.1424   47.6136   48.9477  C     
10   C        36.5906   45.5978   53.5085  C     
11   C        38.0241   45.4282   51.4036  C     
12   O        33.5623   49.2817   45.8101  O     
13   C        36.6190   43.4204   52.0951  C     
14   F        32.9222   47.6308   48.1182  F     
15   F        33.7768   49.5524   48.7124  F     
16   O        35.8094   49.5462   46.5003  O     
17   O        34.9707   47.3396   45.8200  O     
18   C        35.9523   48.2806   49.9029  C     
19   C        35.3541   46.2224   48.7776  C     
20   O        38.3921   50.7183   55.3904  O     
21   C        37.0580   46.1801   50.5473  C     
22   C        37.1374   46.9139   53.9607  C     
23   C        38.0778   49.4519   54.9378  C     
24   C        36.2863   45.5210   49.5639  C     
25   C        36.8950   47.5808   50.6780  C     
26   C        39.7043   51.0827   55.8580  C     
27   C        37.4580   43.1983   55.6137  C     
28   C        36.2566   48.0060   54.1492  C     
29   C        38.4952   47.1067   54.3094  C     
30   C        38.9573   48.3574   54.7792  C     
31   C        36.7166   49.2429   54.6290  C     
32   C        40.7544   50.9419   54.8209  C     
33   C        40.0983   42.2521   56.0595  C     
34   C        37.2895   42.2941   51.5474  C     
35   C        35.1930   43.3564   52.1079  C     
36   C        40.7035   51.7461   53.6583  C     
37   C        41.8111   50.0142   54.9639  C     
38   C        37.8066   42.5916   56.8453  C     
39   C        39.1220   42.1263   57.0663  C     
40   C        34.4975   42.2694   51.5453  C     
41   C        36.6016   41.2036   50.9872  C     
42   C        42.7925   49.8862   53.9651  C     
43   C        41.6791   51.6138   52.6568  C     
44   C        42.7252   50.6840   52.8098  C     
45   C        35.1980   41.1930   50.9734  C     
46   H        35.6733   45.8002   52.9331  H     
47   H        36.2782   45.0888   54.4303  H     
48   H        38.7511   46.1331   51.8066  H     
49   H        38.6104   44.7899   50.7429  H     
50   H        35.8565   49.2898   50.0449  H     
51   H        34.8165   45.7031   48.0793  H     
52   H        36.3953   44.5175   49.4081  H     
53   H        37.4547   48.1059   51.3542  H     
54   H        39.6621   52.1357   56.1466  H     
55   H        39.9333   50.5164   56.7626  H     
56   H        36.4973   43.5026   55.4527  H     
57   H        35.2605   47.9020   53.9498  H     
58   H        39.1795   46.3554   54.2259  H     
59   H        39.9516   48.4475   55.0024  H     
60   H        36.0366   50.0003   54.7576  H     
61   H        41.0516   41.9061   56.1931  H     
62   H        38.3081   42.2528   51.5568  H     
63   H        34.6383   44.1079   52.5312  H     
64   H        39.9530   52.4265   53.5293  H     
65   H        41.8707   49.4199   55.7931  H     
66   H        37.1022   42.4812   57.5828  H     
67   H        39.3673   41.7014   57.9602  H     
68   H        33.4733   42.2502   51.5591  H     
69   H        37.1252   40.4086   50.6011  H     
70   H        43.5560   49.2146   54.0783  H     
71   H        41.6295   52.1997   51.8224  H     
72   H        43.4413   50.5963   52.0855  H     
73   H        34.6927   40.3971   50.5757  H     
@<TRIPOS>BOND
     1    1    2 1
     2    1    3 1
     3    1    7 1
     4    2    6 2
     5    3   10 1
     6    3   11 1
     7    3   13 1
     8    4    5 1
     9    4   12 2
    10    4   16 1
    11    4   17 1
    12    5    9 1
    13    5   14 1
    14    5   15 1
    15    6    8 1
    16    7    8 2
    17    7   27 1
    18    8   33 1
    19    9   18 1
    20    9   19 2
    21   10   22 1
    22   11   21 1
    23   13   34 2
    24   13   35 1
    25   18   25 2
    26   19   24 1
    27   20   23 1
    28   20   26 1
    29   21   24 2
    30   21   25 1
    31   22   28 1
    32   22   29 2
    33   23   30 2
    34   23   31 1
    35   26   32 1
    36   27   38 2
    37   28   31 2
    38   29   30 1
    39   32   36 2
    40   32   37 1
    41   33   39 2
    42   34   41 1
    43   35   40 2
    44   36   43 1
    45   37   42 2
    46   38   39 1
    47   40   45 1
    48   41   45 2
    49   42   44 1
    50   43   44 2
    51   10   46 1
    52   10   47 1
    53   11   48 1
    54   11   49 1
    55   18   50 1
    56   19   51 1
    57   24   52 1
    58   25   53 1
    59   26   54 1
    60   26   55 1
    61   27   56 1
    62   28   57 1
    63   29   58 1
    64   30   59 1
    65   31   60 1
    66   33   61 1
    67   34   62 1
    68   35   63 1
    69   36   64 1
    70   37   65 1
    71   38   66 1
    72   39   67 1
    73   40   68 1
    74   41   69 1
    75   42   70 1
    76   43   71 1
    77   44   72 1
    78   45   73 1
@<TRIPOS>PROPERTY_DATA
  Total_Score	| 14.0159
  Crash		| -2.2263
  Polar		| 7.2306
  FragIndex	| 1
  FragRMSD	| 0.970

