@<TRIPOS>MOLECULE
BindingDB_10073
 30 32 0 0 0
SMALL
NO_CHARGES


@<TRIPOS>ATOM
1    C       -81.2132  -98.2389   27.6830  C     
2    C       -82.4472  -98.8608   27.3980  C     
3    C       -82.6791 -100.1967   27.7869  C     
4    C       -81.6838 -100.9197   28.4735  C     
5    C       -80.2188  -98.9608   28.3792  C     
6    C       -78.9175  -98.6769   28.7517  C     
7    C       -80.4702 -100.2766   28.7668  C     
8    C       -78.4832  -99.7721   29.4289  C     
9    N       -79.3927 -100.7207   29.4159  N     
10   O       -77.5062  -99.8510   30.1608  O     
11   C       -78.2459  -97.5582   28.4016  C     
12   C       -76.8654  -97.3756   28.3722  C     
13   C       -74.8180  -96.4807   28.1047  C     
14   C       -76.1781  -96.1850   28.0914  C     
15   C       -74.6994  -97.8377   28.3560  C     
16   N       -75.9303  -98.3435   28.4924  N     
17   O       -76.6611  -94.9277   27.8612  O     
18   C       -76.8505  -94.5715   26.4720  C     
19   H       -81.0496  -97.2796   27.3809  H     
20   H       -83.1758  -98.3467   26.8975  H     
21   H       -83.5725 -100.6456   27.5708  H     
22   H       -81.8353 -101.8936   28.7429  H     
23   H       -79.3334 -101.5602   29.9017  H     
24   H       -78.7874  -96.7988   28.0625  H     
25   H       -74.0501  -95.8360   27.9265  H     
26   H       -73.8300  -98.3700   28.4105  H     
27   H       -76.1163  -99.2859   28.6252  H     
28   H       -76.4575  -95.3068   25.7639  H     
29   H       -76.3417  -93.6256   26.2879  H     
30   H       -77.9190  -94.4450   26.2862  H     
@<TRIPOS>BOND
     1    1    2 1
     2    1    5 2
     3    2    3 2
     4    3    4 1
     5    4    7 2
     6    5    6 1
     7    5    7 1
     8    6    8 1
     9    6   11 2
    10    7    9 1
    11    8    9 1
    12    8   10 2
    13   11   12 1
    14   12   14 2
    15   12   16 1
    16   13   14 1
    17   13   15 2
    18   14   17 1
    19   15   16 1
    20   17   18 1
    21    1   19 1
    22    2   20 1
    23    3   21 1
    24    4   22 1
    25    9   23 1
    26   11   24 1
    27   13   25 1
    28   15   26 1
    29   16   27 1
    30   18   28 1
    31   18   29 1
    32   18   30 1
@<TRIPOS>PROPERTY_DATA
  Total_Score	| 7.6482
  Crash		| -0.7308
  Polar		| 2.2413
  FragIndex	| 1
  FragRMSD	| 0.386

