@<TRIPOS>MOLECULE
BindingDB_10075
 34 36 0 0 0
SMALL
NO_CHARGES


@<TRIPOS>ATOM
1    C       -81.2128  -98.1835   27.8034  C     
2    C       -82.4455  -98.8146   27.5076  C     
3    C       -82.6352 -100.1773   27.8334  C     
4    C       -81.6103 -100.9083   28.4637  C     
5    C       -80.1878  -98.9154   28.4431  C     
6    C       -78.8897  -98.6183   28.8238  C     
7    C       -80.4112 -100.2508   28.7800  C     
8    C       -78.4550  -99.7155   29.5022  C     
9    N       -79.3374 -100.6883   29.4361  N     
10   O       -77.5364  -99.7813   30.3032  O     
11   C       -78.2175  -97.5263   28.3994  C     
12   C       -76.8478  -97.2635   28.4219  C     
13   C       -74.8090  -96.5461   27.7673  C     
14   C       -76.1585  -96.5477   27.4311  C     
15   C       -74.6877  -97.2633   28.9439  C     
16   N       -75.9091  -97.6927   29.2925  N     
17   O       -76.6605  -96.0961   26.2419  O     
18   C       -77.1221  -94.7411   26.3138  C     
19   O       -83.4923  -98.1043   26.9849  O     
20   C       -83.3991  -97.8762   25.5669  C     
21   H       -81.0793  -97.1993   27.5677  H     
22   H       -83.5242 -100.6366   27.6219  H     
23   H       -81.7355 -101.8959   28.6900  H     
24   H       -79.2824 -101.5283   29.9206  H     
25   H       -78.7626  -96.8329   27.9430  H     
26   H       -74.0475  -96.1357   27.2253  H     
27   H       -73.8208  -97.4780   29.4395  H     
28   H       -76.0646  -98.2672   30.0523  H     
29   H       -77.9859  -94.6935   26.9945  H     
30   H       -77.4518  -94.4246   25.3204  H     
31   H       -76.3397  -94.0507   26.6563  H     
32   H       -82.5453  -97.2348   25.3312  H     
33   H       -84.3089  -97.3692   25.2389  H     
34   H       -83.3106  -98.8130   25.0147  H     
@<TRIPOS>BOND
     1    1    2 1
     2    1    5 2
     3    2    3 2
     4    2   19 1
     5    3    4 1
     6    4    7 2
     7    5    6 1
     8    5    7 1
     9    6    8 1
    10    6   11 2
    11    7    9 1
    12    8    9 1
    13    8   10 2
    14   11   12 1
    15   12   14 2
    16   12   16 1
    17   13   14 1
    18   13   15 2
    19   14   17 1
    20   15   16 1
    21   17   18 1
    22   19   20 1
    23    1   21 1
    24    3   22 1
    25    4   23 1
    26    9   24 1
    27   11   25 1
    28   13   26 1
    29   15   27 1
    30   16   28 1
    31   18   29 1
    32   18   30 1
    33   18   31 1
    34   20   32 1
    35   20   33 1
    36   20   34 1
@<TRIPOS>PROPERTY_DATA
  Total_Score	| 9.1775
  Crash		| -0.5806
  Polar		| 2.2200
  FragIndex	| 1
  FragRMSD	| 0.520

