@<TRIPOS>MOLECULE
BindingDB_10094
 30 32 0 0 0
SMALL
NO_CHARGES


@<TRIPOS>ATOM
1    C       -80.9680  -98.5398   27.0974  C     
2    C       -82.2207  -99.1731   26.8791  C     
3    C       -82.5771 -100.3355   27.5908  C     
4    C       -81.6710 -100.8914   28.5078  C     
5    F       -83.0544  -98.7244   25.9896  F     
6    C       -80.0953  -99.0633   28.0907  C     
7    C       -78.8127  -98.7601   28.5339  C     
8    C       -80.4551 -100.2361   28.7579  C     
9    C       -78.4689  -99.7170   29.4361  C     
10   N       -79.4437 -100.5950   29.5577  N     
11   O       -77.4741  -99.7649   30.1398  O     
12   C       -78.0821  -97.6702   28.2275  C     
13   C       -76.7040  -97.4639   28.3318  C     
14   C       -74.6046  -96.6152   28.3495  C     
15   C       -75.9489  -96.2761   28.1848  C     
16   C       -74.5595  -97.9826   28.5627  C     
17   N       -75.8161  -98.4610   28.5057  N     
18   O       -76.3138  -94.9598   27.9745  O     
19   C       -76.8730  -94.6612   26.7099  C     
20   I       -80.4230  -97.0279   25.8161  I     
21   H       -83.4649 -100.8010   27.4087  H     
22   H       -81.8841 -101.7791   28.9611  H     
23   H       -79.4272 -101.3184   30.1977  H     
24   H       -78.6207  -96.9130   27.9223  H     
25   H       -73.8069  -95.9752   28.3337  H     
26   H       -73.7185  -98.5341   28.7502  H     
27   H       -76.0546  -99.3971   28.5530  H     
28   H       -76.3912  -95.2103   25.8763  H     
29   H       -76.7530  -93.5968   26.5185  H     
30   H       -77.9453  -94.8494   26.7328  H     
@<TRIPOS>BOND
     1    1    2 1
     2    1    6 2
     3    1   20 1
     4    2    3 2
     5    2    5 1
     6    3    4 1
     7    4    8 2
     8    6    7 1
     9    6    8 1
    10    7    9 1
    11    7   12 2
    12    8   10 1
    13    9   10 1
    14    9   11 2
    15   12   13 1
    16   13   15 2
    17   13   17 1
    18   14   15 1
    19   14   16 2
    20   15   18 1
    21   16   17 1
    22   18   19 1
    23    3   21 1
    24    4   22 1
    25   10   23 1
    26   12   24 1
    27   14   25 1
    28   16   26 1
    29   17   27 1
    30   19   28 1
    31   19   29 1
    32   19   30 1
@<TRIPOS>PROPERTY_DATA
  Total_Score	| 7.3970
  Crash		| -1.0618
  Polar		| 2.2616
  FragIndex	| 1
  FragRMSD	| 0.560

