@<TRIPOS>MOLECULE
BindingDB_10088
 50 53 0 0 0
SMALL
NO_CHARGES


@<TRIPOS>ATOM
1    C       -81.3240  -98.3492   27.3578  C     
2    C       -82.5383  -99.0908   27.1238  C     
3    C       -82.6371 -100.4194   27.6229  C     
4    C       -81.6407 -100.9823   28.4231  C     
5    C       -80.3193  -98.9192   28.2114  C     
6    C       -79.0185  -98.5962   28.6316  C     
7    C       -80.5225 -100.2086   28.7209  C     
8    C       -78.6066  -99.6119   29.4433  C     
9    N       -79.4873 -100.5742   29.4642  N     
10   O       -77.6638  -99.6316   30.2231  O     
11   C       -78.2458  -97.5545   28.2457  C     
12   C       -76.8541  -97.4596   28.2899  C     
13   C       -74.7229  -96.7437   28.1646  C     
14   C       -76.0499  -96.3249   28.0917  C     
15   C       -74.7357  -98.1117   28.3783  C     
16   N       -76.0139  -98.5099   28.4305  N     
17   O       -76.3692  -95.0095   27.9205  O     
18   C       -76.7704  -94.6292   26.5918  C     
19   N       -83.6651  -98.5760   26.5385  N     
20   O       -84.5917  -99.2464   26.1583  O     
21   O       -83.9422  -97.3041   26.5727  O     
22   N       -81.0412  -97.1596   26.7481  N     
23   C       -81.3244  -96.7633   25.3846  C     
24   C       -79.8940  -95.0646   24.2123  C     
25   C       -80.8799  -94.3595   25.1630  C     
26   C       -82.0210  -95.3815   25.3049  C     
27   C       -79.9950  -96.5664   24.5886  C     
28   N       -80.2805  -94.7890   22.8142  N     
29   H       -83.4806 -100.9805   27.4674  H     
30   H       -81.7313 -101.9328   28.7798  H     
31   H       -79.4377 -101.3719   30.0154  H     
32   H       -78.6846  -96.8015   27.7967  H     
33   H       -73.8878  -96.1625   28.0803  H     
34   H       -73.9186  -98.7241   28.4770  H     
35   H       -76.2881  -99.4316   28.5439  H     
36   H       -76.3783  -95.2795   25.7986  H     
37   H       -76.4045  -93.6165   26.4001  H     
38   H       -77.8576  -94.6093   26.5515  H     
39   H       -80.3683  -96.6208   27.1669  H     
40   H       -81.9316  -97.5147   24.8663  H     
41   H       -78.8754  -94.6886   24.3645  H     
42   H       -80.4095  -94.1813   26.1367  H     
43   H       -81.2292  -93.4052   24.7597  H     
44   H       -82.6566  -95.3413   24.4109  H     
45   H       -82.6466  -95.1563   26.1690  H     
46   H       -79.1211  -96.8469   25.1939  H     
47   H       -79.9898  -97.1925   23.6888  H     
48   H       -81.2282  -95.1346   22.6452  H     
49   H       -79.6207  -95.2428   22.1861  H     
50   H       -80.2610  -93.7832   22.6491  H     
@<TRIPOS>BOND
     1    1    2 1
     2    1    5 2
     3    1   22 1
     4    2    3 2
     5    2   19 am
     6    3    4 1
     7    4    7 2
     8    5    6 1
     9    5    7 1
    10    6    8 1
    11    6   11 2
    12    7    9 1
    13    8    9 1
    14    8   10 2
    15   11   12 1
    16   12   14 2
    17   12   16 1
    18   13   14 1
    19   13   15 2
    20   14   17 1
    21   15   16 1
    22   17   18 1
    23   19   20 2
    24   19   21 1
    25   23   22 1
    26   23   26 1
    27   23   27 1
    28   24   25 1
    29   24   27 1
    30   24   28 1
    31   25   26 1
    32    3   29 1
    33    4   30 1
    34    9   31 1
    35   11   32 1
    36   13   33 1
    37   15   34 1
    38   16   35 1
    39   18   36 1
    40   18   37 1
    41   18   38 1
    42   22   39 1
    43   23   40 1
    44   24   41 1
    45   25   42 1
    46   25   43 1
    47   26   44 1
    48   26   45 1
    49   27   46 1
    50   27   47 1
    51   28   48 1
    52   28   49 1
    53   28   50 1
@<TRIPOS>PROPERTY_DATA
  Total_Score	| 9.5225
  Crash		| -3.3204
  Polar		| 2.7606
  FragIndex	| 1
  FragRMSD	| 0.480

