@<TRIPOS>MOLECULE
BindingDB_7253
 38 41 0 0 0
SMALL
NO_CHARGES


@<TRIPOS>ATOM
1    C       -81.8951  -98.4967   27.5807  C     
2    C       -83.0544  -99.2376   27.2597  C     
3    C       -83.0966 -100.6237   27.5365  C     
4    C       -82.0088 -101.2684   28.1609  C     
5    C       -80.8005  -99.1503   28.1837  C     
6    C       -79.5692  -98.7108   28.6078  C     
7    C       -80.8798 -100.5047   28.4959  C     
8    C       -79.0510  -99.7322   29.3283  C     
9    N       -79.7889 -100.8147   29.2019  N     
10   O       -78.2943  -99.6133   30.2786  O     
11   C       -79.0460  -97.5200   28.2560  C     
12   C       -77.7680  -97.0178   28.4147  C     
13   C       -76.2769  -95.3806   28.4014  C     
14   N       -77.5640  -95.6970   28.2384  N     
15   C       -76.5118  -97.5965   28.6505  C     
16   C       -75.5881  -96.5493   28.6647  C     
17   C       -74.2506  -96.7546   28.9214  C     
18   C       -74.5328  -99.1135   28.4555  C     
19   C       -76.0380  -98.9996   28.8156  C     
20   O       -73.5265  -95.8257   29.2396  O     
21   N       -73.8011  -98.0000   28.9911  N     
22   O       -84.1826  -98.6223   26.7862  O     
23   C       -84.0060  -97.8812   25.5682  C     
24   H       -81.8733  -97.4902   27.4109  H     
25   H       -83.9353 -101.1611   27.3107  H     
26   H       -82.0493 -102.2636   28.3864  H     
27   H       -79.6876 -101.6202   29.7381  H     
28   H       -79.6661  -96.8893   27.8014  H     
29   H       -75.8792  -94.4473   28.3228  H     
30   H       -78.2609  -95.0545   28.0273  H     
31   H       -74.1073 -100.0478   28.8249  H     
32   H       -74.4302  -99.1044   27.3681  H     
33   H       -76.1305  -99.2887   29.8611  H     
34   H       -76.6174  -99.6805   28.1907  H     
35   H       -72.9409  -98.1610   29.3953  H     
36   H       -83.3885  -96.9952   25.7270  H     
37   H       -84.9873  -97.5541   25.2244  H     
38   H       -83.5561  -98.5005   24.7925  H     
@<TRIPOS>BOND
     1    1    2 1
     2    1    5 2
     3    2    3 2
     4    2   22 1
     5    3    4 1
     6    4    7 2
     7    5    6 1
     8    5    7 1
     9    6    8 1
    10    6   11 2
    11    7    9 1
    12    8    9 1
    13    8   10 2
    14   11   12 1
    15   12   14 1
    16   12   15 2
    17   13   14 1
    18   13   16 2
    19   15   16 1
    20   15   19 1
    21   16   17 1
    22   17   20 2
    23   17   21 1
    24   18   19 1
    25   18   21 1
    26   22   23 1
    27    1   24 1
    28    3   25 1
    29    4   26 1
    30    9   27 1
    31   11   28 1
    32   13   29 1
    33   14   30 1
    34   18   31 1
    35   18   32 1
    36   19   33 1
    37   19   34 1
    38   21   35 1
    39   23   36 1
    40   23   37 1
    41   23   38 1
@<TRIPOS>PROPERTY_DATA
  Total_Score	| 7.4802
  Crash		| -3.8855
  Polar		| 1.9360
  FragIndex	| 1
  FragRMSD	| 1.194

