@<TRIPOS>MOLECULE
BindingDB_7238
 29 31 0 0 0
SMALL
NO_CHARGES


@<TRIPOS>ATOM
1    C       -81.2086  -98.2104   27.7056  C     
2    C       -82.4377  -98.8536   27.4387  C     
3    C       -82.6271 -100.1998   27.8323  C     
4    C       -81.5976 -100.9037   28.4876  C     
5    C       -80.1787  -98.9175   28.3602  C     
6    C       -78.8947  -98.5862   28.7390  C     
7    C       -80.3879 -100.2410   28.7481  C     
8    C       -78.4220  -99.6718   29.4112  C     
9    O       -83.4495  -98.1236   26.8741  O     
10   C       -83.7415  -98.4869   25.5147  C     
11   N       -79.2940 -100.6542   29.3886  N     
12   O       -77.4411  -99.7297   30.1405  O     
13   C       -78.2910  -97.4129   28.4509  C     
14   C       -76.9445  -97.1081   28.5697  C     
15   C       -76.3993  -95.8251   28.5995  C     
16   C       -74.7689  -97.2239   28.6491  C     
17   N       -75.0623  -95.9134   28.6572  N     
18   N       -75.8974  -97.9435   28.5877  N     
19   H       -81.0804  -97.2344   27.4317  H     
20   H       -83.5243 -100.6635   27.6577  H     
21   H       -81.7294 -101.8763   28.7736  H     
22   H       -82.8510  -98.4746   24.8796  H     
23   H       -84.4561  -97.7711   25.1116  H     
24   H       -84.1994  -99.4779   25.4702  H     
25   H       -79.2141 -101.4876   29.8731  H     
26   H       -78.8559  -96.6929   28.0611  H     
27   H       -76.9259  -94.9450   28.5808  H     
28   H       -73.8291  -97.6124   28.6715  H     
29   H       -75.9437  -98.9077   28.5355  H     
@<TRIPOS>BOND
     1    1    2 1
     2    1    5 2
     3    2    3 2
     4    2    9 1
     5    3    4 1
     6    4    7 2
     7    5    6 1
     8    5    7 1
     9    6    8 1
    10    6   13 2
    11    7   11 1
    12    8   11 1
    13    8   12 2
    14    9   10 1
    15   13   14 1
    16   14   15 2
    17   14   18 1
    18   15   17 1
    19   16   17 2
    20   16   18 1
    21    1   19 1
    22    3   20 1
    23    4   21 1
    24   10   22 1
    25   10   23 1
    26   10   24 1
    27   11   25 1
    28   13   26 1
    29   15   27 1
    30   16   28 1
    31   18   29 1
@<TRIPOS>PROPERTY_DATA
  Total_Score	| 9.5379
  Crash		| -0.3818
  Polar		| 3.5021
  FragIndex	| 1
  FragRMSD	| 0.279

