@<TRIPOS>MOLECULE
BindingDB_10091
 47 50 0 0 0
SMALL
NO_CHARGES


@<TRIPOS>ATOM
1    C       -81.1720  -98.7350   26.9309  C     
2    C       -82.4005  -99.4527   26.7145  C     
3    C       -82.6335 -100.6233   27.4839  C     
4    C       -81.7134 -101.0854   28.4287  C     
5    C       -80.2522  -99.1787   27.9350  C     
6    C       -78.9906  -98.7838   28.4035  C     
7    C       -80.5537 -100.3423   28.6455  C     
8    C       -78.6526  -99.6798   29.3706  C     
9    N       -79.5695 -100.6034   29.4907  N     
10   O       -77.7065  -99.6587   30.1511  O     
11   C       -78.2493  -97.7286   28.0008  C     
12   C       -76.9046  -97.4898   28.2526  C     
13   C       -74.9286  -96.4650   28.5311  C     
14   C       -76.2732  -96.2413   28.2176  C     
15   C       -74.7538  -97.8269   28.6575  C     
16   N       -75.9464  -98.4230   28.4446  N     
17   O       -76.8743  -95.0365   27.9840  O     
18   C       -76.5007  -94.4769   26.7093  C     
19   N       -83.3626  -99.0794   25.8051  N     
20   O       -84.3981  -99.6813   25.6465  O     
21   O       -83.2849  -98.0253   25.0515  O     
22   C       -80.2745  -95.4580   25.5224  C     
23   C       -81.0933  -96.3366   26.4948  C     
24   C       -80.1446  -97.8448   24.8960  C     
25   C       -79.5575  -96.4518   24.5878  C     
26   N       -80.8212  -97.6847   26.1353  N     
27   N       -81.1438  -94.5013   24.7932  N     
28   H       -83.4857 -101.1781   27.3589  H     
29   H       -81.8737 -101.9494   28.9389  H     
30   H       -79.5457 -101.3334   30.1318  H     
31   H       -78.6781  -97.0634   27.4163  H     
32   H       -74.1995  -95.7606   28.5948  H     
33   H       -73.8815  -98.3188   28.8416  H     
34   H       -76.0943  -99.3795   28.4274  H     
35   H       -75.4287  -94.2935   26.6824  H     
36   H       -77.0109  -93.5211   26.5901  H     
37   H       -76.7721  -95.1131   25.8562  H     
38   H       -79.5211  -94.8738   26.0839  H     
39   H       -80.7933  -96.1307   27.5240  H     
40   H       -82.1656  -96.1559   26.4067  H     
41   H       -80.8498  -98.1529   24.1191  H     
42   H       -79.3407  -98.5799   24.9489  H     
43   H       -79.6809  -96.1931   23.5355  H     
44   H       -78.4850  -96.4563   24.8333  H     
45   H       -81.8697  -95.0156   24.2823  H     
46   H       -80.5812  -93.9576   24.1338  H     
47   H       -81.5940  -93.8671   25.4712  H     
@<TRIPOS>BOND
     1    1    2 1
     2    1    5 2
     3    1   26 1
     4    2    3 2
     5    2   19 am
     6    3    4 1
     7    4    7 2
     8    5    6 1
     9    5    7 1
    10    6    8 1
    11    6   11 2
    12    7    9 1
    13    8    9 1
    14    8   10 2
    15   11   12 1
    16   12   14 2
    17   12   16 1
    18   13   14 1
    19   13   15 2
    20   14   17 1
    21   15   16 1
    22   17   18 1
    23   19   20 2
    24   19   21 1
    25   22   23 1
    26   22   25 1
    27   22   27 1
    28   23   26 1
    29   24   25 1
    30   24   26 1
    31    3   28 1
    32    4   29 1
    33    9   30 1
    34   11   31 1
    35   13   32 1
    36   15   33 1
    37   16   34 1
    38   18   35 1
    39   18   36 1
    40   18   37 1
    41   22   38 1
    42   23   39 1
    43   23   40 1
    44   24   41 1
    45   24   42 1
    46   25   43 1
    47   25   44 1
    48   27   45 1
    49   27   46 1
    50   27   47 1
@<TRIPOS>PROPERTY_DATA
  Total_Score	| 6.6147
  Crash		| -4.6050
  Polar		| 1.9114
  FragIndex	| 1
  FragRMSD	| 0.619

