@<TRIPOS>MOLECULE
BindingDB_7239
 37 40 0 0 0
SMALL
NO_CHARGES


@<TRIPOS>ATOM
1    C       -81.7671  -98.4088   27.6597  C     
2    C       -82.9642  -99.0864   27.3425  C     
3    C       -83.0749 -100.4718   27.6017  C     
4    C       -82.0177 -101.1783   28.2086  C     
5    C       -80.7117  -99.1153   28.2780  C     
6    C       -79.4500  -98.7489   28.6990  C     
7    C       -80.8623 -100.4695   28.5683  C     
8    C       -78.9747  -99.8296   29.3669  C     
9    O       -84.0209  -98.3606   26.8641  O     
10   C       -84.1679  -98.4286   25.4370  C     
11   N       -79.7824 -100.8588   29.2420  N     
12   O       -78.0170  -99.8683   30.1298  O     
13   C       -78.8882  -97.5600   28.3848  C     
14   C       -77.5974  -97.0623   28.5113  C     
15   C       -76.1318  -95.3942   28.4470  C     
16   N       -77.4198  -95.7319   28.3570  N     
17   C       -76.3148  -97.6203   28.6473  C     
18   C       -75.4128  -96.5582   28.6216  C     
19   C       -74.0294  -96.7508   28.7007  C     
20   C       -74.3624  -99.1487   28.2369  C     
21   C       -75.8197  -99.0122   28.7411  C     
22   O       -73.1879  -95.7197   28.9329  O     
23   O       -73.5509  -98.0202   28.6106  O     
24   H       -81.6929  -97.4065   27.4746  H     
25   H       -83.9293 -100.9714   27.3631  H     
26   H       -82.0939 -102.1797   28.3949  H     
27   H       -83.2564  -98.1367   24.9120  H     
28   H       -84.9580  -97.7386   25.1369  H     
29   H       -84.4607  -99.4348   25.1357  H     
30   H       -79.6753 -101.7152   29.6928  H     
31   H       -79.5109  -96.8968   27.9808  H     
32   H       -75.7496  -94.4588   28.3339  H     
33   H       -78.1315  -95.0944   28.1864  H     
34   H       -73.9053 -100.0621   28.6176  H     
35   H       -74.3788  -99.2117   27.1450  H     
36   H       -75.8286  -99.2933   29.7959  H     
37   H       -76.4669  -99.6790   28.1708  H     
@<TRIPOS>BOND
     1    1    2 1
     2    1    5 2
     3    2    3 2
     4    2    9 1
     5    3    4 1
     6    4    7 2
     7    5    6 1
     8    5    7 1
     9    6    8 1
    10    6   13 2
    11    7   11 1
    12    8   11 1
    13    8   12 2
    14    9   10 1
    15   13   14 1
    16   14   16 1
    17   14   17 2
    18   15   16 1
    19   15   18 2
    20   17   18 1
    21   17   21 1
    22   18   19 1
    23   19   22 2
    24   19   23 1
    25   20   21 1
    26   20   23 1
    27    1   24 1
    28    3   25 1
    29    4   26 1
    30   10   27 1
    31   10   28 1
    32   10   29 1
    33   11   30 1
    34   13   31 1
    35   15   32 1
    36   16   33 1
    37   20   34 1
    38   20   35 1
    39   21   36 1
    40   21   37 1
@<TRIPOS>PROPERTY_DATA
  Total_Score	| 7.9310
  Crash		| -3.7667
  Polar		| 1.9475
  FragIndex	| 1
  FragRMSD	| 1.126

