@<TRIPOS>MOLECULE
BindingDB_10086
 51 54 0 0 0
SMALL
NO_CHARGES


@<TRIPOS>ATOM
1    C       -81.2743  -98.3822   27.6363  C     
2    C       -82.5458  -99.0565   27.6005  C     
3    C       -82.6174 -100.4086   28.0184  C     
4    C       -81.5334 -101.0241   28.6422  C     
5    C       -80.1903  -98.9701   28.3690  C     
6    C       -78.8423  -98.6809   28.6744  C     
7    C       -80.3794 -100.2685   28.8539  C     
8    C       -78.3544  -99.7857   29.3125  C     
9    N       -79.2730 -100.7019   29.4320  N     
10   O       -77.2175 -100.0696   29.6521  O     
11   C       -78.1380  -97.5714   28.3461  C     
12   C       -76.7733  -97.3102   28.4901  C     
13   C       -74.6896  -96.5601   28.0525  C     
14   C       -76.0087  -96.5209   27.6202  C     
15   C       -74.6743  -97.3198   29.2094  C     
16   N       -75.9266  -97.7338   29.4510  N     
17   O       -76.4245  -95.8853   26.4880  O     
18   C       -76.6317  -94.4789   26.6985  C     
19   N       -83.7201  -98.4321   27.2779  N     
20   O       -84.7608  -99.0161   27.1204  O     
21   O       -83.8479  -97.1369   27.3386  O     
22   N       -81.0441  -97.2624   26.8899  N     
23   C       -81.3016  -97.1296   25.4708  C     
24   C       -80.0157  -97.5097   24.6788  C     
25   C       -78.9079  -96.4325   24.7941  C     
26   C       -79.4044  -95.0195   24.3840  C     
27   C       -80.6624  -94.6237   25.1983  C     
28   C       -81.7761  -95.6969   25.0741  C     
29   O       -79.6959  -94.9628   22.9874  O     
30   H       -83.4840 -100.9454   27.9360  H     
31   H       -81.5903 -101.9954   28.9509  H     
32   H       -79.1458 -101.5842   29.8198  H     
33   H       -78.6271  -96.8607   27.8762  H     
34   H       -73.8882  -96.1116   27.6057  H     
35   H       -73.8544  -97.5230   29.7839  H     
36   H       -76.1805  -98.2583   30.2247  H     
37   H       -77.4093  -94.3035   27.4475  H     
38   H       -76.9499  -94.0316   25.7594  H     
39   H       -75.7067  -93.9852   27.0036  H     
40   H       -80.3792  -96.6525   27.2201  H     
41   H       -82.0711  -97.8311   25.1399  H     
42   H       -79.6258  -98.4665   25.0391  H     
43   H       -80.2690  -97.6415   23.6237  H     
44   H       -78.5638  -96.4010   25.8229  H     
45   H       -78.0547  -96.7212   24.1822  H     
46   H       -78.6166  -94.2887   24.5797  H     
47   H       -80.3871  -94.5012   26.2499  H     
48   H       -81.0415  -93.6616   24.8410  H     
49   H       -82.1203  -95.7170   24.0372  H     
50   H       -82.6287  -95.3935   25.6804  H     
51   H       -78.8455  -94.7494   22.5525  H     
@<TRIPOS>BOND
     1    1    2 1
     2    1    5 2
     3    1   22 1
     4    2    3 2
     5    2   19 am
     6    3    4 1
     7    4    7 2
     8    5    6 1
     9    5    7 1
    10    6    8 1
    11    6   11 2
    12    7    9 1
    13    8    9 1
    14    8   10 2
    15   11   12 1
    16   12   14 2
    17   12   16 1
    18   13   14 1
    19   13   15 2
    20   14   17 1
    21   15   16 1
    22   17   18 1
    23   19   20 2
    24   19   21 1
    25   23   22 1
    26   23   24 1
    27   23   28 1
    28   24   25 1
    29   25   26 1
    30   26   27 1
    31   26   29 1
    32   27   28 1
    33    3   30 1
    34    4   31 1
    35    9   32 1
    36   11   33 1
    37   13   34 1
    38   15   35 1
    39   16   36 1
    40   18   37 1
    41   18   38 1
    42   18   39 1
    43   22   40 1
    44   23   41 1
    45   24   42 1
    46   24   43 1
    47   25   44 1
    48   25   45 1
    49   26   46 1
    50   27   47 1
    51   27   48 1
    52   28   49 1
    53   28   50 1
    54   29   51 1
@<TRIPOS>PROPERTY_DATA
  Total_Score	| 8.5915
  Crash		| -3.8341
  Polar		| 2.1613
  FragIndex	| 1
  FragRMSD	| 0.626

