@<TRIPOS>MOLECULE
BindingDB_10090
 50 53 0 0 0
SMALL
NO_CHARGES


@<TRIPOS>ATOM
1    C       -81.4198  -98.9322   27.0812  C     
2    C       -82.5475  -99.8099   26.8888  C     
3    C       -82.6044 -100.9917   27.6743  C     
4    C       -81.5738 -101.3297   28.5587  C     
5    C       -80.4086  -99.2382   28.0429  C     
6    C       -79.2069  -98.6558   28.4897  C     
7    C       -80.5085 -100.4476   28.7284  C     
8    C       -78.6806  -99.5476   29.3810  C     
9    N       -79.4481 -100.6005   29.5121  N     
10   O       -77.7035  -99.4381   30.1160  O     
11   C       -78.6885  -97.4614   28.1044  C     
12   C       -77.3405  -97.0808   28.1455  C     
13   C       -75.4358  -95.9313   27.7795  C     
14   C       -76.8326  -95.8736   27.6410  C     
15   C       -75.1287  -97.1678   28.2969  C     
16   N       -76.2800  -97.8501   28.4641  N     
17   O       -77.5815  -94.8655   27.0986  O     
18   C       -77.0635  -94.2702   25.8989  C     
19   N       -83.5370  -99.6235   25.9505  N     
20   O       -84.4872 -100.3571   25.8414  O     
21   O       -83.5491  -98.6580   25.0752  O     
22   C       -80.7887  -95.3677   24.8253  C     
23   C       -80.0955  -96.6684   24.3525  C     
24   C       -80.1141  -97.8146   25.4061  C     
25   C       -82.1333  -96.7174   26.5147  C     
26   C       -82.2052  -95.6859   25.3673  C     
27   N       -81.2833  -97.8612   26.2624  N     
28   N       -80.9061  -94.4160   23.7024  N     
29   H       -83.3701 -101.6584   27.5561  H     
30   H       -81.5922 -102.2176   29.0617  H     
31   H       -79.3084 -101.3462   30.1099  H     
32   H       -79.2646  -96.8688   27.5219  H     
33   H       -74.7699  -95.2406   27.4429  H     
34   H       -74.2028  -97.5626   28.4024  H     
35   H       -76.3486  -98.7684   28.7439  H     
36   H       -76.2480  -93.5907   26.1392  H     
37   H       -77.8575  -93.6977   25.4357  H     
38   H       -76.7192  -95.0223   25.1860  H     
39   H       -80.1873  -94.9164   25.6154  H     
40   H       -80.5973  -97.0144   23.4431  H     
41   H       -79.0560  -96.4398   24.0976  H     
42   H       -80.0520  -98.7415   24.8458  H     
43   H       -79.2002  -97.7686   26.0076  H     
44   H       -81.7582  -96.2248   27.4161  H     
45   H       -83.1583  -97.0223   26.7414  H     
46   H       -82.6709  -94.7624   25.7206  H     
47   H       -82.8193  -96.0945   24.5596  H     
48   H       -80.0287  -94.3778   23.1830  H     
49   H       -81.1247  -93.4853   24.0665  H     
50   H       -81.6688  -94.7168   23.0804  H     
@<TRIPOS>BOND
     1    1    2 1
     2    1    5 2
     3    1   27 1
     4    2    3 2
     5    2   19 am
     6    3    4 1
     7    4    7 2
     8    5    6 1
     9    5    7 1
    10    6    8 1
    11    6   11 2
    12    7    9 1
    13    8    9 1
    14    8   10 2
    15   11   12 1
    16   12   14 2
    17   12   16 1
    18   13   14 1
    19   13   15 2
    20   14   17 1
    21   15   16 1
    22   17   18 1
    23   19   20 2
    24   19   21 1
    25   22   23 1
    26   22   26 1
    27   22   28 1
    28   23   24 1
    29   24   27 1
    30   25   26 1
    31   25   27 1
    32    3   29 1
    33    4   30 1
    34    9   31 1
    35   11   32 1
    36   13   33 1
    37   15   34 1
    38   16   35 1
    39   18   36 1
    40   18   37 1
    41   18   38 1
    42   22   39 1
    43   23   40 1
    44   23   41 1
    45   24   42 1
    46   24   43 1
    47   25   44 1
    48   25   45 1
    49   26   46 1
    50   26   47 1
    51   28   48 1
    52   28   49 1
    53   28   50 1
@<TRIPOS>PROPERTY_DATA
  Total_Score	| 6.4209
  Crash		| -5.8530
  Polar		| 2.9501
  FragIndex	| 1
  FragRMSD	| 0.658

