@<TRIPOS>MOLECULE
BindingDB_10076
 32 34 0 0 0
SMALL
NO_CHARGES


@<TRIPOS>ATOM
1    C       -81.0530  -98.2766   27.4533  C     
2    C       -82.2966  -98.8747   27.1076  C     
3    C       -82.5734 -100.1783   27.6094  C     
4    C       -81.6470 -100.8676   28.4177  C     
5    C       -80.1274  -98.9634   28.2702  C     
6    C       -78.8441  -98.6819   28.6992  C     
7    C       -80.4380 -100.2364   28.7406  C     
8    C       -78.4732  -99.7383   29.4712  C     
9    N       -79.4120 -100.6584   29.4812  N     
10   O       -77.5082  -99.8104   30.2190  O     
11   C       -78.1256  -97.6043   28.3164  C     
12   C       -76.7445  -97.4554   28.3574  C     
13   C       -74.6538  -96.6518   28.1855  C     
14   C       -75.9943  -96.2913   28.1258  C     
15   C       -74.6061  -98.0141   28.4192  C     
16   N       -75.8627  -98.4640   28.5009  N     
17   O       -76.3694  -94.9931   27.9296  O     
18   C       -76.9096  -94.6810   26.6285  C     
19   N       -83.1866  -98.2197   26.3052  N     
20   O       -84.2406  -98.6989   25.9759  O     
21   O       -82.9532  -97.0262   25.8270  O     
22   H       -80.8125  -97.3493   27.1002  H     
23   H       -83.4558 -100.6458   27.3838  H     
24   H       -81.8417 -101.8158   28.7439  H     
25   H       -79.3947 -101.4751   30.0066  H     
26   H       -78.6167  -96.8856   27.8499  H     
27   H       -73.8497  -96.0354   28.0589  H     
28   H       -73.7659  -98.5854   28.4980  H     
29   H       -76.1000  -99.3958   28.6136  H     
30   H       -76.4745  -95.2770   25.8195  H     
31   H       -76.6931  -93.6340   26.4140  H     
32   H       -77.9975  -94.8070   26.6447  H     
@<TRIPOS>BOND
     1    1    2 1
     2    1    5 2
     3    2    3 2
     4    2   19 am
     5    3    4 1
     6    4    7 2
     7    5    6 1
     8    5    7 1
     9    6    8 1
    10    6   11 2
    11    7    9 1
    12    8    9 1
    13    8   10 2
    14   11   12 1
    15   12   14 2
    16   12   16 1
    17   13   14 1
    18   13   15 2
    19   14   17 1
    20   15   16 1
    21   17   18 1
    22   19   20 2
    23   19   21 1
    24    1   22 1
    25    3   23 1
    26    4   24 1
    27    9   25 1
    28   11   26 1
    29   13   27 1
    30   15   28 1
    31   16   29 1
    32   18   30 1
    33   18   31 1
    34   18   32 1
@<TRIPOS>PROPERTY_DATA
  Total_Score	| 8.2232
  Crash		| -0.5071
  Polar		| 2.2881
  FragIndex	| 1
  FragRMSD	| 0.475

