@<TRIPOS>MOLECULE
BindingDB_10084
 48 51 0 0 0
SMALL
NO_CHARGES


@<TRIPOS>ATOM
1    C       -80.8527  -98.5471   27.1060  C     
2    C       -82.1132  -99.2187   26.9125  C     
3    C       -82.3647 -100.3945   27.6765  C     
4    C       -81.4374 -100.8990   28.5941  C     
5    C       -79.9265  -99.0328   28.0811  C     
6    C       -78.6409  -98.6946   28.5247  C     
7    C       -80.2519 -100.1927   28.7872  C     
8    C       -78.3224  -99.6043   29.4921  C     
9    N       -79.2676 -100.4961   29.6219  N     
10   O       -77.3842  -99.5864   30.2829  O     
11   C       -77.8575  -97.6609   28.1273  C     
12   C       -76.4701  -97.5652   28.2979  C     
13   C       -74.3245  -96.9110   28.4100  C     
14   C       -75.6155  -96.4439   28.2303  C     
15   C       -74.3937  -98.2856   28.5444  C     
16   N       -75.6791  -98.6412   28.4676  N     
17   O       -75.7860  -95.0993   28.0665  O     
18   C       -76.7670  -94.6695   27.1244  C     
19   N       -83.0934  -98.8140   26.0369  N     
20   O       -84.1420  -99.3904   25.9123  O     
21   O       -83.0225  -97.7613   25.2813  O     
22   C       -80.3521  -95.1761   24.5551  C     
23   C       -79.6591  -96.4979   24.1528  C     
24   C       -80.1974  -97.7219   24.9362  C     
25   C       -80.6373  -96.1583   26.9092  C     
26   C       -80.1321  -94.9525   26.0642  C     
27   N       -80.4820  -97.4816   26.3405  N     
28   O       -81.7535  -95.2062   24.2656  O     
29   H       -83.2327 -100.9236   27.5636  H     
30   H       -81.6176 -101.7669   29.0992  H     
31   H       -79.2797 -101.2185   30.2738  H     
32   H       -78.2683  -96.9570   27.5717  H     
33   H       -73.4782  -96.3485   28.4150  H     
34   H       -73.6113  -98.9220   28.6745  H     
35   H       -75.9904  -99.5558   28.4969  H     
36   H       -76.7328  -95.2527   26.1964  H     
37   H       -76.5568  -93.6353   26.8620  H     
38   H       -77.7529  -94.7019   27.5875  H     
39   H       -79.9051  -94.3445   23.9999  H     
40   H       -79.8106  -96.6547   23.0840  H     
41   H       -78.5798  -96.4102   24.3328  H     
42   H       -81.1051  -98.0745   24.4319  H     
43   H       -79.4573  -98.5279   24.8423  H     
44   H       -80.1128  -96.1217   27.8688  H     
45   H       -81.7023  -95.9990   27.1110  H     
46   H       -79.0638  -94.8089   26.2436  H     
47   H       -80.6345  -94.0277   26.3695  H     
48   H       -81.8185  -95.1820   23.2894  H     
@<TRIPOS>BOND
     1    1    2 1
     2    1    5 2
     3    1   27 1
     4    2    3 2
     5    2   19 am
     6    3    4 1
     7    4    7 2
     8    5    6 1
     9    5    7 1
    10    6    8 1
    11    6   11 2
    12    7    9 1
    13    8    9 1
    14    8   10 2
    15   11   12 1
    16   12   14 2
    17   12   16 1
    18   13   14 1
    19   13   15 2
    20   14   17 1
    21   15   16 1
    22   17   18 1
    23   19   20 2
    24   19   21 1
    25   22   23 1
    26   22   26 1
    27   22   28 1
    28   23   24 1
    29   24   27 1
    30   25   26 1
    31   25   27 1
    32    3   29 1
    33    4   30 1
    34    9   31 1
    35   11   32 1
    36   13   33 1
    37   15   34 1
    38   16   35 1
    39   18   36 1
    40   18   37 1
    41   18   38 1
    42   22   39 1
    43   23   40 1
    44   23   41 1
    45   24   42 1
    46   24   43 1
    47   25   44 1
    48   25   45 1
    49   26   46 1
    50   26   47 1
    51   28   48 1
@<TRIPOS>PROPERTY_DATA
  Total_Score	| 5.0322
  Crash		| -7.3757
  Polar		| 3.2281
  FragIndex	| 1
  FragRMSD	| 0.709

