@<TRIPOS>MOLECULE
BindingDB_10089
 50 53 0 0 0
SMALL
NO_CHARGES


@<TRIPOS>ATOM
1    C       -81.0232  -98.1133   27.5773  C     
2    C       -82.3499  -98.6578   27.3856  C     
3    C       -82.6312  -99.9686   27.8639  C     
4    C       -81.6650 -100.7522   28.4894  C     
5    C       -80.0471  -98.9098   28.2748  C     
6    C       -78.7297  -98.7924   28.7401  C     
7    C       -80.4043 -100.1995   28.6817  C     
8    C       -78.3986  -99.9538   29.3599  C     
9    N       -79.4006 -100.7835   29.3232  N     
10   O       -77.4833 -100.1599   30.1440  O     
11   C       -77.9838  -97.6798   28.8238  C     
12   C       -76.5987  -97.5592   28.8110  C     
13   C       -74.5498  -96.6419   28.6758  C     
14   C       -75.9091  -96.3496   28.6804  C     
15   C       -74.4400  -98.0208   28.7569  C     
16   N       -75.6742  -98.5392   28.8009  N     
17   O       -76.4924  -95.1343   28.4611  O     
18   C       -76.5414  -94.7948   27.0616  C     
19   N       -83.3659  -98.0415   26.6858  N     
20   O       -84.4620  -98.5229   26.5473  O     
21   O       -83.2582  -96.9268   26.0279  O     
22   N       -80.8053  -96.8643   27.0555  N     
23   C       -79.7282  -96.3416   26.2495  C     
24   C       -79.5338  -97.1882   24.9551  C     
25   C       -80.7308  -96.9701   23.9926  C     
26   C       -80.9897  -94.6085   24.7580  C     
27   C       -79.9220  -94.8424   25.8540  C     
28   N       -80.8334  -95.5382   23.6152  N     
29   H       -83.5497 -100.3991   27.7306  H     
30   H       -81.8730 -101.7049   28.7965  H     
31   H       -79.4554 -101.6141   29.8269  H     
32   H       -78.4826  -96.8525   28.9423  H     
33   H       -73.7806  -95.9805   28.5661  H     
34   H       -73.5762  -98.5611   28.7516  H     
35   H       -75.8622  -99.4894   28.8161  H     
36   H       -76.7691  -95.6449   26.4075  H     
37   H       -75.5920  -94.3507   26.7590  H     
38   H       -77.3242  -94.0522   26.9185  H     
39   H       -81.6063  -96.3453   26.9563  H     
40   H       -78.8259  -96.3023   26.8315  H     
41   H       -78.6061  -96.8910   24.4574  H     
42   H       -79.4525  -98.2503   25.1958  H     
43   H       -80.5773  -97.5645   23.0915  H     
44   H       -81.6635  -97.3101   24.4621  H     
45   H       -81.9895  -94.7043   25.1790  H     
46   H       -80.8936  -93.5869   24.3825  H     
47   H       -80.1661  -94.2466   26.7389  H     
48   H       -78.9705  -94.4593   25.4668  H     
49   H       -79.9804  -95.2829   23.1093  H     
50   H       -81.6361  -95.3997   22.9926  H     
@<TRIPOS>BOND
     1    1    2 1
     2    1    5 2
     3    1   22 1
     4    2    3 2
     5    2   19 am
     6    3    4 1
     7    4    7 2
     8    5    6 1
     9    5    7 1
    10    6    8 1
    11    6   11 2
    12    7    9 1
    13    8    9 1
    14    8   10 2
    15   11   12 1
    16   12   14 2
    17   12   16 1
    18   13   14 1
    19   13   15 2
    20   14   17 1
    21   15   16 1
    22   17   18 1
    23   19   20 2
    24   19   21 1
    25   22   23 1
    26   23   24 1
    27   23   27 1
    28   24   25 1
    29   25   28 1
    30   26   27 1
    31   26   28 1
    32    3   29 1
    33    4   30 1
    34    9   31 1
    35   11   32 1
    36   13   33 1
    37   15   34 1
    38   16   35 1
    39   18   36 1
    40   18   37 1
    41   18   38 1
    42   22   39 1
    43   23   40 1
    44   24   41 1
    45   24   42 1
    46   25   43 1
    47   25   44 1
    48   26   45 1
    49   26   46 1
    50   27   47 1
    51   27   48 1
    52   28   49 1
    53   28   50 1
@<TRIPOS>PROPERTY_DATA
  Total_Score	| 8.9825
  Crash		| -4.3569
  Polar		| 3.5986
  FragIndex	| 1
  FragRMSD	| 0.578

