@<TRIPOS>MOLECULE
BindingDB_10074
 30 32 0 0 0
SMALL
NO_CHARGES


@<TRIPOS>ATOM
1    C       -81.2216  -98.2296   27.6972  C     
2    C       -82.4389  -98.8889   27.4155  C     
3    C       -82.6349 -100.2283   27.8198  C     
4    C       -81.6201 -100.9140   28.5166  C     
5    C       -80.2084  -98.9166   28.4033  C     
6    C       -78.9164  -98.5901   28.7747  C     
7    C       -80.4251 -100.2345   28.8047  C     
8    C       -78.4536  -99.6691   29.4652  C     
9    N       -79.3387 -100.6410   29.4615  N     
10   O       -77.4984  -99.7123   30.2258  O     
11   C       -78.2766  -97.4715   28.3654  C     
12   C       -76.9044  -97.2393   28.3154  C     
13   C       -74.9364  -96.3019   27.7338  C     
14   C       -76.3134  -96.1315   27.6936  C     
15   C       -74.7071  -97.5127   28.3642  C     
16   N       -75.8933  -98.0520   28.6794  N     
17   O       -76.9531  -95.1259   27.0279  O     
18   C       -77.3342  -95.4687   25.6801  C     
19   F       -83.3821  -98.2634   26.7651  F     
20   H       -81.0811  -97.2664   27.3866  H     
21   H       -83.5121 -100.7089   27.6044  H     
22   H       -81.7432 -101.8895   28.7905  H     
23   H       -79.2651 -101.4717   29.9612  H     
24   H       -78.8384  -96.7557   27.9560  H     
25   H       -74.2306  -95.6900   27.3174  H     
26   H       -73.7982  -97.9496   28.5154  H     
27   H       -75.9937  -98.9337   29.0580  H     
28   H       -77.0061  -96.4544   25.3354  H     
29   H       -76.9154  -94.7198   25.0091  H     
30   H       -78.4207  -95.4348   25.6073  H     
@<TRIPOS>BOND
     1    1    2 1
     2    1    5 2
     3    2    3 2
     4    2   19 1
     5    3    4 1
     6    4    7 2
     7    5    6 1
     8    5    7 1
     9    6    8 1
    10    6   11 2
    11    7    9 1
    12    8    9 1
    13    8   10 2
    14   11   12 1
    15   12   14 2
    16   12   16 1
    17   13   14 1
    18   13   15 2
    19   14   17 1
    20   15   16 1
    21   17   18 1
    22    1   20 1
    23    3   21 1
    24    4   22 1
    25    9   23 1
    26   11   24 1
    27   13   25 1
    28   15   26 1
    29   16   27 1
    30   18   28 1
    31   18   29 1
    32   18   30 1
@<TRIPOS>PROPERTY_DATA
  Total_Score	| 7.5869
  Crash		| -0.4534
  Polar		| 2.1982
  FragIndex	| 1
  FragRMSD	| 0.374

