@<TRIPOS>MOLECULE
BindingDB_50243240
 99 99 0 0 0
SMALL
NO_CHARGES


@<TRIPOS>ATOM
1    N        22.3447   28.3883   14.4786  N     
2    C        22.9539   29.5652   15.0371  C     
3    C        22.6739   30.6804   14.1281  C     
4    O        23.6243   31.2954   13.6498  O     
5    C        22.4175   29.7727   16.4893  C     
6    C        23.1407   30.8320   17.2482  C     
7    C        22.7119   32.1742   17.1640  C     
8    C        23.4295   33.1873   17.8157  C     
9    C        24.5493   32.8763   18.5971  C     
10   C        24.9756   31.5329   18.7658  C     
11   C        24.2666   30.5257   18.0553  C     
12   C        18.6581   19.3170   19.0502  C     
13   O        18.2159   21.4663   18.3319  O     
14   C        18.5249   20.3211   18.0036  C     
15   C        19.9398   18.4344   18.9628  C     
16   C        21.1946   19.2152   19.0274  C     
17   O        21.4728   19.9573   20.1191  O     
18   C        18.6042   20.8769   15.5788  C     
19   O        20.7332   21.6918   15.8046  O     
20   C        17.1135   21.2368   15.3078  C     
21   C        19.5486   21.9904   15.6743  C     
22   C        19.9304   24.4531   15.9371  C     
23   O        21.8795   23.8110   14.8690  O     
24   C        21.0284   24.6781   14.9992  C     
25   C        20.3066   24.6105   17.4440  C     
26   C        21.3440   23.6970   17.9549  C     
27   O        21.0248   22.7255   18.8394  O     
28   C        22.1361   26.2307   13.4114  C     
29   O        24.1619   27.2487   13.8925  O     
30   C        22.9388   27.3187   13.9555  C     
31   C        21.4322   26.6098   12.0723  C     
32   C        22.3851   26.9548   10.8829  C     
33   C        22.8505   25.7596   10.1457  C     
34   O        23.6190   24.8223   10.7517  O     
35   N        21.4247   31.0004   13.8040  N     
36   C        20.9711   32.0490   12.9159  C     
37   C        21.8213   33.2493   12.9470  C     
38   C        19.4709   32.3792   13.2591  C     
39   C        18.3550   31.6959   12.3997  C     
40   C        17.7037   32.6793   11.3823  C     
41   C        18.7611   30.3803   11.6691  C     
42   N        22.0040   33.9441   14.0498  N     
43   O        22.4089   33.6271   11.9418  O     
44   C        26.1553   31.2438   19.6409  C     
45   P        25.8580   31.4999   21.2667  P     
46   F        26.6073   29.9489   19.5206  F     
47   F        27.2188   32.0273   19.2507  F     
48   O        27.0641   31.5433   22.0436  O     
49   O        25.1625   32.8297   21.5940  O     
50   O        24.9785   30.3981   21.8846  O     
51   N        17.4774   18.4403   19.0244  N     
52   O        22.1004   19.1564   18.0230  O     
53   N        18.6979   20.0008   16.7210  N     
54   N        19.1631   23.2634   15.6759  N     
55   O        22.6531   23.9544   17.7357  O     
56   N        21.1305   25.8467   14.3718  N     
57   O        22.4606   25.5494    8.8699  O     
58   H        21.3763   28.3840   14.4611  H     
59   H        24.0331   29.4189   15.1169  H     
60   H        21.3438   29.9918   16.4589  H     
61   H        22.5104   28.8248   17.0330  H     
62   H        21.8861   32.4183   16.6189  H     
63   H        23.1321   34.1564   17.7218  H     
64   H        25.0431   33.6384   19.0550  H     
65   H        24.5750   29.5573   18.1197  H     
66   H        18.6598   19.7996   20.0361  H     
67   H        19.9451   17.7327   19.8016  H     
68   H        19.9245   17.8423   18.0426  H     
69   H        18.9044   20.2666   14.7180  H     
70   H        16.6818   21.7988   16.1394  H     
71   H        16.5294   20.3266   15.1647  H     
72   H        17.0351   21.8410   14.4015  H     
73   H        19.1982   25.2414   15.7707  H     
74   H        20.6392   25.6372   17.6306  H     
75   H        19.4008   24.4657   18.0381  H     
76   H        22.7875   25.3801   13.1909  H     
77   H        20.7725   25.7881   11.7704  H     
78   H        20.7814   27.4715   12.2476  H     
79   H        21.8430   27.6045   10.1893  H     
80   H        23.2606   27.5094   11.2305  H     
81   H        20.7285   30.4342   14.1936  H     
82   H        21.0030   31.6384   11.8991  H     
83   H        19.2961   32.1173   14.3082  H     
84   H        19.3212   33.4622   13.2158  H     
85   H        17.5475   31.4154   13.0921  H     
86   H        17.2635   33.5274   11.9152  H     
87   H        16.9015   32.1864   10.8214  H     
88   H        18.4500   33.0541   10.6768  H     
89   H        19.4197   30.5967   10.8234  H     
90   H        17.8725   29.8581   11.2944  H     
91   H        19.2775   29.7157   12.3567  H     
92   H        22.5715   34.7366   14.0428  H     
93   H        21.5528   33.6692   14.8721  H     
94   H        16.6309   19.0034   19.1297  H     
95   H        17.5432   17.7834   19.8026  H     
96   H        17.4440   17.9276   18.1404  H     
97   H        18.9244   19.0780   16.5413  H     
98   H        18.2171   23.4024   15.5259  H     
99   H        20.4654   26.5304   14.5768  H     
@<TRIPOS>BOND
     1    1    2 1
     2    1   30 am
     3    2    3 1
     4    2    5 1
     5    3    4 2
     6    3   35 am
     7    5    6 1
     8    6    7 2
     9    6   11 1
    10    7    8 1
    11    8    9 2
    12    9   10 1
    13   10   11 2
    14   10   44 1
    15   12   14 1
    16   12   15 1
    17   12   51 1
    18   13   14 2
    19   14   53 am
    20   15   16 1
    21   16   17 2
    22   16   52 1
    23   18   20 1
    24   18   21 1
    25   18   53 1
    26   19   21 2
    27   21   54 am
    28   22   24 1
    29   22   25 1
    30   22   54 1
    31   23   24 2
    32   24   56 am
    33   25   26 1
    34   26   27 2
    35   26   55 1
    36   28   30 1
    37   28   31 1
    38   28   56 1
    39   29   30 2
    40   31   32 1
    41   32   33 1
    42   33   34 2
    43   33   57 1
    44   35   36 1
    45   36   37 1
    46   36   38 1
    47   37   42 am
    48   37   43 2
    49   38   39 1
    50   39   40 1
    51   39   41 1
    52   44   45 1
    53   44   46 1
    54   44   47 1
    55   45   48 2
    56   45   49 1
    57   45   50 1
    58    1   58 1
    59    2   59 1
    60    5   60 1
    61    5   61 1
    62    7   62 1
    63    8   63 1
    64    9   64 1
    65   11   65 1
    66   12   66 1
    67   15   67 1
    68   15   68 1
    69   18   69 1
    70   20   70 1
    71   20   71 1
    72   20   72 1
    73   22   73 1
    74   25   74 1
    75   25   75 1
    76   28   76 1
    77   31   77 1
    78   31   78 1
    79   32   79 1
    80   32   80 1
    81   35   81 1
    82   36   82 1
    83   38   83 1
    84   38   84 1
    85   39   85 1
    86   40   86 1
    87   40   87 1
    88   40   88 1
    89   41   89 1
    90   41   90 1
    91   41   91 1
    92   42   92 1
    93   42   93 1
    94   51   94 1
    95   51   95 1
    96   51   96 1
    97   53   97 1
    98   54   98 1
    99   56   99 1
@<TRIPOS>PROPERTY_DATA
  Total_Score	| 14.4515
  Crash		| -3.2097
  Polar		| 14.1709
  FragIndex	| 1
  FragRMSD	| 1.324

