@<TRIPOS>MOLECULE
BindingDB_50142314
 46 48 0 0 0
SMALL
NO_CHARGES


@<TRIPOS>ATOM
1    P        25.8970   31.6139   21.3575  P     
2    C        26.2500   31.4302   19.7323  C     
3    C        21.1217   31.4333   13.7006  C     
4    C        21.4407   30.8406   15.0003  C     
5    C        25.0632   31.5571   18.8245  C     
6    O        25.2142   32.8352   21.6888  O     
7    C        21.6469   31.9249   16.1264  C     
8    O        21.9276   32.1734   13.1473  O     
9    C        19.9128   31.2484   13.0487  C     
10   F        26.8324   30.1959   19.5618  F     
11   F        27.2511   32.3534   19.4683  F     
12   C        22.5542   29.8263   14.8786  C     
13   O        25.0714   30.4472   21.9304  O     
14   O        27.1873   31.6172   22.1828  O     
15   C        24.1370   30.4897   18.6642  C     
16   C        24.8349   32.7328   18.0587  C     
17   C        22.8276   31.7694   17.0322  C     
18   C        23.7451   32.8324   17.1802  C     
19   C        23.0394   30.5893   17.7830  C     
20   C        18.9025   32.2278   13.1471  C     
21   C        19.7139   30.1078   12.2456  C     
22   C        23.6808   30.0319   14.0426  C     
23   C        22.5066   28.6072   15.6304  C     
24   C        23.5319   27.6469   15.5369  C     
25   C        17.6666   32.0393   12.4913  C     
26   C        18.4866   29.9214   11.5751  C     
27   C        24.6971   29.0712   13.9400  C     
28   C        24.6386   27.8797   14.6929  C     
29   C        17.4738   30.8912   11.7034  C     
30   H        20.5397   30.2951   15.3215  H     
31   H        21.6607   32.9186   15.6789  H     
32   H        20.7558   31.9454   16.7830  H     
33   H        24.2542   29.6239   19.1943  H     
34   H        25.4702   33.5323   18.1407  H     
35   H        23.6435   33.7036   16.6355  H     
36   H        22.3825   29.7989   17.6910  H     
37   H        19.0362   33.0620   13.7182  H     
38   H        20.4425   29.3940   12.1621  H     
39   H        23.7797   30.9156   13.5261  H     
40   H        21.7250   28.4197   16.2760  H     
41   H        23.4713   26.7752   16.0803  H     
42   H        16.9156   32.7308   12.5911  H     
43   H        18.3297   29.0803   11.0099  H     
44   H        25.4805   29.2220   13.3104  H     
45   H        25.3884   27.1818   14.6280  H     
46   H        16.5690   30.7424   11.2354  H     
@<TRIPOS>BOND
     1    1    2 1
     2    1    6 2
     3    1   13 1
     4    1   14 1
     5    2    5 1
     6    2   10 1
     7    2   11 1
     8    3    4 1
     9    3    8 2
    10    3    9 1
    11    4    7 1
    12    4   12 1
    13    5   15 1
    14    5   16 2
    15    7   17 1
    16    9   20 2
    17    9   21 1
    18   12   22 2
    19   12   23 1
    20   15   19 2
    21   16   18 1
    22   17   18 2
    23   17   19 1
    24   20   25 1
    25   21   26 2
    26   22   27 1
    27   23   24 2
    28   24   28 1
    29   25   29 2
    30   26   29 1
    31   27   28 2
    32    4   30 1
    33    7   31 1
    34    7   32 1
    35   15   33 1
    36   16   34 1
    37   18   35 1
    38   19   36 1
    39   20   37 1
    40   21   38 1
    41   22   39 1
    42   23   40 1
    43   24   41 1
    44   25   42 1
    45   26   43 1
    46   27   44 1
    47   28   45 1
    48   29   46 1
@<TRIPOS>PROPERTY_DATA
  Total_Score	| 10.5548
  Crash		| -1.6403
  Polar		| 6.4633
  FragIndex	| 1
  FragRMSD	| 0.762

