@<TRIPOS>MOLECULE
BindingDB_50107743
 46 47 0 0 0
SMALL
NO_CHARGES


@<TRIPOS>ATOM
1    P        16.9582   27.6328    9.1337  P     
2    P        25.8617   31.6085   21.3048  P     
3    C        26.1894   31.4382   19.6799  C     
4    C        16.9675   27.8043   10.7897  C     
5    C        18.0073   28.7722   11.2636  C     
6    C        24.9401   31.3540   18.8580  C     
7    O        16.2846   26.3112    8.7089  O     
8    O        16.1328   28.7659    8.4835  O     
9    O        25.0247   30.4391   21.8635  O     
10   O        27.1639   31.5879   22.1249  O     
11   O        18.2854   27.6781    8.5519  O     
12   O        25.1889   32.8287   21.6384  O     
13   F        17.1608   26.5702   11.3588  F     
14   F        15.6988   28.1698   11.1788  F     
15   F        26.9738   30.3240   19.5215  F     
16   F        26.9829   32.4867   19.2860  F     
17   C        24.2458   30.1251   18.7090  C     
18   C        19.3516   28.3521   11.4472  C     
19   C        24.3894   32.4899   18.2120  C     
20   C        17.7115   30.1323   11.5246  C     
21   C        23.0621   30.0354   17.9519  C     
22   C        18.7020   31.0280   11.9779  C     
23   C        20.3373   29.2418   11.9102  C     
24   C        23.2058   32.4020   17.4515  C     
25   C        20.0294   30.5903   12.1863  C     
26   C        22.5188   31.1708   17.3215  C     
27   C        21.2110   31.0880   16.6189  C     
28   C        21.0815   31.5147   12.6873  C     
29   C        21.6866   31.0773   14.0513  C     
30   C        21.1059   31.8476   15.2742  C     
31   H        24.5918   29.2777   19.1763  H     
32   H        19.6204   27.3875   11.2517  H     
33   H        24.8367   33.4040   18.3062  H     
34   H        16.7564   30.4881   11.3856  H     
35   H        22.5933   29.1307   17.8846  H     
36   H        18.4421   31.9966   12.1585  H     
37   H        21.2950   28.8948   12.0351  H     
38   H        22.8347   33.2471   17.0060  H     
39   H        20.9502   30.0492   16.4179  H     
40   H        20.4446   31.4753   17.2887  H     
41   H        21.8833   31.5738   11.9515  H     
42   H        20.6869   32.5277   12.7848  H     
43   H        21.5360   30.0026   14.1861  H     
44   H        22.7695   31.2493   14.0274  H     
45   H        20.0478   32.0435   15.0906  H     
46   H        21.6007   32.8172   15.3555  H     
@<TRIPOS>BOND
     1    1    4 1
     2    1    7 1
     3    1    8 1
     4    1   11 2
     5    2    3 1
     6    2    9 1
     7    2   10 1
     8    2   12 2
     9    3    6 1
    10    3   15 1
    11    3   16 1
    12    4    5 1
    13    4   13 1
    14    4   14 1
    15    5   18 1
    16    5   20 2
    17    6   17 1
    18    6   19 2
    19   17   21 2
    20   18   23 2
    21   19   24 1
    22   20   22 1
    23   21   26 1
    24   22   25 2
    25   23   25 1
    26   24   26 2
    27   25   28 1
    28   26   27 1
    29   27   30 1
    30   28   29 1
    31   29   30 1
    32   17   31 1
    33   18   32 1
    34   19   33 1
    35   20   34 1
    36   21   35 1
    37   22   36 1
    38   23   37 1
    39   24   38 1
    40   27   39 1
    41   27   40 1
    42   28   41 1
    43   28   42 1
    44   29   43 1
    45   29   44 1
    46   30   45 1
    47   30   46 1
@<TRIPOS>PROPERTY_DATA
  Total_Score	| 11.9715
  Crash		| -0.7028
  Polar		| 7.9548
  FragIndex	| 1
  FragRMSD	| 0.315

