@<TRIPOS>MOLECULE
BindingDB_50131550
 63 64 0 0 0
SMALL
NO_CHARGES


@<TRIPOS>ATOM
1    C        17.4154   36.1341   14.2080  C     
2    C        17.2024   36.2315   12.8163  C     
3    C        17.6926   37.3718   12.1486  C     
4    C        18.3963   38.3735   12.8477  C     
5    C        18.6832   38.2526   14.2374  C     
6    C        18.1567   37.1144   14.8913  C     
7    C        16.4695   35.1421   12.1013  C     
8    C        19.4771   39.3388   14.9126  C     
9    P        19.5818   39.4359   16.5772  P     
10   O        18.3240   39.6550   17.2510  O     
11   O        20.2667   38.1935   17.1738  O     
12   O        20.4642   40.6401   16.9797  O     
13   F        20.7881   39.2490   14.4980  F     
14   F        18.9958   40.5458   14.4668  F     
15   C        16.8622   33.8223   12.5641  C     
16   O        16.1632   33.2586   13.4006  O     
17   N        17.9989   33.2726   12.1475  N     
18   C        18.6062   32.0636   12.6528  C     
19   C        18.5910   30.9515   11.5522  C     
20   C        19.6483   29.9226   11.6462  C     
21   O        20.9537   30.2763   11.6076  O     
22   O        19.3319   28.6259   11.8771  O     
23   C        19.9290   32.3429   13.2152  C     
24   O        20.7316   33.0452   12.6061  O     
25   N        20.2829   31.7578   14.3511  N     
26   C        21.5480   31.8549   15.0212  C     
27   C        22.5540   31.0677   14.3145  C     
28   C        21.3591   31.4078   16.5029  C     
29   C        22.6036   31.4113   17.3195  C     
30   C        23.3675   32.5907   17.4744  C     
31   C        24.5541   32.5869   18.2275  C     
32   C        25.0055   31.4155   18.8781  C     
33   C        24.2172   30.2459   18.7490  C     
34   C        23.0434   30.2414   17.9751  C     
35   C        26.2427   31.4196   19.7211  C     
36   F        26.9670   30.2644   19.5410  F     
37   F        27.1133   32.4290   19.3789  F     
38   P        25.8783   31.5828   21.3378  P     
39   O        25.0023   30.4390   21.8801  O     
40   O        25.2020   32.8164   21.6429  O     
41   O        27.1589   31.5839   22.1883  O     
42   N        22.3617   29.7987   14.0215  N     
43   O        23.6162   31.5727   13.9785  O     
44   H        17.0425   35.3467   14.7487  H     
45   H        17.5340   37.4896   11.1468  H     
46   H        18.7156   39.1930   12.3239  H     
47   H        18.2876   36.9517   15.8841  H     
48   H        15.3964   35.2752   12.2556  H     
49   H        16.6308   35.2004   11.0242  H     
50   H        18.4938   33.7451   11.4554  H     
51   H        18.0039   31.6767   13.4867  H     
52   H        17.6267   30.4433   11.5799  H     
53   H        18.6696   31.4072   10.5621  H     
54   H        19.6234   31.1881   14.7724  H     
55   H        21.8463   32.9093   15.0370  H     
56   H        20.6542   32.0885   16.9852  H     
57   H        20.8914   30.4172   16.5132  H     
58   H        23.0693   33.4644   17.0361  H     
59   H        25.0760   33.4623   18.3084  H     
60   H        24.4882   29.3828   19.2259  H     
61   H        22.5048   29.3757   17.9018  H     
62   H        23.0475   29.3034   13.5443  H     
63   H        21.5213   29.3654   14.2489  H     
@<TRIPOS>BOND
     1    1    2 2
     2    1    6 1
     3    2    3 1
     4    2    7 1
     5    3    4 2
     6    4    5 1
     7    5    6 2
     8    5    8 1
     9    7   15 1
    10    8    9 1
    11    8   13 1
    12    8   14 1
    13    9   10 2
    14    9   11 1
    15    9   12 1
    16   15   16 2
    17   15   17 am
    18   17   18 1
    19   18   19 1
    20   18   23 1
    21   19   20 1
    22   20   21 1
    23   20   22 2
    24   23   24 2
    25   23   25 am
    26   25   26 1
    27   26   27 1
    28   26   28 1
    29   27   42 am
    30   27   43 2
    31   28   29 1
    32   29   30 2
    33   29   34 1
    34   30   31 1
    35   31   32 2
    36   32   33 1
    37   32   35 1
    38   33   34 2
    39   35   36 1
    40   35   37 1
    41   35   38 1
    42   38   39 1
    43   38   40 2
    44   38   41 1
    45    1   44 1
    46    3   45 1
    47    4   46 1
    48    6   47 1
    49    7   48 1
    50    7   49 1
    51   17   50 1
    52   18   51 1
    53   19   52 1
    54   19   53 1
    55   25   54 1
    56   26   55 1
    57   28   56 1
    58   28   57 1
    59   30   58 1
    60   31   59 1
    61   33   60 1
    62   34   61 1
    63   42   62 1
    64   42   63 1
@<TRIPOS>PROPERTY_DATA
  Total_Score	| 14.5390
  Crash		| -2.1143
  Polar		| 11.2319
  FragIndex	| 1
  FragRMSD	| 0.187

