@<TRIPOS>MOLECULE
BindingDB_13471
 58 59 0 0 0
SMALL
NO_CHARGES


@<TRIPOS>ATOM
1    C        22.6476   31.3011   17.2754  C     
2    C        23.0703   30.1502   17.9779  C     
3    C        24.2198   30.1810   18.7908  C     
4    C        25.0015   31.3571   18.9178  C     
5    C        24.5457   32.5187   18.2439  C     
6    C        23.4032   32.4877   17.4263  C     
7    O        25.2044   32.8179   21.6595  O     
8    P        25.8847   31.5808   21.3722  P     
9    O        25.0104   30.4350   21.9004  O     
10   O        27.1679   31.5814   22.2141  O     
11   C        26.2352   31.3895   19.7600  C     
12   F        26.9795   30.2468   19.6121  F     
13   F        27.0863   32.3924   19.3680  F     
14   C        21.4335   31.2635   16.4037  C     
15   N        20.4302   31.6944   14.2129  N     
16   C        19.9470   32.6010   13.3851  C     
17   O        20.5648   33.6481   13.1541  O     
18   C        18.7589   32.2884   12.6077  C     
19   N        18.0356   33.4652   12.2073  N     
20   C        16.8546   33.8897   12.6473  C     
21   O        16.2102   33.2357   13.4669  O     
22   C        16.3141   35.1587   12.1863  C     
23   C        16.8304   36.3375   12.9267  C     
24   C        17.5973   37.3488   15.0304  C     
25   C        17.1725   36.2318   14.2996  C     
26   C        16.8576   37.6306   12.3389  C     
27   C        17.2576   38.7476   13.0685  C     
28   C        17.6416   38.6332   14.4358  C     
29   P        19.5747   39.6512   15.9000  P     
30   O        19.5489   39.0647   17.3339  O     
31   O        20.4549   38.7575   14.9920  O     
32   O        20.2733   40.9259   15.9784  O     
33   C        18.0433   39.8264   15.2426  C     
34   F        18.0439   41.0017   14.5061  F     
35   F        17.1488   40.0600   16.2791  F     
36   C        21.6805   31.7221   14.9295  C     
37   C        22.6438   30.8823   14.2247  C     
38   O        23.7289   31.3353   13.8984  O     
39   N        22.3763   29.6384   13.9076  N     
40   H        22.5456   29.2697   17.8971  H     
41   H        24.4909   29.3220   19.2788  H     
42   H        25.0546   33.3989   18.3270  H     
43   H        23.1078   33.3446   16.9405  H     
44   H        21.0104   30.2541   16.3866  H     
45   H        20.6762   31.9123   16.8618  H     
46   H        19.8978   30.8924   14.3396  H     
47   H        19.0594   31.7561   11.7049  H     
48   H        18.1164   31.6135   13.1904  H     
49   H        18.4660   34.0185   11.5395  H     
50   H        16.5281   35.2306   11.1164  H     
51   H        15.2179   35.1456   12.2849  H     
52   H        17.8406   37.2319   16.0150  H     
53   H        17.1118   35.3296   14.7704  H     
54   H        16.5929   37.7454   11.3571  H     
55   H        17.2855   39.6490   12.6023  H     
56   H        22.0676   32.7603   14.9828  H     
57   H        23.0296   29.1153   13.4249  H     
58   H        21.5222   29.2431   14.1331  H     
@<TRIPOS>BOND
     1    1    2 1
     2    1    6 2
     3    1   14 1
     4    2    3 2
     5    3    4 1
     6    4    5 2
     7    4   11 1
     8    5    6 1
     9    7    8 2
    10    8    9 1
    11    8   10 1
    12    8   11 1
    13   11   12 1
    14   11   13 1
    15   36   14 1
    16   15   16 am
    17   15   36 1
    18   16   17 2
    19   16   18 1
    20   18   19 1
    21   19   20 am
    22   20   21 2
    23   20   22 1
    24   22   23 1
    25   23   25 1
    26   23   26 2
    27   24   25 2
    28   24   28 1
    29   26   27 1
    30   27   28 2
    31   28   33 1
    32   29   30 1
    33   29   31 1
    34   29   32 2
    35   29   33 1
    36   33   34 1
    37   33   35 1
    38   36   37 1
    39   37   38 2
    40   37   39 am
    41    2   40 1
    42    3   41 1
    43    5   42 1
    44    6   43 1
    45   14   44 1
    46   14   45 1
    47   15   46 1
    48   18   47 1
    49   18   48 1
    50   19   49 1
    51   22   50 1
    52   22   51 1
    53   24   52 1
    54   25   53 1
    55   26   54 1
    56   27   55 1
    57   36   56 1
    58   39   57 1
    59   39   58 1
@<TRIPOS>PROPERTY_DATA
  Total_Score	| 14.6508
  Crash		| -1.3046
  Polar		| 11.9455
  FragIndex	| 1
  FragRMSD	| 0.161

