@<TRIPOS>MOLECULE
BindingDB_13468
 54 55 0 0 0
SMALL
NO_CHARGES


@<TRIPOS>ATOM
1    C        17.2060   35.8542   12.6035  C     
2    C        17.3464   35.7858   14.0104  C     
3    C        18.0927   36.7521   14.7110  C     
4    C        18.6971   37.8101   14.0111  C     
5    C        18.5546   37.9036   12.6143  C     
6    C        17.8084   36.9365   11.9174  C     
7    C        16.4608   34.7964   11.8640  C     
8    C        17.3393   33.8700   10.9503  C     
9    C        17.5186   34.4100    9.6033  C     
10   O        16.7642   34.0872    8.6972  O     
11   N        18.4768   35.2606    9.2954  N     
12   N        18.6151   33.5285   11.5294  N     
13   C        18.8583   33.1046   12.7655  C     
14   O        17.9286   32.9848   13.5599  O     
15   C        20.2381   32.8626   13.1874  C     
16   N        20.3635   32.0720   14.3801  N     
17   C        21.4349   32.0017   15.1675  C     
18   O        22.4695   32.5606   14.8248  O     
19   C        21.3395   31.2789   16.4362  C     
20   C        22.5644   31.2935   17.2918  C     
21   C        24.1706   30.1406   18.7433  C     
22   C        23.0173   30.1135   17.9398  C     
23   C        23.2733   32.4887   17.5126  C     
24   C        24.4390   32.5118   18.3125  C     
25   C        24.9233   31.3323   18.9283  C     
26   P        25.8556   31.5820   21.3776  P     
27   O        25.0057   30.4424   21.9575  O     
28   O        27.1572   31.5832   22.1918  O     
29   O        25.1903   32.8244   21.6728  O     
30   C        26.1657   31.3575   19.7565  C     
31   F        26.8987   30.1983   19.6308  F     
32   F        27.0229   32.3526   19.3425  F     
33   C        21.0090   32.2455   12.0825  C     
34   O        21.9967   32.9427   11.4696  O     
35   O        20.6914   31.0207   11.6047  O     
36   H        16.9206   35.0204   14.5375  H     
37   H        18.1994   36.6798   15.7215  H     
38   H        19.2422   38.5104   14.5144  H     
39   H        18.9949   38.6690   12.1055  H     
40   H        17.7011   37.0281   10.9070  H     
41   H        15.9424   34.1479   12.5770  H     
42   H        15.6671   35.2691   11.2734  H     
43   H        16.8005   32.9216   10.8312  H     
44   H        18.5566   35.5901    8.3803  H     
45   H        19.0987   35.5638    9.9678  H     
46   H        19.3909   33.6226   10.9581  H     
47   H        20.6648   33.8524   13.4101  H     
48   H        19.5769   31.5692   14.6656  H     
49   H        20.5342   31.7282   17.0227  H     
50   H        21.0293   30.2541   16.2076  H     
51   H        24.4529   29.2738   19.2031  H     
52   H        22.5103   29.2390   17.8203  H     
53   H        22.9696   33.3586   17.0749  H     
54   H        24.9114   33.4042   18.4512  H     
@<TRIPOS>BOND
     1    1    2 1
     2    1    6 2
     3    1    7 1
     4    2    3 2
     5    3    4 1
     6    4    5 2
     7    5    6 1
     8    8    7 1
     9    8    9 1
    10    8   12 1
    11    9   10 2
    12    9   11 am
    13   12   13 am
    14   13   14 2
    15   13   15 1
    16   15   16 1
    17   15   33 1
    18   16   17 am
    19   17   18 2
    20   17   19 1
    21   19   20 1
    22   20   22 1
    23   20   23 2
    24   21   22 2
    25   21   25 1
    26   23   24 1
    27   24   25 2
    28   25   30 1
    29   26   27 1
    30   26   28 1
    31   26   29 2
    32   26   30 1
    33   30   31 1
    34   30   32 1
    35   33   34 2
    36   33   35 1
    37    2   36 1
    38    3   37 1
    39    4   38 1
    40    5   39 1
    41    6   40 1
    42    7   41 1
    43    7   42 1
    44    8   43 1
    45   11   44 1
    46   11   45 1
    47   12   46 1
    48   15   47 1
    49   16   48 1
    50   19   49 1
    51   19   50 1
    52   21   51 1
    53   22   52 1
    54   23   53 1
    55   24   54 1
@<TRIPOS>PROPERTY_DATA
  Total_Score	| 12.2168
  Crash		| -1.6189
  Polar		| 9.4606
  FragIndex	| 1
  FragRMSD	| 0.522

