@<TRIPOS>MOLECULE
BindingDB_50379185
 29 29 0 0 0
SMALL
NO_CHARGES


@<TRIPOS>ATOM
1    N        20.6590   31.0113   14.0896  N     
2    C        21.6635   31.6602   14.9550  C     
3    C        23.0047   31.3007   14.4403  C     
4    O        23.9189   32.2597   14.1821  O     
5    O        23.3718   30.0096   14.2981  O     
6    C        21.4139   31.2723   16.4476  C     
7    C        22.6050   31.3494   17.3407  C     
8    C        23.0599   30.1939   18.0133  C     
9    C        23.3342   32.5490   17.5015  C     
10   C        24.2252   30.2209   18.7901  C     
11   C        24.5185   32.5701   18.2678  C     
12   C        24.9916   31.4056   18.9193  C     
13   C        26.2320   31.4101   19.7513  C     
14   F        26.9476   30.2434   19.5838  F     
15   F        27.1097   32.4082   19.3858  F     
16   P        25.8758   31.5987   21.3692  P     
17   O        25.2041   32.8335   21.6722  O     
18   O        25.0200   30.4569   21.9420  O     
19   O        27.1645   31.5957   22.2053  O     
20   H        20.7502   31.3427   13.1274  H     
21   H        19.7134   31.2045   14.4239  H     
22   H        20.7929   30.0007   14.1142  H     
23   H        21.5281   32.7436   14.8494  H     
24   H        20.6430   31.9323   16.8506  H     
25   H        20.9945   30.2632   16.4660  H     
26   H        22.5415   29.3129   17.9397  H     
27   H        23.0144   33.4109   17.0579  H     
28   H        24.5188   29.3614   19.2558  H     
29   H        25.0335   33.4510   18.3432  H     
@<TRIPOS>BOND
     1    2    1 1
     2    2    3 1
     3    2    6 1
     4    3    4 2
     5    3    5 1
     6    6    7 1
     7    7    8 2
     8    7    9 1
     9    8   10 1
    10    9   11 2
    11   10   12 2
    12   11   12 1
    13   12   13 1
    14   13   14 1
    15   13   15 1
    16   13   16 1
    17   16   17 2
    18   16   18 1
    19   16   19 1
    20    1   20 1
    21    1   21 1
    22    1   22 1
    23    2   23 1
    24    6   24 1
    25    6   25 1
    26    8   26 1
    27    9   27 1
    28   10   28 1
    29   11   29 1
@<TRIPOS>PROPERTY_DATA
  Total_Score	| 11.0006
  Crash		| -0.5891
  Polar		| 8.4036
  FragIndex	| 1
  FragRMSD	| 0.313

