@<TRIPOS>MOLECULE
BindingDB_13470
 67 69 0 0 0
SMALL
NO_CHARGES


@<TRIPOS>ATOM
1    C        22.6008   31.2822   17.3147  C     
2    C        23.0793   30.1181   17.9590  C     
3    C        24.2447   30.1574   18.7411  C     
4    C        24.9728   31.3603   18.9150  C     
5    C        24.4662   32.5325   18.3009  C     
6    C        23.3058   32.4925   17.5049  C     
7    O        25.2056   32.8422   21.6537  O     
8    P        25.8761   31.5971   21.3630  P     
9    O        25.0072   30.4604   21.9307  O     
10   O        27.1727   31.6066   22.1884  O     
11   C        26.2176   31.4016   19.7465  C     
12   F        26.9684   30.2572   19.5982  F     
13   F        27.0611   32.4140   19.3500  F     
14   C        21.3710   31.2531   16.4739  C     
15   C        21.5969   31.8428   15.0562  C     
16   N        20.4127   31.7164   14.2620  N     
17   C        19.9388   32.5847   13.3736  C     
18   O        20.5441   33.6206   13.1295  O     
19   C        18.7486   32.2336   12.5949  C     
20   C        19.0928   31.3687   11.3301  C     
21   C        18.4192   30.0375   11.2774  C     
22   C        17.1437   27.5161   11.0072  C     
23   C        18.5330   27.5861   11.2039  C     
24   C        19.1656   28.8363   11.3369  C     
25   C        17.0182   29.9490   11.0929  C     
26   C        16.3853   28.6982   10.9540  C     
27   N        18.0294   33.4175   12.1925  N     
28   C        16.8550   33.8460   12.6391  C     
29   O        16.2280   33.2201   13.4935  O     
30   C        16.3260   35.1229   12.1893  C     
31   C        16.8323   36.3028   12.9548  C     
32   C        17.2359   38.7233   13.0830  C     
33   C        16.8459   37.5890   12.3574  C     
34   C        17.2089   36.2086   14.3129  C     
35   C        17.6099   37.3429   15.0350  C     
36   C        17.6462   38.6272   14.4378  C     
37   P        19.5748   39.7145   15.9010  P     
38   O        19.5712   39.1077   17.3242  O     
39   O        20.4938   38.8577   15.0019  O     
40   O        20.2006   41.0091   16.0356  O     
41   C        18.0373   39.8271   15.2477  C     
42   F        17.9971   41.0027   14.5264  F     
43   F        17.1342   39.9947   16.2751  F     
44   H        22.5827   29.2279   17.8542  H     
45   H        24.5570   29.2936   19.1931  H     
46   H        24.9381   33.4307   18.4294  H     
47   H        22.9651   33.3591   17.0745  H     
48   H        20.9996   30.2260   16.3706  H     
49   H        20.5935   31.8228   16.9876  H     
50   H        21.9240   32.8826   15.1428  H     
51   H        22.3858   31.2767   14.5582  H     
52   H        19.9012   30.9017   14.3937  H     
53   H        18.1170   31.6435   13.2626  H     
54   H        18.8078   31.9066   10.4223  H     
55   H        20.1759   31.2378   11.2547  H     
56   H        16.6846   26.6077   10.9008  H     
57   H        19.0842   26.7243   11.2359  H     
58   H        20.1806   28.8615   11.4590  H     
59   H        16.4540   30.7952   11.0345  H     
60   H        15.3757   28.6467   10.8134  H     
61   H        18.4643   33.9783   11.5308  H     
62   H        16.5631   35.2225   11.1202  H     
63   H        15.2318   35.1226   12.2746  H     
64   H        17.2227   39.6230   12.6035  H     
65   H        16.5431   37.6947   11.3812  H     
66   H        17.1825   35.3099   14.7933  H     
67   H        17.8834   37.2321   16.0124  H     
@<TRIPOS>BOND
     1    1    2 1
     2    1    6 2
     3    1   14 1
     4    2    3 2
     5    3    4 1
     6    4    5 2
     7    4   11 1
     8    5    6 1
     9    7    8 2
    10    8    9 1
    11    8   10 1
    12    8   11 1
    13   11   12 1
    14   11   13 1
    15   14   15 1
    16   15   16 1
    17   16   17 am
    18   17   18 2
    19   17   19 1
    20   19   20 1
    21   19   27 1
    22   20   21 1
    23   21   24 1
    24   21   25 2
    25   22   23 1
    26   22   26 2
    27   23   24 2
    28   25   26 1
    29   27   28 am
    30   28   29 2
    31   28   30 1
    32   30   31 1
    33   31   33 1
    34   31   34 2
    35   32   33 2
    36   32   36 1
    37   34   35 1
    38   35   36 2
    39   36   41 1
    40   37   38 1
    41   37   39 1
    42   37   40 2
    43   37   41 1
    44   41   42 1
    45   41   43 1
    46    2   44 1
    47    3   45 1
    48    5   46 1
    49    6   47 1
    50   14   48 1
    51   14   49 1
    52   15   50 1
    53   15   51 1
    54   16   52 1
    55   19   53 1
    56   20   54 1
    57   20   55 1
    58   22   56 1
    59   23   57 1
    60   24   58 1
    61   25   59 1
    62   26   60 1
    63   27   61 1
    64   30   62 1
    65   30   63 1
    66   32   64 1
    67   33   65 1
    68   34   66 1
    69   35   67 1
@<TRIPOS>PROPERTY_DATA
  Total_Score	| 14.9412
  Crash		| -1.7214
  Polar		| 10.5321
  FragIndex	| 1
  FragRMSD	| 0.144

