@<TRIPOS>MOLECULE
BindingDB_50341987
 109 110 0 0 0
SMALL
NO_CHARGES


@<TRIPOS>ATOM
1    C        17.5677   36.7045   11.6233  C     
2    C        17.5361   37.4888   10.4528  C     
3    C        16.3640   37.5691    9.6596  C     
4    C        15.2463   36.7954   10.0668  C     
5    C        15.2990   35.9844   11.2156  C     
6    C        16.4513   35.9329   12.0346  C     
7    C        16.5221   35.0901   13.2782  C     
8    C        16.9669   33.7190   13.0276  C     
9    O        16.2750   32.7760   13.3926  O     
10   N        18.1814   33.4946   12.5387  N     
11   C        18.8557   32.2225   12.4239  C     
12   C        20.1829   32.3385   13.0198  C     
13   N        20.4270   31.7905   14.2085  N     
14   O        21.0444   32.9993   12.4506  O     
15   C        21.6612   31.8301   14.9404  C     
16   C        22.6675   31.0278   14.2529  C     
17   N        22.4600   29.7636   13.9566  N     
18   O        23.7466   31.5110   13.9390  O     
19   C        16.2976   38.4092    8.4224  C     
20   P        16.6346   37.5234    7.0465  P     
21   F        15.0481   38.9808    8.2811  F     
22   F        17.1766   39.4714    8.4641  F     
23   O        18.0651   36.9366    7.1032  O     
24   O        16.5434   38.3459    5.8649  O     
25   O        15.6422   36.3507    6.8769  O     
26   C        18.8438   31.7083   10.9517  C     
27   C        19.3242   32.6535    9.9294  C     
28   O        20.6175   33.0397    9.8789  O     
29   O        18.4879   33.0993    8.9572  O     
30   C        21.3992   31.3563   16.4059  C     
31   C        22.6060   31.3926   17.2809  C     
32   C        23.3306   32.5926   17.4525  C     
33   C        24.4919   32.6245   18.2435  C     
34   C        24.9782   31.4627   18.8926  C     
35   C        24.2213   30.2716   18.7438  C     
36   C        23.0572   30.2357   17.9539  C     
37   C        26.2263   31.4894   19.7179  C     
38   P        25.9066   31.6043   21.3472  P     
39   F        26.9804   30.3597   19.5037  F     
40   F        27.0494   32.5390   19.3764  F     
41   O        25.1473   32.8871   21.7138  O     
42   O        25.0964   30.4194   21.9002  O     
43   O        27.1228   31.6616   22.1188  O     
44   N        15.3596   35.2235   14.1325  N     
45   C        14.1203   34.7622   13.9771  C     
46   C        13.1495   34.8916   15.0526  C     
47   O        13.7860   34.1222   12.9817  O     
48   C        12.8782   36.3677   15.4791  C     
49   C        11.3904   36.6341   15.8638  C     
50   C        10.4556   36.8574   14.6345  C     
51   C         9.9971   38.3265   14.4049  C     
52   C         9.2149   38.9666   15.6072  C     
53   C         9.6270   40.4384   15.9147  C     
54   C        11.1079   40.6125   16.3820  C     
55   C        11.3513   41.0422   17.8611  C     
56   C        12.0885   40.0251   18.7780  C     
57   C        13.3414   39.2816   18.2053  C     
58   C        14.4089   40.1757   17.5170  C     
59   C        15.7435   39.4151   17.3093  C     
60   C        16.9886   40.2305   17.7410  C     
61   H        18.4381   36.6840   12.1622  H     
62   H        18.3750   38.0047   10.1828  H     
63   H        14.3841   36.8096    9.5204  H     
64   H        14.4817   35.4282   11.4361  H     
65   H        17.3162   35.5013   13.9091  H     
66   H        18.6902   34.2737   12.2658  H     
67   H        18.3077   31.4641   12.9864  H     
68   H        19.6928   31.3247   14.6359  H     
69   H        21.9984   32.8731   14.9973  H     
70   H        23.1469   29.2528   13.5013  H     
71   H        21.6214   29.3371   14.1894  H     
72   H        19.4333   30.7921   10.8781  H     
73   H        17.8126   31.4418   10.6968  H     
74   H        20.6441   32.0071   16.8529  H     
75   H        20.9662   30.3516   16.3790  H     
76   H        23.0233   33.4546   16.9962  H     
77   H        24.9844   33.5148   18.3413  H     
78   H        24.5192   29.4096   19.2065  H     
79   H        22.5477   29.3545   17.8654  H     
80   H        15.5411   35.6309   14.9945  H     
81   H        12.2016   34.4287   14.7543  H     
82   H        13.5099   34.3233   15.9200  H     
83   H        13.5101   36.5836   16.3529  H     
84   H        13.1822   37.0575   14.6816  H     
85   H        11.0104   35.7844   16.4425  H     
86   H        11.3586   37.4990   16.5285  H     
87   H        10.9647   36.5131   13.7263  H     
88   H         9.5670   36.2429   14.7499  H     
89   H        10.8759   38.9170   14.1416  H     
90   H         9.3434   38.3447   13.5294  H     
91   H         8.1449   38.9487   15.3852  H     
92   H         9.3482   38.3837   16.5244  H     
93   H         9.4653   41.0344   15.0063  H     
94   H         8.9373   40.8438   16.6695  H     
95   H        11.6386   39.6774   16.1956  H     
96   H        11.5814   41.3563   15.7328  H     
97   H        11.9156   41.9837   17.8714  H     
98   H        10.3894   41.2617   18.3448  H     
99   H        12.3939   40.5511   19.6902  H     
100  H        11.3584   39.2660   19.0949  H     
101  H        13.8049   38.7500   19.0383  H     
102  H        13.0178   38.5253   17.4919  H     
103  H        14.0424   40.5060   16.5472  H     
104  H        14.5834   41.0620   18.1290  H     
105  H        15.7407   38.4869   17.8834  H     
106  H        15.8513   39.1520   16.2564  H     
107  H        17.0481   41.1547   17.1632  H     
108  H        17.8974   39.6429   17.5658  H     
109  H        16.9469   40.4780   18.8067  H     
@<TRIPOS>BOND
     1    1    2 2
     2    1    6 1
     3    2    3 1
     4    3    4 2
     5    3   19 1
     6    4    5 1
     7    5    6 2
     8    6    7 1
     9    7    8 1
    10    7   44 1
    11    8    9 2
    12    8   10 am
    13   10   11 1
    14   11   12 1
    15   11   26 1
    16   12   13 am
    17   12   14 2
    18   13   15 1
    19   15   16 1
    20   15   30 1
    21   16   17 am
    22   16   18 2
    23   19   20 1
    24   19   21 1
    25   19   22 1
    26   20   23 1
    27   20   24 2
    28   20   25 1
    29   26   27 1
    30   27   28 2
    31   27   29 1
    32   30   31 1
    33   31   32 2
    34   31   36 1
    35   32   33 1
    36   33   34 2
    37   34   35 1
    38   34   37 1
    39   35   36 2
    40   37   38 1
    41   37   39 1
    42   37   40 1
    43   38   41 1
    44   38   42 1
    45   38   43 2
    46   44   45 am
    47   45   46 1
    48   45   47 2
    49   46   48 1
    50   48   49 1
    51   49   50 1
    52   50   51 1
    53   51   52 1
    54   52   53 1
    55   53   54 1
    56   54   55 1
    57   55   56 1
    58   56   57 1
    59   57   58 1
    60   58   59 1
    61   59   60 1
    62    1   61 1
    63    2   62 1
    64    4   63 1
    65    5   64 1
    66    7   65 1
    67   10   66 1
    68   11   67 1
    69   13   68 1
    70   15   69 1
    71   17   70 1
    72   17   71 1
    73   26   72 1
    74   26   73 1
    75   30   74 1
    76   30   75 1
    77   32   76 1
    78   33   77 1
    79   35   78 1
    80   36   79 1
    81   44   80 1
    82   46   81 1
    83   46   82 1
    84   48   83 1
    85   48   84 1
    86   49   85 1
    87   49   86 1
    88   50   87 1
    89   50   88 1
    90   51   89 1
    91   51   90 1
    92   52   91 1
    93   52   92 1
    94   53   93 1
    95   53   94 1
    96   54   95 1
    97   54   96 1
    98   55   97 1
    99   55   98 1
   100   56   99 1
   101   56  100 1
   102   57  101 1
   103   57  102 1
   104   58  103 1
   105   58  104 1
   106   59  105 1
   107   59  106 1
   108   60  107 1
   109   60  108 1
   110   60  109 1
@<TRIPOS>PROPERTY_DATA
  Total_Score	| 16.2671
  Crash		| -2.4205
  Polar		| 12.5136
  FragIndex	| 1
  FragRMSD	| 0.908

