@<TRIPOS>MOLECULE
BindingDB_50131104
 105 109 0 0 0
SMALL
NO_CHARGES


@<TRIPOS>ATOM
1    P        25.8897   31.6249   21.4293  P     
2    C        26.2379   31.4813   19.8075  C     
3    C        17.6571   36.6747   11.5984  C     
4    C        18.7261   37.0782   13.6885  C     
5    C        19.7154   36.6875   12.7995  C     
6    C        19.1238   36.4750   11.5472  C     
7    C        17.5018   37.0900   13.0080  C     
8    C        22.8145   30.7351   14.4426  C     
9    C        20.2766   32.1266   13.0302  C     
10   N        20.5702   31.4800   14.1549  N     
11   N        22.5906   29.4242   14.3132  N     
12   C        17.1673   33.3738   12.7474  C     
13   C        21.7697   31.6295   14.9350  C     
14   C        23.5204   28.4375   13.8114  C     
15   C        22.9868   27.6910   12.6737  C     
16   N        17.9248   32.2852   13.0030  N     
17   C        16.8356   35.3989   11.2551  C     
18   C        24.9982   31.4865   18.9705  C     
19   C        19.0652   31.7653   12.2961  C     
20   O        25.2142   32.8593   21.7373  O     
21   C        19.5521   29.8893    9.4368  C     
22   O        17.4807   34.2145   11.7319  O     
23   O        23.8947   31.2274   14.1339  O     
24   O        21.0230   33.0067   12.6130  O     
25   C        21.4505   31.4006   16.4443  C     
26   O        16.1082   33.6136   13.5524  O     
27   O        23.7570   27.2355   11.8411  O     
28   F        26.9488   30.3194   19.6010  F     
29   F        27.1111   32.4940   19.4757  F     
30   C        24.0853   27.5285   14.9539  C     
31   O        25.0156   30.4823   21.9789  O     
32   O        27.1775   31.6224   22.2671  O     
33   O        19.7533   29.5894    8.1256  O     
34   O        18.7851   29.0769   10.2152  O     
35   C        19.1141   32.0341   10.7545  C     
36   C        24.2719   30.2848   18.7543  C     
37   C        24.4911   32.6741   18.3861  C     
38   N        21.7054   27.4933   12.4513  N     
39   C        20.1250   31.1346    9.9778  C     
40   C        22.6368   31.4457   17.3454  C     
41   C        18.1952   27.8422    9.7939  C     
42   C        23.3305   32.6572   17.5891  C     
43   C        23.1146   30.2717   17.9612  C     
44   C        21.1010   36.5097   12.9860  C     
45   C        18.8029   37.4740   15.0371  C     
46   C        16.3246   37.5041   13.6602  C     
47   C        19.9132   36.0932   10.4441  C     
48   C        17.1118   27.4481   10.7205  C     
49   C        23.2481   26.3730   15.6054  C     
50   C        17.1621   26.2277   11.4341  C     
51   C        15.9724   28.2764   10.8655  C     
52   C        22.6131   26.7553   16.9675  C     
53   C        22.1889   25.7189   14.6750  C     
54   C        21.3006   35.9178   10.6200  C     
55   C        21.8917   36.1246   11.8824  C     
56   C        17.6222   37.8736   15.6999  C     
57   C        16.3906   37.8935   15.0117  C     
58   C        14.9015   27.8843   11.6920  C     
59   C        16.0923   25.8374   12.2608  C     
60   C        14.9602   26.6632   12.3856  C     
61   H        17.3662   37.5011   10.9408  H     
62   H        19.9367   30.8127   14.4580  H     
63   H        21.6915   29.1155   14.5165  H     
64   H        22.0953   32.6721   14.8426  H     
65   H        24.3990   28.9557   13.4112  H     
66   H        17.6894   31.7836   13.7939  H     
67   H        15.8130   35.4803   11.6355  H     
68   H        16.7655   35.3098   10.1705  H     
69   H        18.9537   30.6796   12.3851  H     
70   H        20.7603   32.1790   16.7744  H     
71   H        20.9205   30.4487   16.5467  H     
72   H        25.0042   27.0754   14.5720  H     
73   H        24.4089   28.1969   15.7602  H     
74   H        18.1136   31.9087   10.3266  H     
75   H        19.4013   33.0746   10.5851  H     
76   H        24.5820   29.4074   19.1832  H     
77   H        24.9571   33.5691   18.5435  H     
78   H        21.4257   26.9978   11.6674  H     
79   H        21.0374   27.8284   13.0689  H     
80   H        20.9668   30.8635   10.6174  H     
81   H        20.5358   31.7141    9.1440  H     
82   H        17.7627   27.9482    8.7951  H     
83   H        18.9830   27.0860    9.7398  H     
84   H        22.9931   33.5348   17.1880  H     
85   H        22.6088   29.3905   17.8452  H     
86   H        21.5308   36.6553   13.9003  H     
87   H        19.6969   37.4967   15.5272  H     
88   H        15.4359   37.5325   13.1574  H     
89   H        19.4843   35.9369    9.5301  H     
90   H        23.9656   25.5759   15.8378  H     
91   H        17.9712   25.6081   11.3465  H     
92   H        15.9124   29.1649   10.3615  H     
93   H        23.4001   27.0366   17.6719  H     
94   H        22.0758   25.9060   17.3975  H     
95   H        21.9176   27.5863   16.8584  H     
96   H        21.3505   26.3959   14.5092  H     
97   H        21.8063   24.8007   15.1226  H     
98   H        22.6379   25.4599   13.7152  H     
99   H        21.8817   35.6370    9.8253  H     
100  H        22.9005   35.9934   12.0019  H     
101  H        17.6615   38.1608   16.6802  H     
102  H        15.5423   38.1990   15.4928  H     
103  H        14.0774   28.4848   11.7828  H     
104  H        16.1344   24.9481   12.7640  H     
105  H        14.1811   26.3760   12.9836  H     
@<TRIPOS>BOND
     1    1    2 1
     2    1   20 2
     3    1   31 1
     4    1   32 1
     5    2   18 1
     6    2   28 1
     7    2   29 1
     8    3    6 1
     9    3    7 1
    10    3   17 1
    11    4    5 1
    12    4    7 2
    13    4   45 1
    14    5    6 2
    15    5   44 1
    16    6   47 1
    17    7   46 1
    18    8   11 am
    19    8   13 1
    20    8   23 2
    21    9   10 am
    22    9   19 1
    23    9   24 2
    24   10   13 1
    25   11   14 1
    26   12   16 am
    27   12   22 1
    28   12   26 2
    29   13   25 1
    30   14   15 1
    31   14   30 1
    32   15   27 2
    33   15   38 am
    34   16   19 1
    35   17   22 1
    36   18   36 2
    37   18   37 1
    38   19   35 1
    39   21   33 2
    40   21   34 1
    41   21   39 1
    42   25   40 1
    43   30   49 1
    44   34   41 1
    45   35   39 1
    46   36   43 1
    47   37   42 2
    48   40   42 1
    49   40   43 2
    50   41   48 1
    51   44   55 2
    52   45   56 2
    53   46   57 2
    54   47   54 2
    55   48   50 2
    56   48   51 1
    57   49   52 1
    58   49   53 1
    59   50   59 1
    60   51   58 2
    61   54   55 1
    62   56   57 1
    63   58   60 1
    64   59   60 2
    65    3   61 1
    66   10   62 1
    67   11   63 1
    68   13   64 1
    69   14   65 1
    70   16   66 1
    71   17   67 1
    72   17   68 1
    73   19   69 1
    74   25   70 1
    75   25   71 1
    76   30   72 1
    77   30   73 1
    78   35   74 1
    79   35   75 1
    80   36   76 1
    81   37   77 1
    82   38   78 1
    83   38   79 1
    84   39   80 1
    85   39   81 1
    86   41   82 1
    87   41   83 1
    88   42   84 1
    89   43   85 1
    90   44   86 1
    91   45   87 1
    92   46   88 1
    93   47   89 1
    94   49   90 1
    95   50   91 1
    96   51   92 1
    97   52   93 1
    98   52   94 1
    99   52   95 1
   100   53   96 1
   101   53   97 1
   102   53   98 1
   103   54   99 1
   104   55  100 1
   105   56  101 1
   106   57  102 1
   107   58  103 1
   108   59  104 1
   109   60  105 1
@<TRIPOS>PROPERTY_DATA
  Total_Score	| 16.1406
  Crash		| -1.9979
  Polar		| 12.1771
  FragIndex	| 1
  FragRMSD	| 0.717

