@<TRIPOS>MOLECULE
BindingDB_17147
 45 48 0 0 0
SMALL
NO_CHARGES


@<TRIPOS>ATOM
1    C        73.9475   54.5747   16.5229  C     
2    C        71.8391   54.5327   15.8839  C     
3    C        73.5315   55.7567   17.0513  C     
4    O        75.0921   54.1381   16.5370  O     
5    N        73.0131   53.8998   15.8984  N     
6    N        70.7421   54.0459   15.2825  N     
7    S        71.8776   56.0597   16.6905  S     
8    C        74.2923   56.5481   17.8354  C     
9    C        73.9429   57.7668   18.4083  C     
10   C        74.7123   58.3986   19.3786  C     
11   C        74.0551   59.5540   19.7546  C     
12   C        72.9017   59.6652   18.9892  C     
13   O        72.8594   58.5632   18.1841  O     
14   C        71.9217   60.7146   19.0333  C     
15   C        69.8774   62.7422   19.0949  C     
16   C        70.9565   62.8054   20.0169  C     
17   C        71.9711   61.8067   19.9535  C     
18   C        70.8334   60.6954   18.1378  C     
19   C        69.8439   61.6938   18.1506  C     
20   O        68.8409   64.6502   17.5617  O     
21   O        67.2224   63.1665   18.6194  O     
22   S        68.5873   63.9249   18.9599  S     
23   C        68.7120   67.4073   21.0019  C     
24   C        69.1589   66.2553   20.0629  C     
25   C        67.5725   64.7973   21.3186  C     
26   C        67.1603   66.0147   22.1881  C     
27   N        68.2553   65.1481   20.0966  N     
28   O        68.2720   66.9202   22.2789  O     
29   H        73.1663   53.0441   15.4638  H     
30   H        69.9224   54.5611   15.2900  H     
31   H        75.2061   56.2116   18.0523  H     
32   H        75.6006   58.0641   19.7753  H     
33   H        74.3793   60.1953   20.4779  H     
34   H        71.0280   63.5562   20.7613  H     
35   H        72.7487   61.8939   20.6220  H     
36   H        70.7508   59.9341   17.4517  H     
37   H        69.0815   61.6477   17.4552  H     
38   H        69.5565   68.0758   21.1712  H     
39   H        67.8975   67.9668   20.5119  H     
40   H        69.2153   66.6632   19.0512  H     
41   H        70.1689   65.8735   20.2710  H     
42   H        68.2554   64.1853   21.9166  H     
43   H        66.6694   64.2199   21.1086  H     
44   H        66.2687   66.5155   21.7924  H     
45   H        66.9202   65.6750   23.1974  H     
@<TRIPOS>BOND
     1    1    3 1
     2    1    4 2
     3    1    5 1
     4    2    5 1
     5    2    6 2
     6    2    7 1
     7    3    7 1
     8    3    8 2
     9    8    9 1
    10    9   10 2
    11    9   13 1
    12   10   11 1
    13   11   12 2
    14   12   13 1
    15   12   14 1
    16   14   17 1
    17   14   18 2
    18   15   16 1
    19   15   19 2
    20   15   22 1
    21   16   17 2
    22   18   19 1
    23   20   22 2
    24   21   22 2
    25   22   27 1
    26   23   24 1
    27   23   28 1
    28   24   27 1
    29   25   26 1
    30   25   27 1
    31   26   28 1
    32    5   29 1
    33    6   30 1
    34    8   31 1
    35   10   32 1
    36   11   33 1
    37   16   34 1
    38   17   35 1
    39   18   36 1
    40   19   37 1
    41   23   38 1
    42   23   39 1
    43   24   40 1
    44   24   41 1
    45   25   42 1
    46   25   43 1
    47   26   44 1
    48   26   45 1
@<TRIPOS>PROPERTY_DATA
  Total_Score	| 6.8953
  Crash		| -1.5043
  Polar		| 1.0397
  FragIndex	| 1
  FragRMSD	| 0.391

