@<TRIPOS>MOLECULE
BindingDB_17148
 33 35 0 0 0
SMALL
NO_CHARGES


@<TRIPOS>ATOM
1    C        73.7991   54.8846   16.6389  C     
2    C        71.7090   54.8941   15.9364  C     
3    C        73.3894   56.0622   17.1746  C     
4    O        74.9203   54.4035   16.7290  O     
5    N        72.8757   54.2476   15.9669  N     
6    N        70.6233   54.4205   15.3065  N     
7    S        71.7479   56.3980   16.7872  S     
8    C        74.1643   56.8297   17.9706  C     
9    C        73.8402   58.0498   18.5480  C     
10   C        74.6040   58.6871   19.5236  C     
11   C        73.9610   59.8667   19.8545  C     
12   C        72.8220   59.9656   19.0556  C     
13   O        72.7769   58.8509   18.2766  O     
14   C        71.8821   61.0324   19.0018  C     
15   C        70.0101   63.2081   18.8026  C     
16   C        70.9527   63.1418   19.8564  C     
17   C        71.8791   62.0864   19.9440  C     
18   C        70.9235   61.0811   17.9650  C     
19   C        70.0226   62.1576   17.8536  C     
20   C        69.1012   64.2645   18.6994  C     
21   O        68.5558   64.5368   17.6385  O     
22   N        68.7553   65.0135   19.7256  N     
23   H        73.0272   53.3918   15.5343  H     
24   H        69.7957   54.9271   15.3105  H     
25   H        75.0739   56.4846   18.1877  H     
26   H        75.4773   58.3507   19.9349  H     
27   H        74.2961   60.5414   20.5439  H     
28   H        70.9990   63.8807   20.5626  H     
29   H        72.5496   62.1020   20.7156  H     
30   H        70.8802   60.3379   17.2634  H     
31   H        69.3576   62.1528   17.0745  H     
32   H        68.1106   65.7294   19.6075  H     
33   H        69.1277   64.8457   20.6061  H     
@<TRIPOS>BOND
     1    1    3 1
     2    1    4 2
     3    1    5 1
     4    2    5 1
     5    2    6 2
     6    2    7 1
     7    3    7 1
     8    3    8 2
     9    8    9 1
    10    9   10 2
    11    9   13 1
    12   10   11 1
    13   11   12 2
    14   12   13 1
    15   12   14 1
    16   14   17 1
    17   14   18 2
    18   15   16 1
    19   15   19 2
    20   15   20 1
    21   16   17 2
    22   18   19 1
    23   20   21 2
    24   20   22 am
    25    5   23 1
    26    6   24 1
    27    8   25 1
    28   10   26 1
    29   11   27 1
    30   16   28 1
    31   17   29 1
    32   18   30 1
    33   19   31 1
    34   22   32 1
    35   22   33 1
@<TRIPOS>PROPERTY_DATA
  Total_Score	| 6.1588
  Crash		| -0.7361
  Polar		| 1.7678
  FragIndex	| 1
  FragRMSD	| 0.464

