@<TRIPOS>MOLECULE
BindingDB_17150
 34 36 0 0 0
SMALL
NO_CHARGES


@<TRIPOS>ATOM
1    C        73.8186   54.7402   16.4793  C     
2    C        71.6787   54.7637   15.9542  C     
3    C        73.4519   55.9003   17.0813  C     
4    O        74.9488   54.2683   16.4616  O     
5    N        72.8485   54.1214   15.8635  N     
6    N        70.5332   54.3286   15.4090  N     
7    S        71.7846   56.2388   16.8441  S     
8    C        74.2757   56.6481   17.8406  C     
9    C        73.9871   57.8515   18.4708  C     
10   C        74.7882   58.4212   19.4557  C     
11   C        74.1725   59.5886   19.8766  C     
12   C        73.0131   59.7556   19.1212  C     
13   O        72.9280   58.6855   18.2845  O     
14   C        72.0757   60.8256   19.1730  C     
15   C        70.1694   62.9598   19.2641  C     
16   C        70.0504   61.9119   18.3247  C     
17   C        70.9797   60.8565   18.2871  C     
18   C        72.1912   61.8813   20.1128  C     
19   C        71.2377   62.9241   20.1884  C     
20   S        68.9518   64.2106   19.2188  S     
21   O        69.3766   65.5581   19.9542  O     
22   O        68.6760   64.5551   17.6903  O     
23   N        67.5399   63.6321   19.9266  N     
24   Cl       71.4402   64.0396   21.4539  Cl    
25   H        72.9659   53.2820   15.3910  H     
26   H        70.5013   53.5048   14.9025  H     
27   H        75.1950   56.2934   17.9979  H     
28   H        75.6664   58.0448   19.8238  H     
29   H        74.5222   60.1909   20.6178  H     
30   H        69.2709   61.8960   17.6528  H     
31   H        70.8488   60.1135   17.5987  H     
32   H        72.9747   61.8982   20.7763  H     
33   H        66.8546   64.2691   20.1854  H     
34   H        67.5284   62.7445   20.3235  H     
@<TRIPOS>BOND
     1    1    3 1
     2    1    4 2
     3    1    5 1
     4    2    5 1
     5    2    6 2
     6    2    7 1
     7    3    7 1
     8    3    8 2
     9    8    9 1
    10    9   10 2
    11    9   13 1
    12   10   11 1
    13   11   12 2
    14   12   13 1
    15   12   14 1
    16   14   17 1
    17   14   18 2
    18   15   16 1
    19   15   19 2
    20   15   20 1
    21   16   17 2
    22   18   19 1
    23   19   24 1
    24   20   21 2
    25   20   22 2
    26   20   23 am
    27    5   25 1
    28    6   26 1
    29    8   27 1
    30   10   28 1
    31   11   29 1
    32   16   30 1
    33   17   31 1
    34   18   32 1
    35   23   33 1
    36   23   34 1
@<TRIPOS>PROPERTY_DATA
  Total_Score	| 5.7389
  Crash		| -1.3443
  Polar		| 1.5961
  FragIndex	| 1
  FragRMSD	| 0.309

