@<TRIPOS>MOLECULE
BindingDB_17141
 34 36 0 0 0
SMALL
NO_CHARGES


@<TRIPOS>ATOM
1    C        73.8472   54.7388   16.5167  C     
2    C        71.7236   54.7107   15.9303  C     
3    C        73.4457   55.9016   17.0857  C     
4    O        74.9860   54.2898   16.5244  O     
5    N        72.9013   54.0847   15.8949  N     
6    N        70.6297   54.2248   15.3280  N     
7    S        71.7826   56.2125   16.7884  S     
8    C        74.2576   56.6813   17.8335  C     
9    C        73.9526   57.8900   18.4360  C     
10   C        74.7118   58.4598   19.4526  C     
11   C        74.0904   59.6327   19.8362  C     
12   C        72.9670   59.7983   19.0270  C     
13   O        72.9070   58.7227   18.1928  O     
14   C        72.0342   60.8768   19.0458  C     
15   C        70.1910   63.0630   19.0274  C     
16   C        71.2471   63.0251   19.9605  C     
17   C        72.1512   61.9453   19.9718  C     
18   C        70.9517   60.9118   18.1339  C     
19   C        70.0401   61.9862   18.1281  C     
20   S        69.0905   64.4071   19.0324  S     
21   O        68.5393   64.6900   17.5657  O     
22   O        67.8849   64.0233   20.0012  O     
23   N        69.7824   65.8149   19.6524  N     
24   H        73.0451   53.2348   15.4441  H     
25   H        69.7915   54.7215   15.3587  H     
26   H        75.1784   56.3411   18.0036  H     
27   H        75.5641   58.0777   19.8778  H     
28   H        74.4225   60.2472   20.5782  H     
29   H        71.3811   63.7765   20.6352  H     
30   H        72.9021   61.9573   20.6733  H     
31   H        70.8194   60.1552   17.4620  H     
32   H        69.2720   61.9822   17.4543  H     
33   H        69.2047   66.5663   19.8865  H     
34   H        70.7222   65.8469   19.8903  H     
@<TRIPOS>BOND
     1    1    3 1
     2    1    4 2
     3    1    5 1
     4    2    5 1
     5    2    6 2
     6    2    7 1
     7    3    7 1
     8    3    8 2
     9    8    9 1
    10    9   10 2
    11    9   13 1
    12   10   11 1
    13   11   12 2
    14   12   13 1
    15   12   14 1
    16   14   17 1
    17   14   18 2
    18   15   16 1
    19   15   19 2
    20   15   20 1
    21   16   17 2
    22   18   19 1
    23   20   21 2
    24   20   22 2
    25   20   23 am
    26    5   24 1
    27    6   25 1
    28    8   26 1
    29   10   27 1
    30   11   28 1
    31   16   29 1
    32   17   30 1
    33   18   31 1
    34   19   32 1
    35   23   33 1
    36   23   34 1
@<TRIPOS>PROPERTY_DATA
  Total_Score	| 6.3394
  Crash		| -0.9256
  Polar		| 1.2725
  FragIndex	| 1
  FragRMSD	| 0.241

