@<TRIPOS>MOLECULE
BindingDB_17143
 31 33 0 0 0
SMALL
NO_CHARGES


@<TRIPOS>ATOM
1    C        73.7978   54.8447   16.6769  C     
2    C        71.7195   54.8525   15.9492  C     
3    C        73.3804   56.0219   17.2079  C     
4    O        74.9278   54.3809   16.7575  O     
5    N        72.8840   54.2068   15.9941  N     
6    N        70.6521   54.3783   15.2956  N     
7    S        71.7425   56.3541   16.8038  S     
8    C        74.1511   56.7970   18.0021  C     
9    C        73.8233   58.0219   18.5702  C     
10   C        74.5957   58.6878   19.5206  C     
11   C        73.9459   59.8688   19.8336  C     
12   C        72.7897   59.9327   19.0594  C     
13   O        72.7455   58.8040   18.3024  O     
14   C        71.8443   60.9917   18.9866  C     
15   C        69.9852   63.1592   18.7379  C     
16   C        70.8693   63.0826   19.8387  C     
17   C        71.7963   62.0294   19.9485  C     
18   C        70.9345   61.0555   17.9083  C     
19   C        70.0390   62.1331   17.7692  C     
20   C        69.0588   64.2227   18.6212  C     
21   O        68.6074   64.8860   19.7072  O     
22   O        68.5265   64.5766   17.4287  O     
23   H        73.0455   53.3554   15.5547  H     
24   H        69.8255   54.8834   15.2831  H     
25   H        75.0618   56.4577   18.2204  H     
26   H        75.4878   58.3774   19.9128  H     
27   H        74.2934   60.5740   20.4859  H     
28   H        70.8641   63.8066   20.5629  H     
29   H        72.4292   62.0276   20.7550  H     
30   H        70.9242   60.3241   17.1973  H     
31   H        69.4081   62.1456   16.9623  H     
@<TRIPOS>BOND
     1    1    3 1
     2    1    4 2
     3    1    5 1
     4    2    5 1
     5    2    6 2
     6    2    7 1
     7    3    7 1
     8    3    8 2
     9    8    9 1
    10    9   10 2
    11    9   13 1
    12   10   11 1
    13   11   12 2
    14   12   13 1
    15   12   14 1
    16   14   17 1
    17   14   18 2
    18   15   16 1
    19   15   19 2
    20   15   20 1
    21   16   17 2
    22   18   19 1
    23   20   21 2
    24   20   22 1
    25    5   23 1
    26    6   24 1
    27    8   25 1
    28   10   26 1
    29   11   27 1
    30   16   28 1
    31   17   29 1
    32   18   30 1
    33   19   31 1
@<TRIPOS>PROPERTY_DATA
  Total_Score	| 6.6908
  Crash		| -0.8816
  Polar		| 2.5032
  FragIndex	| 1
  FragRMSD	| 1.037

