@<TRIPOS>MOLECULE
BindingDB_17152
 33 35 0 0 0
SMALL
NO_CHARGES


@<TRIPOS>ATOM
1    C        73.7944   54.7142   16.6579  C     
2    C        71.6322   54.5752   16.3850  C     
3    C        73.4216   55.8844   17.2304  C     
4    O        74.9405   54.2966   16.5438  O     
5    N        72.7922   54.0019   16.2110  N     
6    S        71.7212   56.0992   17.1312  S     
7    C        74.2708   56.7085   17.8782  C     
8    C        73.9632   57.9005   18.5159  C     
9    C        74.7651   58.5072   19.4788  C     
10   C        74.1397   59.6778   19.8654  C     
11   C        72.9635   59.7966   19.1189  C     
12   O        72.8865   58.7048   18.3120  O     
13   C        72.0257   60.8687   19.1377  C     
14   C        70.1655   63.0300   19.0420  C     
15   C        71.1721   62.9965   20.0261  C     
16   C        72.0894   61.9284   20.0716  C     
17   C        70.9959   60.9044   18.1649  C     
18   C        70.0802   61.9700   18.1165  C     
19   S        69.0616   64.3800   18.9552  S     
20   O        68.7900   64.7174   17.4266  O     
21   O        67.6991   63.9685   19.6729  O     
22   N        69.6747   65.7641   19.6814  N     
23   O        70.5783   54.0644   16.0386  O     
24   H        72.9061   53.1353   15.7912  H     
25   H        75.2246   56.4253   17.9305  H     
26   H        75.6512   58.1517   19.8470  H     
27   H        74.5057   60.3362   20.5539  H     
28   H        71.2660   63.7461   20.7170  H     
29   H        72.7972   61.9416   20.8109  H     
30   H        70.9140   60.1603   17.4668  H     
31   H        69.3562   61.9765   17.3940  H     
32   H        69.0774   66.4745   19.9573  H     
33   H        70.6315   65.8347   19.8555  H     
@<TRIPOS>BOND
     1    1    3 1
     2    1    4 2
     3    1    5 1
     4    2    5 1
     5    2    6 1
     6    2   23 2
     7    3    6 1
     8    3    7 2
     9    7    8 1
    10    8    9 2
    11    8   12 1
    12    9   10 1
    13   10   11 2
    14   11   12 1
    15   11   13 1
    16   13   16 1
    17   13   17 2
    18   14   15 1
    19   14   18 2
    20   14   19 1
    21   15   16 2
    22   17   18 1
    23   19   20 2
    24   19   21 2
    25   19   22 am
    26    5   24 1
    27    7   25 1
    28    9   26 1
    29   10   27 1
    30   15   28 1
    31   16   29 1
    32   17   30 1
    33   18   31 1
    34   22   32 1
    35   22   33 1
@<TRIPOS>PROPERTY_DATA
  Total_Score	| 6.1070
  Crash		| -1.0424
  Polar		| 1.5684
  FragIndex	| 1
  FragRMSD	| 0.221

