@<TRIPOS>MOLECULE
BindingDB_17144
 37 39 0 0 0
SMALL
NO_CHARGES


@<TRIPOS>ATOM
1    C        73.8044   54.7238   16.5189  C     
2    C        71.6683   54.7210   15.9651  C     
3    C        73.4270   55.8998   17.0868  C     
4    O        74.9259   54.2379   16.5456  O     
5    N        72.8376   54.0784   15.9156  N     
6    N        70.5394   54.2182   15.4389  N     
7    S        71.7681   56.2404   16.7889  S     
8    C        74.2434   56.6446   17.8558  C     
9    C        73.9556   57.8434   18.4874  C     
10   C        74.7716   58.4401   19.4479  C     
11   C        74.1503   59.6081   19.8546  C     
12   C        72.9843   59.7447   19.0983  C     
13   O        72.8906   58.6630   18.2830  O     
14   C        72.0536   60.8191   19.1201  C     
15   C        70.2123   62.9951   19.0480  C     
16   C        70.1331   61.9601   18.1004  C     
17   C        71.0337   60.8804   18.1346  C     
18   C        72.1267   61.8660   20.0654  C     
19   C        71.2142   62.9323   20.0393  C     
20   S        69.1244   64.3575   18.9706  S     
21   O        68.8570   64.6975   17.4404  O     
22   O        67.7587   63.9058   19.6542  O     
23   N        69.7911   65.7148   19.7187  N     
24   C        69.0178   66.6006   20.5038  C     
25   H        72.9618   53.2147   15.4828  H     
26   H        69.7077   54.7143   15.5045  H     
27   H        75.1646   56.2908   18.0117  H     
28   H        75.6578   58.0807   19.8116  H     
29   H        74.5167   60.2567   20.5559  H     
30   H        69.4253   61.9888   17.3613  H     
31   H        70.9460   60.1514   17.4221  H     
32   H        72.8396   61.8705   20.7973  H     
33   H        71.2990   63.6658   20.7451  H     
34   H        70.7575   65.7322   19.8358  H     
35   H        68.1163   66.9098   19.9703  H     
36   H        69.6152   67.4854   20.7194  H     
37   H        68.7311   66.1302   21.4492  H     
@<TRIPOS>BOND
     1    1    3 1
     2    1    4 2
     3    1    5 1
     4    2    5 1
     5    2    6 2
     6    2    7 1
     7    3    7 1
     8    3    8 2
     9    8    9 1
    10    9   10 2
    11    9   13 1
    12   10   11 1
    13   11   12 2
    14   12   13 1
    15   12   14 1
    16   14   17 1
    17   14   18 2
    18   15   16 1
    19   15   19 2
    20   15   20 1
    21   16   17 2
    22   18   19 1
    23   20   21 2
    24   20   22 2
    25   20   23 1
    26   23   24 1
    27    5   25 1
    28    6   26 1
    29    8   27 1
    30   10   28 1
    31   11   29 1
    32   16   30 1
    33   17   31 1
    34   18   32 1
    35   19   33 1
    36   23   34 1
    37   24   35 1
    38   24   36 1
    39   24   37 1
@<TRIPOS>PROPERTY_DATA
  Total_Score	| 6.7753
  Crash		| -1.1636
  Polar		| 1.7787
  FragIndex	| 1
  FragRMSD	| 0.263

