@<TRIPOS>MOLECULE
BindingDB_17149
 37 39 0 0 0
SMALL
NO_CHARGES


@<TRIPOS>ATOM
1    C        74.1417   54.5862   16.4902  C     
2    C        72.0327   54.4565   15.8626  C     
3    C        73.6756   55.7274   17.0488  C     
4    O        75.2994   54.1930   16.5145  O     
5    N        73.2405   53.8885   15.8511  N     
6    N        70.9589   53.9218   15.2684  N     
7    S        72.0077   55.9647   16.7085  S     
8    C        74.4252   56.5274   17.8402  C     
9    C        74.0421   57.7243   18.4256  C     
10   C        74.7816   58.4221   19.3810  C     
11   C        74.0618   59.5515   19.7241  C     
12   C        72.8980   59.5560   18.9590  C     
13   O        72.9162   58.4420   18.1877  O     
14   C        71.8469   60.5136   18.9393  C     
15   C        69.6763   62.3594   18.8631  C     
16   C        69.7268   61.2543   17.9870  C     
17   C        70.7850   60.3394   18.0322  C     
18   C        71.8241   61.6449   19.7803  C     
19   C        70.7542   62.5842   19.7736  C     
20   S        68.2734   63.3868   18.6459  S     
21   O        67.8446   64.2639   19.8990  O     
22   O        68.6473   64.3570   17.4365  O     
23   N        66.9301   62.4944   18.1618  N     
24   C        70.8022   63.7514   20.7192  C     
25   F        71.9759   63.9088   21.4152  F     
26   F        70.6254   64.9371   20.0404  F     
27   F        69.8283   63.6209   21.6813  F     
28   H        73.4321   53.0462   15.4024  H     
29   H        70.1049   54.3790   15.3021  H     
30   H        75.3504   56.2328   18.0434  H     
31   H        75.6859   58.1466   19.7747  H     
32   H        74.3526   60.2375   20.4236  H     
33   H        68.9941   61.0888   17.2945  H     
34   H        70.7662   59.5465   17.3838  H     
35   H        72.6033   61.7862   20.4259  H     
36   H        66.0822   62.9353   18.0325  H     
37   H        66.9455   61.5262   18.2377  H     
@<TRIPOS>BOND
     1    1    3 1
     2    1    4 2
     3    1    5 1
     4    2    5 1
     5    2    6 2
     6    2    7 1
     7    3    7 1
     8    3    8 2
     9    8    9 1
    10    9   10 2
    11    9   13 1
    12   10   11 1
    13   11   12 2
    14   12   13 1
    15   12   14 1
    16   14   17 1
    17   14   18 2
    18   15   16 1
    19   15   19 2
    20   15   20 1
    21   16   17 2
    22   18   19 1
    23   19   24 1
    24   20   21 2
    25   20   22 2
    26   20   23 am
    27   24   25 1
    28   24   26 1
    29   24   27 1
    30    5   28 1
    31    6   29 1
    32    8   30 1
    33   10   31 1
    34   11   32 1
    35   16   33 1
    36   17   34 1
    37   18   35 1
    38   23   36 1
    39   23   37 1
@<TRIPOS>PROPERTY_DATA
  Total_Score	| 5.4752
  Crash		| -2.0584
  Polar		| 0.9921
  FragIndex	| 1
  FragRMSD	| 0.556

