@<TRIPOS>MOLECULE
BindingDB_17142
 31 33 0 0 0
SMALL
NO_CHARGES


@<TRIPOS>ATOM
1    C        74.0020   54.6953   16.5186  C     
2    C        71.9024   54.5924   15.8467  C     
3    C        73.5446   55.8475   17.0686  C     
4    O        75.1504   54.2782   16.5739  O     
5    N        73.0996   54.0064   15.8654  N     
6    N        70.8250   54.0696   15.2401  N     
7    S        71.8950   56.1070   16.6788  S     
8    C        74.2859   56.6557   17.8583  C     
9    C        73.8850   57.8279   18.4913  C     
10   C        74.6349   58.5020   19.4577  C     
11   C        73.9130   59.6182   19.8401  C     
12   C        72.7210   59.6511   19.0914  C     
13   O        72.7655   58.5634   18.2720  O     
14   C        71.7114   60.6735   19.0585  C     
15   C        70.0841   62.9927   18.6988  C     
16   C        71.1550   63.0213   19.5943  C     
17   C        71.9686   61.8864   19.7504  C     
18   C        70.5195   60.6002   18.2575  C     
19   C        69.7718   61.7957   18.0405  C     
20   N        70.0051   59.4401   17.7371  N     
21   O        69.1268   59.4098   16.9150  O     
22   O        70.1976   58.2956   18.3235  O     
23   H        73.2918   53.1613   15.4273  H     
24   H        69.9784   54.5390   15.2493  H     
25   H        75.2193   56.3623   18.0549  H     
26   H        75.5455   58.2259   19.8403  H     
27   H        74.2409   60.2954   20.5363  H     
28   H        69.5136   63.8325   18.5442  H     
29   H        71.3622   63.8800   20.1115  H     
30   H        72.7629   61.9864   20.3806  H     
31   H        68.9464   61.8049   17.4360  H     
@<TRIPOS>BOND
     1    1    3 1
     2    1    4 2
     3    1    5 1
     4    2    5 1
     5    2    6 2
     6    2    7 1
     7    3    7 1
     8    3    8 2
     9    8    9 1
    10    9   10 2
    11    9   13 1
    12   10   11 1
    13   11   12 2
    14   12   13 1
    15   12   14 1
    16   14   17 1
    17   14   18 2
    18   15   16 1
    19   15   19 2
    20   16   17 2
    21   18   19 1
    22   18   20 am
    23   20   21 2
    24   20   22 1
    25    5   23 1
    26    6   24 1
    27    8   25 1
    28   10   26 1
    29   11   27 1
    30   15   28 1
    31   16   29 1
    32   17   30 1
    33   19   31 1
@<TRIPOS>PROPERTY_DATA
  Total_Score	| 4.3868
  Crash		| -0.6564
  Polar		| 0.0088
  FragIndex	| 1
  FragRMSD	| 0.355

