@<TRIPOS>MOLECULE
BindingDB_17151
 37 39 0 0 0
SMALL
NO_CHARGES


@<TRIPOS>ATOM
1    C        72.7510   54.9658   16.3431  C     
2    C        70.7005   55.5595   15.7942  C     
3    C        72.7141   56.1527   17.0448  C     
4    O        73.6493   54.1436   16.2949  O     
5    N        71.6790   54.6755   15.6490  N     
6    N        69.4764   55.4216   15.2459  N     
7    S        71.1680   56.8877   16.8079  S     
8    C        73.6990   56.6876   17.8333  C     
9    C        73.6109   57.9454   18.4904  C     
10   C        74.4356   58.5085   19.4840  C     
11   C        73.9015   59.7137   19.8959  C     
12   C        72.7727   59.9363   19.1222  C     
13   O        72.6247   58.8705   18.2958  O     
14   C        71.8831   61.0534   19.1382  C     
15   C        70.0941   63.2663   19.0818  C     
16   C        69.9062   62.1732   18.2091  C     
17   C        70.7915   61.0793   18.2347  C     
18   C        72.0477   62.1413   20.0284  C     
19   C        71.1580   63.2338   20.0023  C     
20   S        69.0161   64.6289   18.9788  S     
21   O        68.6421   64.8900   17.4502  O     
22   O        67.7054   64.2371   19.7931  O     
23   N        69.6530   66.0365   19.6449  N     
24   C        74.9000   55.8749   18.0829  C     
25   H        71.5937   53.8834   15.0905  H     
26   H        69.2573   54.6187   14.7127  H     
27   H        75.2866   58.1361   19.8781  H     
28   H        74.2799   60.3163   20.6369  H     
29   H        69.1276   62.1548   17.5386  H     
30   H        70.6373   60.3065   17.5854  H     
31   H        72.8066   62.1698   20.7080  H     
32   H        71.2920   64.0097   20.6570  H     
33   H        69.0535   66.7589   19.8934  H     
34   H        70.5965   66.0882   19.8660  H     
35   H        74.5963   54.9636   18.6074  H     
36   H        75.6594   56.3436   18.7003  H     
37   H        75.4005   55.6189   17.1406  H     
@<TRIPOS>BOND
     1    1    3 1
     2    1    4 2
     3    1    5 1
     4    2    5 1
     5    2    6 2
     6    2    7 1
     7    3    7 1
     8    3    8 2
     9    8    9 1
    10    8   24 1
    11    9   10 2
    12    9   13 1
    13   10   11 1
    14   11   12 2
    15   12   13 1
    16   12   14 1
    17   14   17 1
    18   14   18 2
    19   15   16 1
    20   15   19 2
    21   15   20 1
    22   16   17 2
    23   18   19 1
    24   20   21 2
    25   20   22 2
    26   20   23 am
    27    5   25 1
    28    6   26 1
    29   10   27 1
    30   11   28 1
    31   16   29 1
    32   17   30 1
    33   18   31 1
    34   19   32 1
    35   23   33 1
    36   23   34 1
    37   24   35 1
    38   24   36 1
    39   24   37 1
@<TRIPOS>PROPERTY_DATA
  Total_Score	| 5.0477
  Crash		| -2.3958
  Polar		| 2.2431
  FragIndex	| 1
  FragRMSD	| 0.661

