@<TRIPOS>MOLECULE
BindingDB_17145
 49 51 0 0 0
SMALL
NO_CHARGES


@<TRIPOS>ATOM
1    C        68.9827   64.5174   18.9669  C     
2    C        68.8470   65.0152   21.1126  C     
3    C        69.9506   63.6996   19.4492  C     
4    O        68.6555   64.6301   17.7928  O     
5    N        68.3816   65.2332   19.8831  N     
6    N        68.3724   65.6355   22.2023  N     
7    S        70.1347   63.8667   21.1520  S     
8    C        70.5847   62.7805   18.6911  C     
9    C        71.5537   61.8635   19.0568  C     
10   C        72.5458   61.8560   20.0407  C     
11   C        73.2426   60.6594   19.9298  C     
12   C        72.6780   59.9425   18.8730  C     
13   O        71.6770   60.7051   18.3742  O     
14   C        72.9317   58.6415   18.3846  C     
15   C        73.1452   55.9499   17.4672  C     
16   C        72.2685   56.8573   16.8501  C     
17   C        72.1555   58.1753   17.3023  C     
18   C        73.8701   57.7557   18.9641  C     
19   C        73.9670   56.4199   18.5209  C     
20   S        73.1172   54.2560   17.0509  S     
21   O        74.6119   53.9029   16.6354  O     
22   O        72.8687   53.4810   18.4191  O     
23   N        72.1645   53.4898   15.8830  N     
24   C        71.0337   54.0602   15.2296  C     
25   C        69.9751   54.6998   16.1888  C     
26   N        68.9863   55.6894   15.6152  N     
27   C        68.2024   56.3442   16.7076  C     
28   C        69.4751   56.7308   14.6597  C     
29   H        67.6771   65.8718   19.6953  H     
30   H        68.7396   65.4538   23.0744  H     
31   H        70.2903   62.6998   17.7443  H     
32   H        72.7611   62.5925   20.7241  H     
33   H        74.0175   60.3660   20.5285  H     
34   H        71.6960   56.5801   16.0637  H     
35   H        71.4530   58.7725   16.8596  H     
36   H        74.4682   58.0707   19.7389  H     
37   H        74.6189   55.7828   19.0016  H     
38   H        72.5706   52.7200   15.4489  H     
39   H        71.3966   54.7799   14.4904  H     
40   H        70.5302   53.2530   14.6945  H     
41   H        69.3738   53.8480   16.5662  H     
42   H        70.4970   55.1208   17.0627  H     
43   H        68.3338   55.1215   15.0622  H     
44   H        67.8262   55.6076   17.4160  H     
45   H        67.3414   56.8690   16.2907  H     
46   H        68.8232   57.0555   17.2555  H     
47   H        70.2091   57.3868   15.1205  H     
48   H        68.6394   57.3443   14.3063  H     
49   H        69.9224   56.2738   13.7800  H     
@<TRIPOS>BOND
     1    1    3 1
     2    1    4 2
     3    1    5 1
     4    2    5 1
     5    2    6 2
     6    2    7 1
     7    3    7 1
     8    3    8 2
     9    8    9 1
    10    9   10 2
    11    9   13 1
    12   10   11 1
    13   11   12 2
    14   12   13 1
    15   12   14 1
    16   14   17 1
    17   14   18 2
    18   15   16 1
    19   15   19 2
    20   15   20 1
    21   16   17 2
    22   18   19 1
    23   20   21 2
    24   20   22 2
    25   20   23 1
    26   23   24 1
    27   24   25 1
    28   25   26 1
    29   26   27 1
    30   26   28 1
    31    5   29 1
    32    6   30 1
    33    8   31 1
    34   10   32 1
    35   11   33 1
    36   16   34 1
    37   17   35 1
    38   18   36 1
    39   19   37 1
    40   23   38 1
    41   24   39 1
    42   24   40 1
    43   25   41 1
    44   25   42 1
    45   26   43 1
    46   27   44 1
    47   27   45 1
    48   27   46 1
    49   28   47 1
    50   28   48 1
    51   28   49 1
@<TRIPOS>PROPERTY_DATA
  Total_Score	| 7.1237
  Crash		| -3.2077
  Polar		| 2.6478
  FragIndex	| 1
  FragRMSD	| 1.459

