@<TRIPOS>MOLECULE
BindingDB_7533
 52 54 0 0 0
SMALL
NO_CHARGES


@<TRIPOS>ATOM
1    C       100.4736  100.7945   80.7586  C     
2    N       101.5543  100.9612   81.5695  N     
3    N       100.4764  101.3537   79.5086  N     
4    C       102.6380  102.2806   79.9023  C     
5    C       102.6123  101.7005   81.1727  C     
6    C       104.4529  102.7871   80.9074  C     
7    N       103.7878  102.9572   79.7516  N     
8    N       103.7492  102.0379   81.7951  N     
9    C       101.5378  102.0914   79.0442  C     
10   N       101.5580  102.6609   77.8124  N     
11   N        99.4361  100.0819   81.2519  N     
12   C       100.5677  102.5284   76.7841  C     
13   C        99.6577  103.7115   76.7237  C     
14   C        97.9175  105.9457   76.5252  C     
15   C        97.3880  104.6521   76.6837  C     
16   C        98.2530  103.5421   76.7837  C     
17   C       100.1755  105.0163   76.5603  C     
18   C        99.3111  106.1288   76.4598  C     
19   C        98.1358   99.9671   80.6804  C     
20   C        98.1526   99.1460   79.3612  C     
21   O        96.8667   99.1614   78.7520  O     
22   C       103.1711  102.1062   84.2200  C     
23   C       104.1712  101.6491   83.1262  C     
24   C       104.4535  100.1295   83.2003  C     
25   C        97.1586   99.3591   81.7275  C     
26   C        97.1964  100.0512   83.1146  C     
27   H       105.3673  103.1965   81.0890  H     
28   H       102.3270  103.2026   77.5783  H     
29   H        99.5649   99.6977   82.1338  H     
30   H       101.0903  102.4593   75.8257  H     
31   H       100.0073  101.5942   76.8979  H     
32   H        97.2889  106.7487   76.4577  H     
33   H        96.3765  104.5177   76.7334  H     
34   H        97.8432  102.6132   76.8878  H     
35   H       101.1845  105.1730   76.5029  H     
36   H        99.6920  107.0708   76.3415  H     
37   H        97.7795  100.9823   80.4450  H     
38   H        98.8680   99.5750   78.6562  H     
39   H        98.4466   98.1050   79.5607  H     
40   H        97.0676   99.2344   77.7982  H     
41   H       102.9870  103.1745   84.1490  H     
42   H       103.5685  101.8971   85.2068  H     
43   H       102.2188  101.5880   84.1293  H     
44   H       105.1181  102.1508   83.3445  H     
45   H       103.5328   99.5599   83.0831  H     
46   H       104.8992   99.8822   84.1624  H     
47   H       105.1453   99.8353   82.4125  H     
48   H        96.1259   99.4287   81.3580  H     
49   H        97.3715   98.2858   81.8702  H     
50   H        98.1071   99.7890   83.6524  H     
51   H        96.3411   99.7399   83.7092  H     
52   H        97.1547  101.1413   82.9927  H     
@<TRIPOS>BOND
     1    1    2 1
     2    1    3 2
     3    1   11 1
     4    2    5 2
     5    3    9 1
     6    4    5 1
     7    4    7 1
     8    4    9 2
     9    5    8 1
    10    6    7 2
    11    6    8 1
    12    8   23 1
    13    9   10 1
    14   10   12 1
    15   11   19 1
    16   12   13 1
    17   13   16 2
    18   13   17 1
    19   14   15 2
    20   14   18 1
    21   15   16 1
    22   17   18 2
    23   19   20 1
    24   19   25 1
    25   20   21 1
    26   22   23 1
    27   23   24 1
    28   25   26 1
    29    6   27 1
    30   10   28 1
    31   11   29 1
    32   12   30 1
    33   12   31 1
    34   14   32 1
    35   15   33 1
    36   16   34 1
    37   17   35 1
    38   18   36 1
    39   19   37 1
    40   20   38 1
    41   20   39 1
    42   21   40 1
    43   22   41 1
    44   22   42 1
    45   22   43 1
    46   23   44 1
    47   24   45 1
    48   24   46 1
    49   24   47 1
    50   25   48 1
    51   25   49 1
    52   26   50 1
    53   26   51 1
    54   26   52 1
@<TRIPOS>PROPERTY_DATA
  Total_Score	| 8.7038
  Crash		| -1.1463
  Polar		| 3.2048
  FragIndex	| 1
  FragRMSD	| 1.390

