@<TRIPOS>MOLECULE
BindingDB_24646
 43 45 0 0 0
SMALL
NO_CHARGES


@<TRIPOS>ATOM
1    C        28.2117    5.4819   64.7194  C     
2    C        27.0321    5.1031   64.0618  C     
3    C        26.8587    3.7556   64.3656  C     
4    N        28.6860    4.3893   65.3540  N     
5    N        27.8862    3.3997   65.1378  N     
6    C        28.8238    6.7295   64.7553  C     
7    O        28.2429    7.6905   64.2568  O     
8    N        30.0223    6.8902   65.3178  N     
9    N        26.2725    5.9070   63.2483  N     
10   C        25.2166    5.5994   62.4942  C     
11   O        24.7561    4.4555   62.5602  O     
12   C        24.5821    6.5295   61.6371  C     
13   C        22.5561    7.8111   60.9912  C     
14   C        23.1947    8.3008   59.8406  C     
15   C        24.5242    7.9245   59.5804  C     
16   C        23.2363    6.9674   61.8823  C     
17   C        25.2047    7.0476   60.4467  C     
18   F        22.5578    6.6056   62.9467  F     
19   F        26.4118    6.7237   60.0565  F     
20   C        30.7579    8.1255   65.3994  C     
21   C        32.6129    9.5416   64.3303  C     
22   C        33.2539    9.7778   65.7244  C     
23   C        32.2170    9.6356   66.8748  C     
24   C        31.4312    8.2978   66.7942  C     
25   C        31.8278    8.2017   64.2755  C     
26   H        26.1037    3.1290   64.0683  H     
27   H        27.9950    2.5067   65.4777  H     
28   H        30.4736    6.0919   65.6517  H     
29   H        26.5642    6.8367   63.2041  H     
30   H        21.5847    8.0845   61.1795  H     
31   H        22.6974    8.9239   59.1969  H     
32   H        24.9963    8.2826   58.7370  H     
33   H        30.0805    8.9774   65.2813  H     
34   H        31.9329   10.3693   64.1086  H     
35   H        33.3966    9.5369   63.5659  H     
36   H        34.0593    9.0596   65.8751  H     
37   H        33.6949   10.7784   65.7515  H     
38   H        32.7394    9.6891   67.8348  H     
39   H        31.5178   10.4764   66.8261  H     
40   H        30.6644    8.2870   67.5720  H     
41   H        32.1149    7.4639   66.9796  H     
42   H        32.5307    7.3679   64.3719  H     
43   H        31.3399    8.1223   63.2988  H     
@<TRIPOS>BOND
     1    1    2 1
     2    1    4 2
     3    1    6 1
     4    2    3 2
     5    2    9 1
     6    3    5 1
     7    4    5 1
     8    6    7 2
     9    6    8 am
    10    8   20 1
    11    9   10 am
    12   10   11 2
    13   10   12 1
    14   12   16 2
    15   12   17 1
    16   13   14 2
    17   13   16 1
    18   14   15 1
    19   15   17 2
    20   16   18 1
    21   17   19 1
    22   20   24 1
    23   20   25 1
    24   21   22 1
    25   21   25 1
    26   22   23 1
    27   23   24 1
    28    3   26 1
    29    5   27 1
    30    8   28 1
    31    9   29 1
    32   13   30 1
    33   14   31 1
    34   15   32 1
    35   20   33 1
    36   21   34 1
    37   21   35 1
    38   22   36 1
    39   22   37 1
    40   23   38 1
    41   23   39 1
    42   24   40 1
    43   24   41 1
    44   25   42 1
    45   25   43 1
@<TRIPOS>PROPERTY_DATA
  Total_Score	| 7.5736
  Crash		| -1.0945
  Polar		| 3.1486
  FragIndex	| 1
  FragRMSD	| 0.464

