@<TRIPOS>MOLECULE
BindingDB_24652
 47 49 0 0 0
SMALL
NO_CHARGES


@<TRIPOS>ATOM
1    C        28.2145    5.5176   64.6875  C     
2    C        27.0530    5.1435   64.0050  C     
3    C        26.8477    3.8112   64.3487  C     
4    N        28.6449    4.4220   65.3381  N     
5    N        27.8486    3.4301   65.1287  N     
6    C        28.8610    6.7551   64.7079  C     
7    O        28.3073    7.7078   64.1765  O     
8    N        26.3336    5.9597   63.1620  N     
9    C        25.2829    5.6674   62.3944  C     
10   O        24.8262    4.5413   62.4763  O     
11   C        24.6811    6.6029   61.5127  C     
12   C        22.7014    7.5693   60.3762  C     
13   C        23.4981    8.5253   59.7366  C     
14   C        24.8805    8.5300   59.9740  C     
15   C        23.2727    6.6019   61.2303  C     
16   C        25.4667    7.5831   60.8373  C     
17   F        26.7671    7.6691   60.9156  F     
18   C        32.7437    9.4809   64.4370  C     
19   C        31.4466    8.2584   66.7976  C     
20   C        31.8888    8.1879   64.2890  C     
21   C        30.7956    8.1303   65.3934  C     
22   N        30.0422    6.9109   65.2978  N     
23   C        32.3322    9.5371   66.8894  C     
24   N        33.3243    9.5992   65.7917  N     
25   O        22.3675    5.7095   61.7589  O     
26   C        21.8901    4.7017   60.8040  C     
27   H        26.0926    3.1890   64.0596  H     
28   H        27.9528    2.5471   65.4988  H     
29   H        26.6417    6.8681   63.1496  H     
30   H        21.6932    7.5706   60.1989  H     
31   H        23.0786    9.2085   59.1031  H     
32   H        25.4620    9.2194   59.4923  H     
33   H        33.5637    9.4591   63.7121  H     
34   H        32.1316   10.3622   64.2165  H     
35   H        30.6655    8.3121   67.5592  H     
36   H        32.0672    7.3814   67.0030  H     
37   H        31.4172    8.1834   63.2996  H     
38   H        32.5415    7.3114   64.3652  H     
39   H        30.1442    9.0027   65.2585  H     
40   H        30.4477    6.1116   65.6698  H     
41   H        31.7075   10.4332   66.8606  H     
42   H        32.8751    9.5349   67.8349  H     
43   H        33.9894    8.8344   65.9244  H     
44   H        33.8281   10.4854   65.8529  H     
45   H        22.0132    5.0086   59.7589  H     
46   H        20.8174    4.5248   60.9851  H     
47   H        22.4348    3.7503   60.9650  H     
@<TRIPOS>BOND
     1    1    2 1
     2    1    4 2
     3    1    6 1
     4    2    3 2
     5    2    8 1
     6    3    5 1
     7    4    5 1
     8    6    7 2
     9    6   22 am
    10    8    9 am
    11    9   10 2
    12    9   11 1
    13   11   15 2
    14   11   16 1
    15   12   13 2
    16   12   15 1
    17   13   14 1
    18   14   16 2
    19   15   25 1
    20   16   17 1
    21   18   20 1
    22   18   24 1
    23   19   21 1
    24   19   23 1
    25   20   21 1
    26   21   22 1
    27   23   24 1
    28   25   26 1
    29    3   27 1
    30    5   28 1
    31    8   29 1
    32   12   30 1
    33   13   31 1
    34   14   32 1
    35   18   33 1
    36   18   34 1
    37   19   35 1
    38   19   36 1
    39   20   37 1
    40   20   38 1
    41   21   39 1
    42   22   40 1
    43   23   41 1
    44   23   42 1
    45   24   43 1
    46   24   44 1
    47   26   45 1
    48   26   46 1
    49   26   47 1
@<TRIPOS>PROPERTY_DATA
  Total_Score	| 9.1783
  Crash		| -1.1603
  Polar		| 4.3050
  FragIndex	| 1
  FragRMSD	| 0.638

