@<TRIPOS>MOLECULE
BindingDB_24647
 44 46 0 0 0
SMALL
NO_CHARGES


@<TRIPOS>ATOM
1    C        27.9554    5.3959   64.7872  C     
2    C        26.7634    4.9581   64.1878  C     
3    C        26.6641    3.6143   64.5064  C     
4    N        28.5157    4.3152   65.3704  N     
5    N        27.7560    3.2837   65.1973  N     
6    C        28.4950    6.6711   64.8638  C     
7    O        27.7740    7.6335   64.6340  O     
8    N        25.8183    5.5508   63.4054  N     
9    C        26.0104    6.4017   62.4021  C     
10   O        27.1640    6.7111   62.1126  O     
11   C        24.9493    6.9174   61.6325  C     
12   C        24.1321    7.9897   59.5607  C     
13   C        22.8457    8.1085   60.1062  C     
14   C        22.5939    7.6262   61.3980  C     
15   C        25.1679    7.3911   60.3033  C     
16   C        23.6258    7.0370   62.1549  C     
17   F        26.3228    7.2789   59.6939  F     
18   F        23.3061    6.6764   63.3722  F     
19   C        32.0763    9.5188   66.7041  C     
20   C        33.1309    9.5018   65.5646  C     
21   C        32.4558    9.3534   64.1757  C     
22   C        31.5589    8.0883   64.1222  C     
23   C        31.1664    8.2594   66.6540  C     
24   O        33.9315   10.6818   65.5974  O     
25   C        30.4954    8.0835   65.2603  C     
26   N        29.7655    6.8433   65.2147  N     
27   H        25.9171    2.9728   64.2299  H     
28   H        27.9395    2.3910   65.5251  H     
29   H        24.9245    5.1854   63.4921  H     
30   H        24.3093    8.3394   58.6147  H     
31   H        22.0956    8.5480   59.5683  H     
32   H        21.6597    7.7371   61.7978  H     
33   H        32.5876    9.5533   67.6700  H     
34   H        31.4582   10.4179   66.6192  H     
35   H        33.8001    8.6552   65.7253  H     
36   H        31.8500   10.2402   63.9674  H     
37   H        33.2245    9.2856   63.4027  H     
38   H        31.0542    8.0510   63.1518  H     
39   H        32.1929    7.1990   64.2033  H     
40   H        31.7690    7.3757   66.8876  H     
41   H        30.3924    8.3481   67.4222  H     
42   H        34.7237   10.4597   65.0569  H     
43   H        29.8319    8.9409   65.1007  H     
44   H        30.2769    6.0422   65.4255  H     
@<TRIPOS>BOND
     1    1    2 1
     2    1    4 2
     3    1    6 1
     4    2    3 2
     5    2    8 1
     6    3    5 1
     7    4    5 1
     8    6    7 2
     9    6   26 am
    10    8    9 am
    11    9   10 2
    12    9   11 1
    13   11   15 2
    14   11   16 1
    15   12   13 2
    16   12   15 1
    17   13   14 1
    18   14   16 2
    19   15   17 1
    20   16   18 1
    21   19   20 1
    22   19   23 1
    23   20   21 1
    24   20   24 1
    25   21   22 1
    26   22   25 1
    27   23   25 1
    28   25   26 1
    29    3   27 1
    30    5   28 1
    31    8   29 1
    32   12   30 1
    33   13   31 1
    34   14   32 1
    35   19   33 1
    36   19   34 1
    37   20   35 1
    38   21   36 1
    39   21   37 1
    40   22   38 1
    41   22   39 1
    42   23   40 1
    43   23   41 1
    44   24   42 1
    45   25   43 1
    46   26   44 1
@<TRIPOS>PROPERTY_DATA
  Total_Score	| 7.7267
  Crash		| -1.9673
  Polar		| 3.7493
  FragIndex	| 1
  FragRMSD	| 1.027

