@<TRIPOS>MOLECULE
BindingDB_24643
 37 39 0 0 0
SMALL
NO_CHARGES


@<TRIPOS>ATOM
1    C        28.2255    5.4292   64.6740  C     
2    C        27.0056    5.0920   64.0693  C     
3    C        26.7721    3.7696   64.4363  C     
4    N        28.6497    4.3255   65.3358  N     
5    N        27.8010    3.3653   65.1871  N     
6    C        28.9214    6.6279   64.6515  C     
7    O        28.4323    7.6032   64.0766  O     
8    N        30.1330    6.7134   65.1943  N     
9    C        30.9044    7.8357   65.2462  C     
10   C        32.6425    9.2609   64.2844  C     
11   C        31.8257    8.1146   64.2141  C     
12   C        30.8055    8.7200   66.3484  C     
13   C        31.6237    9.8635   66.4215  C     
14   C        32.5487   10.1320   65.3900  C     
15   F        33.3104   11.1868   65.4570  F     
16   N        26.2889    5.9127   63.2421  N     
17   C        25.0654    5.7280   62.7364  C     
18   O        24.3874    4.7823   63.1117  O     
19   C        24.5380    6.6095   61.7809  C     
20   C        24.7654    7.9890   59.7450  C     
21   C        23.4186    8.3740   59.8300  C     
22   C        22.6237    7.8817   60.8833  C     
23   C        23.1764    7.0069   61.8405  C     
24   C        25.3241    7.1227   60.7100  C     
25   H        25.9782    3.1861   64.1746  H     
26   H        27.8887    2.4638   65.5531  H     
27   H        30.5177    5.9053   65.5742  H     
28   H        33.2988    9.4699   63.5272  H     
29   H        31.9124    7.4730   63.4209  H     
30   H        30.1533    8.5192   67.1098  H     
31   H        31.5600   10.4811   67.2308  H     
32   H        26.7375    6.7348   62.9825  H     
33   H        25.3412    8.3448   58.9822  H     
34   H        23.0100    8.9993   59.1327  H     
35   H        21.6414    8.1441   60.9457  H     
36   H        22.5645    6.6673   62.5920  H     
37   H        26.3056    6.8531   60.5942  H     
@<TRIPOS>BOND
     1    1    2 1
     2    1    4 2
     3    1    6 1
     4    2    3 2
     5    2   16 1
     6    3    5 1
     7    4    5 1
     8    6    7 2
     9    6    8 am
    10    8    9 1
    11    9   11 2
    12    9   12 1
    13   10   11 1
    14   10   14 2
    15   12   13 2
    16   13   14 1
    17   14   15 1
    18   16   17 am
    19   17   18 2
    20   17   19 1
    21   19   23 1
    22   19   24 2
    23   20   21 2
    24   20   24 1
    25   21   22 1
    26   22   23 2
    27    3   25 1
    28    5   26 1
    29    8   27 1
    30   10   28 1
    31   11   29 1
    32   12   30 1
    33   13   31 1
    34   16   32 1
    35   20   33 1
    36   21   34 1
    37   22   35 1
    38   23   36 1
    39   24   37 1
@<TRIPOS>PROPERTY_DATA
  Total_Score	| 6.6450
  Crash		| -0.6191
  Polar		| 3.1896
  FragIndex	| 1
  FragRMSD	| 0.511

