@<TRIPOS>MOLECULE
BindingDB_24654
 43 45 0 0 0
SMALL
NO_CHARGES


@<TRIPOS>ATOM
1    C        28.2469    5.4538   64.6761  C     
2    C        27.0653    5.0750   64.0123  C     
3    C        26.8457    3.7522   64.3823  C     
4    N        28.6819    4.3696   65.3615  N     
5    N        27.8540    3.3917   65.1845  N     
6    C        28.8832    6.6909   64.6613  C     
7    O        28.3536    7.6253   64.0819  O     
8    N        26.3162    5.8716   63.1756  N     
9    C        25.3796    5.4998   62.3034  C     
10   O        25.1545    4.3076   62.1151  O     
11   C        24.7131    6.4494   61.5134  C     
12   C        22.6651    7.6906   60.9067  C     
13   C        23.3670    8.3809   59.8967  C     
14   C        24.7213    8.1004   59.6780  C     
15   C        23.3280    6.7372   61.7049  C     
16   C        25.3960    7.1534   60.4754  C     
17   C        32.7482    9.4908   64.4472  C     
18   C        31.3652    8.2976   66.7847  C     
19   C        31.9172    8.1877   64.2921  C     
20   C        30.7776    8.1252   65.3530  C     
21   N        30.0540    6.8742   65.2621  N     
22   C        32.2161    9.5919   66.8794  C     
23   N        33.2595    9.6453   65.8262  N     
24   Cl       22.3546    5.9702   62.8779  Cl    
25   Cl       27.0058    6.8143   60.0483  Cl    
26   H        26.0840    3.1366   64.1149  H     
27   H        27.9451    2.4982   65.5619  H     
28   H        26.5428    6.8291   63.1817  H     
29   H        21.6688    7.9203   61.0512  H     
30   H        22.8812    9.0548   59.3059  H     
31   H        25.2131    8.5882   58.9239  H     
32   H        33.6007    9.4639   63.7666  H     
33   H        32.1401   10.3642   64.1920  H     
34   H        30.5470    8.3518   67.5109  H     
35   H        31.9904    7.4331   67.0383  H     
36   H        31.4796    8.1652   63.2860  H     
37   H        32.5757    7.3210   64.3976  H     
38   H        30.0987    8.9719   65.1778  H     
39   H        30.4630    6.0945   65.6816  H     
40   H        31.5687   10.4724   66.7960  H     
41   H        32.7078    9.6263   67.8556  H     
42   H        33.9310    8.8988   66.0119  H     
43   H        33.7437   10.5425   65.8986  H     
@<TRIPOS>BOND
     1    1    2 1
     2    1    4 2
     3    1    6 1
     4    2    3 2
     5    2    8 1
     6    3    5 1
     7    4    5 1
     8    6    7 2
     9    6   21 am
    10    8    9 am
    11    9   10 2
    12    9   11 1
    13   11   15 2
    14   11   16 1
    15   12   13 2
    16   12   15 1
    17   13   14 1
    18   14   16 2
    19   15   24 1
    20   16   25 1
    21   17   19 1
    22   17   23 1
    23   18   20 1
    24   18   22 1
    25   19   20 1
    26   20   21 1
    27   22   23 1
    28    3   26 1
    29    5   27 1
    30    8   28 1
    31   12   29 1
    32   13   30 1
    33   14   31 1
    34   17   32 1
    35   17   33 1
    36   18   34 1
    37   18   35 1
    38   19   36 1
    39   19   37 1
    40   20   38 1
    41   21   39 1
    42   22   40 1
    43   22   41 1
    44   23   42 1
    45   23   43 1
@<TRIPOS>PROPERTY_DATA
  Total_Score	| 8.3498
  Crash		| -1.5006
  Polar		| 4.3528
  FragIndex	| 1
  FragRMSD	| 0.549

