@<TRIPOS>MOLECULE
BindingDB_24651
 43 45 0 0 0
SMALL
NO_CHARGES


@<TRIPOS>ATOM
1    C        28.2155    5.4294   64.5947  C     
2    C        27.0170    5.0517   63.9595  C     
3    C        26.7581    3.7645   64.4207  C     
4    N        28.5963    4.3869   65.3751  N     
5    N        27.7345    3.4267   65.2606  N     
6    C        28.8716    6.6612   64.5473  C     
7    O        28.3203    7.5920   63.9711  O     
8    N        26.2831    5.7786   63.0674  N     
9    C        25.1717    5.4432   62.4211  C     
10   O        24.5822    4.4007   62.6591  O     
11   C        24.5507    6.3782   61.6145  C     
12   C        24.5865    7.8730   59.6605  C     
13   C        23.2918    8.3371   60.0213  C     
14   C        22.6282    7.8312   61.1682  C     
15   C        25.2310    6.9282   60.4791  C     
16   C        23.2155    6.7996   61.9254  C     
17   F        26.4620    6.5529   60.1823  F     
18   F        22.5669    6.3142   62.9691  F     
19   C        32.7441    9.5209   64.3959  C     
20   C        31.3245    8.2837   66.6805  C     
21   C        31.9065    8.2277   64.2008  C     
22   C        30.7619    8.1161   65.2439  C     
23   N        30.0635    6.8560   65.1132  N     
24   C        32.1248    9.6128   66.8012  C     
25   N        33.2130    9.6856   65.7940  N     
26   F        22.7188    9.2540   59.2957  F     
27   H        25.9592    3.1625   64.2007  H     
28   H        27.7514    2.5728   65.7121  H     
29   H        26.6129    6.6617   62.8620  H     
30   H        25.0942    8.2754   58.8453  H     
31   H        21.6855    8.1896   61.4330  H     
32   H        33.6228    9.5011   63.7462  H     
33   H        32.1441   10.3945   64.1223  H     
34   H        30.5062    8.2927   67.4027  H     
35   H        31.9933    7.4478   66.9222  H     
36   H        31.4908    8.2340   63.1901  H     
37   H        32.5669    7.3576   64.2719  H     
38   H        30.0848    8.9563   65.0723  H     
39   H        30.5167    6.0785   65.4753  H     
40   H        31.4436   10.4626   66.6698  H     
41   H        32.5641    9.6983   67.8025  H     
42   H        33.8954    8.9513   66.0059  H     
43   H        33.6711   10.5940   65.8841  H     
@<TRIPOS>BOND
     1    1    2 1
     2    1    4 2
     3    1    6 1
     4    2    3 2
     5    2    8 1
     6    3    5 1
     7    4    5 1
     8    6    7 2
     9    6   23 am
    10    8    9 am
    11    9   10 2
    12    9   11 1
    13   11   15 2
    14   11   16 1
    15   12   13 2
    16   12   15 1
    17   13   14 1
    18   13   26 1
    19   14   16 2
    20   15   17 1
    21   16   18 1
    22   19   21 1
    23   19   25 1
    24   20   22 1
    25   20   24 1
    26   21   22 1
    27   22   23 1
    28   24   25 1
    29    3   27 1
    30    5   28 1
    31    8   29 1
    32   12   30 1
    33   14   31 1
    34   19   32 1
    35   19   33 1
    36   20   34 1
    37   20   35 1
    38   21   36 1
    39   21   37 1
    40   22   38 1
    41   23   39 1
    42   24   40 1
    43   24   41 1
    44   25   42 1
    45   25   43 1
@<TRIPOS>PROPERTY_DATA
  Total_Score	| 8.9358
  Crash		| -0.7827
  Polar		| 4.3507
  FragIndex	| 1
  FragRMSD	| 0.451

