@<TRIPOS>MOLECULE
BindingDB_24641
 40 42 0 0 0
SMALL
NO_CHARGES


@<TRIPOS>ATOM
1    C        27.9211    5.6890   64.3237  C     
2    C        29.0899    5.9027   65.0851  C     
3    C        29.0233    4.9144   66.0630  C     
4    N        27.3092    4.5994   64.8271  N     
5    N        27.9601    4.1449   65.8343  N     
6    C        27.3176    6.3485   63.2671  C     
7    O        27.8987    7.2577   62.7039  O     
8    N        26.0562    6.0626   62.9414  N     
9    C        25.2787    6.6457   61.9823  C     
10   C        24.9348    7.6509   59.7724  C     
11   C        25.7641    6.9968   60.7004  C     
12   C        23.9213    6.8963   62.2844  C     
13   C        23.0871    7.5423   61.3524  C     
14   C        23.5991    7.9366   60.1029  C     
15   F        22.8362    8.5731   59.2592  F     
16   N        30.1814    6.7268   65.1679  N     
17   C        30.7302    7.6332   64.3681  C     
18   O        30.2935    7.9192   63.2656  O     
19   C        31.9489    8.3062   64.7925  C     
20   C        31.6206    9.4680   65.6620  C     
21   C        31.1389   10.4175   67.8731  C     
22   C        30.8821   11.6706   67.2886  C     
23   C        30.9964   11.8312   65.8960  C     
24   C        31.3575   10.7361   65.0896  C     
25   C        31.5102    9.3248   67.0661  C     
26   H        29.6815    4.7718   66.8317  H     
27   H        27.6978    3.3669   66.3472  H     
28   H        25.5987    5.4407   63.5295  H     
29   H        25.3045    7.9146   58.8556  H     
30   H        26.7242    6.7738   60.4281  H     
31   H        23.5397    6.6407   63.1995  H     
32   H        22.1129    7.7442   61.5954  H     
33   H        30.7213    6.5357   65.9519  H     
34   H        32.6010    7.5977   65.3139  H     
35   H        32.5205    8.6537   63.9257  H     
36   H        31.0487   10.2987   68.8849  H     
37   H        30.6064   12.4631   67.8735  H     
38   H        30.8083   12.7408   65.4667  H     
39   H        31.4163   10.8656   64.0773  H     
40   H        31.6811    8.4188   67.5095  H     
@<TRIPOS>BOND
     1    1    2 1
     2    1    4 2
     3    1    6 1
     4    2    3 2
     5    2   16 1
     6    3    5 1
     7    4    5 1
     8    6    7 2
     9    6    8 am
    10    8    9 1
    11    9   11 2
    12    9   12 1
    13   10   11 1
    14   10   14 2
    15   12   13 2
    16   13   14 1
    17   14   15 1
    18   16   17 am
    19   17   18 2
    20   17   19 1
    21   19   20 1
    22   20   24 2
    23   20   25 1
    24   21   22 1
    25   21   25 2
    26   22   23 2
    27   23   24 1
    28    3   26 1
    29    5   27 1
    30    8   28 1
    31   10   29 1
    32   11   30 1
    33   12   31 1
    34   13   32 1
    35   16   33 1
    36   19   34 1
    37   19   35 1
    38   21   36 1
    39   22   37 1
    40   23   38 1
    41   24   39 1
    42   25   40 1
@<TRIPOS>PROPERTY_DATA
  Total_Score	| 3.0754
  Crash		| -2.3666
  Polar		| 0.8751
  FragIndex	| 1
  FragRMSD	| 1.287

