@<TRIPOS>MOLECULE
BindingDB_24645
 37 39 0 0 0
SMALL
NO_CHARGES


@<TRIPOS>ATOM
1    C        28.0651    5.4088   64.7994  C     
2    C        26.9804    5.0006   64.0200  C     
3    C        26.8322    3.6457   64.2851  C     
4    N        28.5215    4.3180   65.4471  N     
5    N        27.7930    3.2970   65.1373  N     
6    C        28.5974    6.6781   64.9500  C     
7    O        27.9856    7.6362   64.4922  O     
8    N        29.7522    6.8494   65.5879  N     
9    N        26.2798    5.7736   63.1423  N     
10   C        25.0999    5.5159   62.5981  C     
11   O        24.4255    4.5416   62.9198  O     
12   C        24.5506    6.4310   61.7136  C     
13   C        22.6647    7.8267   61.0061  C     
14   C        23.4359    8.3438   59.9500  C     
15   C        24.7589    7.9158   59.7721  C     
16   C        23.2146    6.8713   61.8824  C     
17   C        25.3245    6.9647   60.6490  C     
18   F        22.4730    6.4551   62.8787  F     
19   F        26.5567    6.5855   60.4317  F     
20   C        30.4067    8.1077   65.8282  C     
21   C        31.6886    8.2187   64.9738  C     
22   C        31.4992    8.1531   63.4490  C     
23   C        31.9317    9.4686   64.1038  C     
24   H        26.1522    3.0023   63.8861  H     
25   H        27.9197    2.3913   65.4751  H     
26   H        30.2208    6.0514   65.8931  H     
27   H        26.6884    6.6217   62.9018  H     
28   H        21.7115    8.1619   61.1539  H     
29   H        23.0321    9.0374   59.3228  H     
30   H        25.3186    8.3031   59.0112  H     
31   H        29.7625    8.9655   65.6637  H     
32   H        30.6868    8.1166   66.8859  H     
33   H        32.5901    7.7113   65.3220  H     
34   H        32.2686    7.6032   62.9105  H     
35   H        30.4745    8.1390   63.0646  H     
36   H        31.1598   10.2426   64.0587  H     
37   H        32.9687    9.7449   63.8989  H     
@<TRIPOS>BOND
     1    1    2 1
     2    1    4 2
     3    1    6 1
     4    2    3 2
     5    2    9 1
     6    3    5 1
     7    4    5 1
     8    6    7 2
     9    6    8 am
    10    8   20 1
    11    9   10 am
    12   10   11 2
    13   10   12 1
    14   12   16 2
    15   12   17 1
    16   13   14 2
    17   13   16 1
    18   14   15 1
    19   15   17 2
    20   16   18 1
    21   17   19 1
    22   20   21 1
    23   21   22 1
    24   21   23 1
    25   22   23 1
    26    3   24 1
    27    5   25 1
    28    8   26 1
    29    9   27 1
    30   13   28 1
    31   14   29 1
    32   15   30 1
    33   20   31 1
    34   20   32 1
    35   21   33 1
    36   22   34 1
    37   22   35 1
    38   23   36 1
    39   23   37 1
@<TRIPOS>PROPERTY_DATA
  Total_Score	| 6.8727
  Crash		| -0.8991
  Polar		| 3.0853
  FragIndex	| 1
  FragRMSD	| 0.601

