@<TRIPOS>MOLECULE
BindingDB_24639
 30 31 0 0 0
SMALL
NO_CHARGES


@<TRIPOS>ATOM
1    C        28.3399    5.4534   64.5554  C     
2    C        27.0945    5.1742   63.9695  C     
3    C        26.7614    3.8936   64.4033  C     
4    N        28.6778    4.3703   65.2942  N     
5    N        27.7498    3.4719   65.1977  N     
6    C        29.1142    6.6063   64.4246  C     
7    O        28.7786    7.4134   63.5694  O     
8    N        30.2134    6.7976   65.1614  N     
9    C        31.0703    7.8797   65.2081  C     
10   C        32.8248    9.3750   64.3584  C     
11   C        31.9793    8.2716   64.1928  C     
12   C        30.9898    8.6996   66.3651  C     
13   C        31.8255    9.8199   66.5232  C     
14   C        32.7577   10.1507   65.5293  C     
15   F        33.5528   11.1759   65.6975  F     
16   N        26.3913    6.0182   63.1655  N     
17   C        25.2438    5.8189   62.5370  C     
18   C        24.7155    6.8924   61.7255  C     
19   O        24.6136    4.7722   62.6061  O     
20   H        25.9318    3.3500   64.1754  H     
21   H        27.7632    2.6053   65.6201  H     
22   H        30.4635    6.0422   65.7160  H     
23   H        33.4843    9.6216   63.6120  H     
24   H        32.0186    7.7815   63.2974  H     
25   H        30.3273    8.4701   67.1128  H     
26   H        31.7733   10.3837   67.3689  H     
27   H        26.7863    6.8913   63.0333  H     
28   H        24.5353    7.7680   62.3502  H     
29   H        23.7726    6.6103   61.2488  H     
30   H        25.4309    7.1513   60.9431  H     
@<TRIPOS>BOND
     1    1    2 1
     2    1    4 2
     3    1    6 1
     4    2    3 2
     5    2   16 1
     6    3    5 1
     7    4    5 1
     8    6    7 2
     9    6    8 am
    10    8    9 1
    11    9   11 2
    12    9   12 1
    13   10   11 1
    14   10   14 2
    15   12   13 2
    16   13   14 1
    17   14   15 1
    18   16   17 am
    19   17   18 1
    20   17   19 2
    21    3   20 1
    22    5   21 1
    23    8   22 1
    24   10   23 1
    25   11   24 1
    26   12   25 1
    27   13   26 1
    28   16   27 1
    29   18   28 1
    30   18   29 1
    31   18   30 1
@<TRIPOS>PROPERTY_DATA
  Total_Score	| 4.8659
  Crash		| -0.3828
  Polar		| 3.2613
  FragIndex	| 1
  FragRMSD	| 0.555

