@<TRIPOS>MOLECULE
BindingDB_24650
 43 45 0 0 0
SMALL
NO_CHARGES


@<TRIPOS>ATOM
1    C        28.1470    5.3517   64.6125  C     
2    C        26.9657    4.9324   63.9854  C     
3    C        26.8038    3.6033   64.3581  C     
4    N        28.6163    4.2932   65.3089  N     
5    N        27.8270    3.2800   65.1550  N     
6    C        28.7574    6.5997   64.5787  C     
7    O        28.2033    7.5098   63.9785  O     
8    N        26.2047    5.6804   63.1410  N     
9    C        24.9857    5.4482   62.6736  C     
10   O        24.3282    4.4771   63.0301  O     
11   C        24.4088    6.3617   61.7891  C     
12   C        22.5203    7.7769   61.1061  C     
13   C        23.2457    8.2285   59.9899  C     
14   C        24.5463    7.7547   59.7632  C     
15   C        23.0922    6.8516   61.9983  C     
16   C        25.1250    6.8291   60.6524  C     
17   F        22.3682    6.4746   63.0231  F     
18   F        26.3138    6.3789   60.3488  F     
19   C        32.4203    9.3963   66.5265  C     
20   C        31.2063    8.5522   63.9707  C     
21   C        31.6766    8.0369   66.4112  C     
22   C        30.5701    8.0934   65.3177  C     
23   N        29.9078    6.8222   65.2132  N     
24   C        32.9558    9.8766   65.1518  C     
25   N        31.8822    9.8594   64.1261  N     
26   H        26.0749    2.9565   64.0646  H     
27   H        27.9587    2.3955   65.5335  H     
28   H        26.6075    6.5155   62.8549  H     
29   H        21.5775    8.1351   61.2679  H     
30   H        22.8153    8.8853   59.3340  H     
31   H        25.0600    8.0704   58.9359  H     
32   H        31.7313   10.1483   66.9219  H     
33   H        33.2551    9.2907   67.2298  H     
34   H        31.9197    7.8049   63.6207  H     
35   H        30.4320    8.6633   63.2064  H     
36   H        32.3955    7.2527   66.1601  H     
37   H        31.2246    7.7863   67.3764  H     
38   H        29.8365    8.8443   65.6353  H     
39   H        30.3020    6.0755   65.6944  H     
40   H        33.3385   10.8952   65.2415  H     
41   H        33.7716    9.2302   64.8275  H     
42   H        32.2824   10.1006   63.2168  H     
43   H        31.1821   10.5598   64.3829  H     
@<TRIPOS>BOND
     1    1    2 1
     2    1    4 2
     3    1    6 1
     4    2    3 2
     5    2    8 1
     6    3    5 1
     7    4    5 1
     8    6    7 2
     9    6   23 am
    10    8    9 am
    11    9   10 2
    12    9   11 1
    13   11   15 2
    14   11   16 1
    15   12   13 2
    16   12   15 1
    17   13   14 1
    18   14   16 2
    19   15   17 1
    20   16   18 1
    21   19   21 1
    22   19   24 1
    23   20   22 1
    24   20   25 1
    25   21   22 1
    26   22   23 1
    27   24   25 1
    28    3   26 1
    29    5   27 1
    30    8   28 1
    31   12   29 1
    32   13   30 1
    33   14   31 1
    34   19   32 1
    35   19   33 1
    36   20   34 1
    37   20   35 1
    38   21   36 1
    39   21   37 1
    40   22   38 1
    41   23   39 1
    42   24   40 1
    43   24   41 1
    44   25   42 1
    45   25   43 1
@<TRIPOS>PROPERTY_DATA
  Total_Score	| 7.7767
  Crash		| -1.3003
  Polar		| 4.3459
  FragIndex	| 1
  FragRMSD	| 0.997

