@<TRIPOS>MOLECULE
BindingDB_24649
 43 45 0 0 0
SMALL
NO_CHARGES


@<TRIPOS>ATOM
1    C        28.0743    5.3569   64.7750  C     
2    C        26.9192    4.9434   64.0935  C     
3    C        26.8027    3.5871   64.3506  C     
4    N        28.5976    4.2494   65.3470  N     
5    N        27.8535    3.2244   65.0879  N     
6    C        28.5943    6.6287   64.9738  C     
7    O        27.8857    7.5940   64.7205  O     
8    N        25.9928    5.5737   63.3236  N     
9    C        26.1760    6.5078   62.3984  C     
10   O        27.3189    6.8846   62.1496  O     
11   C        25.0958    7.0122   61.6513  C     
12   C        22.6983    7.5713   61.4277  C     
13   C        22.9208    8.0864   60.1438  C     
14   C        24.2116    8.0606   59.5992  C     
15   C        23.7666    7.0408   62.1750  C     
16   C        25.2856    7.5238   60.3345  C     
17   F        23.4686    6.6334   63.3824  F     
18   F        26.4437    7.4851   59.7285  F     
19   C        30.3098    9.8726   64.2447  C     
20   C        32.0278    8.1084   63.7983  C     
21   C        32.0054    7.7868   65.3198  C     
22   C        30.0495    9.3400   65.6857  C     
23   C        30.5795    7.8928   65.9336  C     
24   N        29.7998    6.7504   65.5232  N     
25   N        30.8406    8.8513   63.3132  N     
26   H        26.0638    2.9630   64.0218  H     
27   H        28.0167    2.3223   65.3992  H     
28   H        25.1061    5.1885   63.3655  H     
29   H        21.7539    7.5991   61.8204  H     
30   H        22.1430    8.4770   59.6091  H     
31   H        24.3618    8.4222   58.6551  H     
32   H        29.3809   10.2572   63.8231  H     
33   H        31.0127   10.7134   64.2821  H     
34   H        32.9255    8.6869   63.5586  H     
35   H        32.0727    7.1703   63.2389  H     
36   H        32.4220    6.7920   65.4959  H     
37   H        32.6573    8.4990   65.8367  H     
38   H        30.5592   10.0100   66.3868  H     
39   H        28.9901    9.4001   65.9313  H     
40   H        30.6856    7.7746   67.0172  H     
41   H        30.2376    5.9076   65.7187  H     
42   H        30.0964    8.1729   63.1244  H     
43   H        31.0842    9.3121   62.4322  H     
@<TRIPOS>BOND
     1    1    2 1
     2    1    4 2
     3    1    6 1
     4    2    3 2
     5    2    8 1
     6    3    5 1
     7    4    5 1
     8    6    7 2
     9    6   24 am
    10    8    9 am
    11    9   10 2
    12    9   11 1
    13   11   15 2
    14   11   16 1
    15   12   13 2
    16   12   15 1
    17   13   14 1
    18   14   16 2
    19   15   17 1
    20   16   18 1
    21   19   22 1
    22   19   25 1
    23   20   21 1
    24   20   25 1
    25   21   23 1
    26   22   23 1
    27   23   24 1
    28    3   26 1
    29    5   27 1
    30    8   28 1
    31   12   29 1
    32   13   30 1
    33   14   31 1
    34   19   32 1
    35   19   33 1
    36   20   34 1
    37   20   35 1
    38   21   36 1
    39   21   37 1
    40   22   38 1
    41   22   39 1
    42   23   40 1
    43   24   41 1
    44   25   42 1
    45   25   43 1
@<TRIPOS>PROPERTY_DATA
  Total_Score	| 8.9015
  Crash		| -1.8876
  Polar		| 4.7548
  FragIndex	| 1
  FragRMSD	| 1.394

