@<TRIPOS>MOLECULE
BindingDB_24644
 37 39 0 0 0
SMALL
NO_CHARGES


@<TRIPOS>ATOM
1    C        28.2267    5.4074   64.6271  C     
2    C        27.0543    5.0359   63.9646  C     
3    C        26.8018    3.7283   64.3617  C     
4    N        28.6179    4.3457   65.3630  N     
5    N        27.7731    3.3731   65.2069  N     
6    C        28.9124    6.6136   64.5832  C     
7    O        28.5051    7.5214   63.8566  O     
8    N        30.0775    6.7597   65.2209  N     
9    C        30.8451    7.8825   65.2495  C     
10   C        32.6298    9.2279   64.2502  C     
11   C        31.8178    8.0761   64.2425  C     
12   C        30.7469    8.8234   66.2988  C     
13   C        31.5883    9.9452   66.3366  C     
14   C        32.5241   10.1589   65.3073  C     
15   F        33.3082   11.1948   65.3245  F     
16   N        26.3570    5.7939   63.0765  N     
17   C        25.1591    5.5589   62.5487  C     
18   O        24.4903    4.5865   62.8757  O     
19   C        24.5972    6.4834   61.6735  C     
20   C        24.7685    7.9817   59.7309  C     
21   C        23.4451    8.4106   59.9262  C     
22   C        22.6941    7.8786   60.9854  C     
23   C        25.3388    7.0233   60.5909  C     
24   C        23.2595    6.9249   61.8507  C     
25   F        26.5545    6.6206   60.3365  F     
26   F        22.5308    6.4969   62.8437  F     
27   H        26.0625    3.1067   64.0572  H     
28   H        27.8358    2.4991   65.6111  H     
29   H        30.4794    5.9471   65.5907  H     
30   H        33.2901    9.3894   63.5011  H     
31   H        31.9094    7.3924   63.4848  H     
32   H        30.0792    8.6722   67.0545  H     
33   H        31.5192   10.6153   67.1036  H     
34   H        26.7786    6.6286   62.8145  H     
35   H        25.3101    8.3627   58.9519  H     
36   H        23.0309    9.1030   59.3032  H     
37   H        21.7357    8.1982   61.1360  H     
@<TRIPOS>BOND
     1    1    2 1
     2    1    4 2
     3    1    6 1
     4    2    3 2
     5    2   16 1
     6    3    5 1
     7    4    5 1
     8    6    7 2
     9    6    8 am
    10    8    9 1
    11    9   11 2
    12    9   12 1
    13   10   11 1
    14   10   14 2
    15   12   13 2
    16   13   14 1
    17   14   15 1
    18   16   17 am
    19   17   18 2
    20   17   19 1
    21   19   23 2
    22   19   24 1
    23   20   21 2
    24   20   23 1
    25   21   22 1
    26   22   24 2
    27   23   25 1
    28   24   26 1
    29    3   27 1
    30    5   28 1
    31    8   29 1
    32   10   30 1
    33   11   31 1
    34   12   32 1
    35   13   33 1
    36   16   34 1
    37   20   35 1
    38   21   36 1
    39   22   37 1
@<TRIPOS>PROPERTY_DATA
  Total_Score	| 6.6936
  Crash		| -0.7291
  Polar		| 3.1742
  FragIndex	| 1
  FragRMSD	| 0.510

