@<TRIPOS>MOLECULE
BindingDB_24648
 46 48 0 0 0
SMALL
NO_CHARGES


@<TRIPOS>ATOM
1    C        28.1912    5.4005   64.6055  C     
2    C        27.0108    5.0123   63.9566  C     
3    C        26.7924    3.6981   64.3607  C     
4    N        28.6104    4.3463   65.3341  N     
5    N        27.7872    3.3597   65.1774  N     
6    C        28.8453    6.6260   64.5656  C     
7    O        28.3884    7.5237   63.8711  O     
8    N        26.2915    5.7746   63.0854  N     
9    C        25.0658    5.5800   62.6018  C     
10   O        24.3733    4.6486   62.9942  O     
11   C        24.5243    6.4841   61.6841  C     
12   C        22.6315    7.8356   60.8764  C     
13   C        23.4244    8.3516   59.8382  C     
14   C        24.7600    7.9389   59.7107  C     
15   C        23.1694    6.9105   61.7897  C     
16   C        25.3063    7.0077   60.6179  C     
17   F        22.3901    6.4945   62.7550  F     
18   F        26.5398    6.6222   60.4041  F     
19   C        32.2746    9.4646   66.8260  C     
20   C        33.3136    9.5047   65.6768  C     
21   C        32.6111    9.4202   64.2974  C     
22   C        31.7333    8.1411   64.2022  C     
23   C        31.3958    8.1883   66.7410  C     
24   C        30.6926    8.0644   65.3590  C     
25   N        29.9436    6.8359   65.2862  N     
26   N        34.1694   10.6932   65.7542  N     
27   H        26.0437    3.0681   64.0685  H     
28   H        27.8793    2.4818   65.5813  H     
29   H        26.7295    6.5889   62.7950  H     
30   H        21.6622    8.1471   60.9634  H     
31   H        23.0316    9.0226   59.1749  H     
32   H        25.3299    8.3091   58.9436  H     
33   H        32.7955    9.4779   67.7861  H     
34   H        31.6390   10.3477   66.7755  H     
35   H        33.9792    8.6470   65.7785  H     
36   H        31.9878   10.3093   64.1444  H     
37   H        33.3595    9.3998   63.4998  H     
38   H        31.2144    8.1427   63.2395  H     
39   H        32.3842    7.2589   64.2330  H     
40   H        32.0165    7.3059   66.9223  H     
41   H        30.6386    8.2239   67.5302  H     
42   H        30.0089    8.9175   65.2719  H     
43   H        30.2970    6.0840   65.7900  H     
44   H        33.6255   11.5268   65.5278  H     
45   H        34.9421   10.5862   65.0863  H     
46   H        34.5523   10.7840   66.6974  H     
@<TRIPOS>BOND
     1    1    2 1
     2    1    4 2
     3    1    6 1
     4    2    3 2
     5    2    8 1
     6    3    5 1
     7    4    5 1
     8    6    7 2
     9    6   25 am
    10    8    9 am
    11    9   10 2
    12    9   11 1
    13   11   15 2
    14   11   16 1
    15   12   13 2
    16   12   15 1
    17   13   14 1
    18   14   16 2
    19   15   17 1
    20   16   18 1
    21   19   20 1
    22   19   23 1
    23   20   21 1
    24   20   26 1
    25   21   22 1
    26   22   24 1
    27   23   24 1
    28   24   25 1
    29    3   27 1
    30    5   28 1
    31    8   29 1
    32   12   30 1
    33   13   31 1
    34   14   32 1
    35   19   33 1
    36   19   34 1
    37   20   35 1
    38   21   36 1
    39   21   37 1
    40   22   38 1
    41   22   39 1
    42   23   40 1
    43   23   41 1
    44   24   42 1
    45   25   43 1
    46   26   44 1
    47   26   45 1
    48   26   46 1
@<TRIPOS>PROPERTY_DATA
  Total_Score	| 7.9409
  Crash		| -1.7047
  Polar		| 4.1657
  FragIndex	| 1
  FragRMSD	| 0.486

