@<TRIPOS>MOLECULE
BindingDB_24642
 43 45 0 0 0
SMALL
NO_CHARGES


@<TRIPOS>ATOM
1    C        28.1641    5.4002   64.5223  C     
2    C        26.9333    5.0524   63.9513  C     
3    C        26.6690    3.7627   64.4188  C     
4    N        28.5773    4.3429   65.2580  N     
5    N        27.6985    3.4032   65.1918  N     
6    C        28.9089    6.5650   64.3668  C     
7    O        28.4841    7.4614   63.6219  O     
8    N        30.0672    6.7011   65.0137  N     
9    C        30.9283    7.7682   65.0649  C     
10   C        32.7112    9.2363   64.2352  C     
11   C        31.8443    8.1388   64.0472  C     
12   C        30.9178    8.5100   66.2650  C     
13   C        31.7848    9.5996   66.4552  C     
14   C        32.6940    9.9550   65.4449  C     
15   F        33.5225   10.9473   65.6249  F     
16   N        26.1812    5.8230   63.1139  N     
17   C        25.3146    5.4230   62.1875  C     
18   O        25.0213    4.2364   62.0674  O     
19   C        24.6678    6.3704   61.2832  C     
20   C        24.8103    8.6317   60.0255  C     
21   C        23.4203    9.0299   60.5704  C     
22   C        22.5466    7.7929   60.9082  C     
23   C        23.2683    6.7755   61.8282  C     
24   C        25.5372    7.6283   60.9710  C     
25   H        25.8644    3.1726   64.2385  H     
26   H        27.7817    2.5428   65.6097  H     
27   H        30.3177    5.9461   65.5898  H     
28   H        33.3658    9.4795   63.4933  H     
29   H        31.8960    7.6068   63.1803  H     
30   H        30.2619    8.2794   67.0160  H     
31   H        31.7654   10.1260   67.3267  H     
32   H        26.3671    6.7737   63.1484  H     
33   H        24.5021    5.8724   60.3175  H     
34   H        24.6869    8.1745   59.0445  H     
35   H        25.4175    9.5333   59.8991  H     
36   H        23.5528    9.6428   61.4649  H     
37   H        22.8968    9.6416   59.8266  H     
38   H        21.6309    8.1278   61.4001  H     
39   H        22.2602    7.2930   59.9787  H     
40   H        22.6443    5.8826   61.9059  H     
41   H        23.3603    7.1988   62.8313  H     
42   H        25.7798    8.1561   61.8944  H     
43   H        26.4775    7.3242   60.5022  H     
@<TRIPOS>BOND
     1    1    2 1
     2    1    4 2
     3    1    6 1
     4    2    3 2
     5    2   16 1
     6    3    5 1
     7    4    5 1
     8    6    7 2
     9    6    8 am
    10    8    9 1
    11    9   11 2
    12    9   12 1
    13   10   11 1
    14   10   14 2
    15   12   13 2
    16   13   14 1
    17   14   15 1
    18   16   17 am
    19   17   18 2
    20   17   19 1
    21   19   23 1
    22   19   24 1
    23   20   21 1
    24   20   24 1
    25   21   22 1
    26   22   23 1
    27    3   25 1
    28    5   26 1
    29    8   27 1
    30   10   28 1
    31   11   29 1
    32   12   30 1
    33   13   31 1
    34   16   32 1
    35   19   33 1
    36   20   34 1
    37   20   35 1
    38   21   36 1
    39   21   37 1
    40   22   38 1
    41   22   39 1
    42   23   40 1
    43   23   41 1
    44   24   42 1
    45   24   43 1
@<TRIPOS>PROPERTY_DATA
  Total_Score	| 6.5705
  Crash		| -1.2579
  Polar		| 3.1129
  FragIndex	| 1
  FragRMSD	| 0.723

