@<TRIPOS>MOLECULE
BindingDB_24653
 43 45 0 0 0
SMALL
NO_CHARGES


@<TRIPOS>ATOM
1    C        28.1686    5.5066   64.6518  C     
2    C        27.0175    5.0978   63.9729  C     
3    C        26.8387    3.7623   64.3225  C     
4    N        28.6206    4.4340   65.3355  N     
5    N        27.8341    3.4248   65.1427  N     
6    C        28.7794    6.7577   64.6497  C     
7    O        28.2277    7.6881   64.0742  O     
8    N        26.2802    5.8561   63.1104  N     
9    C        25.1435    5.5511   62.4949  C     
10   O        24.5263    4.5209   62.7377  O     
11   C        24.5781    6.4674   61.6199  C     
12   C        24.7039    7.9779   59.6917  C     
13   C        23.3633    8.3535   59.8826  C     
14   C        22.6293    7.7907   60.9325  C     
15   C        25.3150    7.0426   60.5450  C     
16   C        23.2265    6.8576   61.7970  C     
17   F        22.5023    6.3971   62.7805  F     
18   C        32.6913    9.4792   64.4352  C     
19   C        31.2791    8.3355   66.7760  C     
20   C        31.7955    8.2218   64.2743  C     
21   C        30.6767    8.1835   65.3515  C     
22   N        29.9431    6.9447   65.2602  N     
23   C        32.1984    9.5793   66.8736  C     
24   N        33.2293    9.5819   65.8102  N     
25   Cl       26.9155    6.6104   60.1693  Cl    
26   H        26.1142    3.1151   64.0072  H     
27   H        27.9500    2.5371   65.5190  H     
28   H        26.6458    6.7296   62.9094  H     
29   H        25.2258    8.3933   58.9162  H     
30   H        22.9256    9.0304   59.2551  H     
31   H        21.6584    8.0757   61.0791  H     
32   H        33.5286    9.4205   63.7363  H     
33   H        32.1207   10.3823   64.1993  H     
34   H        30.4710    8.4271   67.5092  H     
35   H        31.8618    7.4445   67.0287  H     
36   H        31.3456    8.2310   63.2752  H     
37   H        32.4217    7.3284   64.3562  H     
38   H        30.0126    9.0377   65.1837  H     
39   H        30.3618    6.1630   65.6561  H     
40   H        31.6023   10.4928   66.8015  H     
41   H        32.7030    9.5836   67.8405  H     
42   H        33.8548    8.7905   65.9710  H     
43   H        33.7768   10.4400   65.8832  H     
@<TRIPOS>BOND
     1    1    2 1
     2    1    4 2
     3    1    6 1
     4    2    3 2
     5    2    8 1
     6    3    5 1
     7    4    5 1
     8    6    7 2
     9    6   22 am
    10    8    9 am
    11    9   10 2
    12    9   11 1
    13   11   15 2
    14   11   16 1
    15   12   13 2
    16   12   15 1
    17   13   14 1
    18   14   16 2
    19   15   25 1
    20   16   17 1
    21   18   20 1
    22   18   24 1
    23   19   21 1
    24   19   23 1
    25   20   21 1
    26   21   22 1
    27   23   24 1
    28    3   26 1
    29    5   27 1
    30    8   28 1
    31   12   29 1
    32   13   30 1
    33   14   31 1
    34   18   32 1
    35   18   33 1
    36   19   34 1
    37   19   35 1
    38   20   36 1
    39   20   37 1
    40   21   38 1
    41   22   39 1
    42   23   40 1
    43   23   41 1
    44   24   42 1
    45   24   43 1
@<TRIPOS>PROPERTY_DATA
  Total_Score	| 8.6881
  Crash		| -0.7728
  Polar		| 4.1485
  FragIndex	| 1
  FragRMSD	| 1.499

