@<TRIPOS>MOLECULE
BindingDB_13485
 56 61 0 0 0
SMALL
NO_CHARGES


@<TRIPOS>ATOM
1    C        15.7371   17.1122   80.7296  C     
2    C        15.7317   17.2228   82.1340  C     
3    C        16.9133   17.0634   82.8672  C     
4    C        18.1374   16.7594   82.2368  C     
5    C        18.1226   16.5599   80.8334  C     
6    C        16.9431   16.7560   80.0803  C     
7    C        19.3820   16.6375   83.0615  C     
8    C        21.8007   16.4958   83.0165  C     
9    C        20.6891   17.3220   82.5711  C     
10   N        21.4921   15.3284   83.5199  N     
11   O        22.9670   16.8583   82.9620  O     
12   C        14.4603   17.3442   79.9898  C     
13   C        13.7209   18.6644   80.3635  C     
14   C        14.3693   19.8513   79.7776  C     
15   C        15.0231   21.3318   78.3243  C     
16   C        15.2643   21.8151   79.6207  C     
17   C        15.8703   23.4071   77.3923  C     
18   C        15.3380   22.1141   77.1971  C     
19   C        15.8268   23.0888   79.8267  C     
20   C        16.1267   23.8852   78.7060  C     
21   N        14.8433   20.8985   80.4974  N     
22   N        14.5133   20.1139   78.4548  N     
23   N        12.3816   18.6134   79.8562  N     
24   C        11.2759   19.1524   80.4075  C     
25   N        11.1648   19.9340   81.5082  N     
26   S         9.7017   18.9274   79.7504  S     
27   C         9.9053   20.3413   81.8081  C     
28   C         8.9076   19.8691   80.9357  C     
29   C         7.5442   20.1710   81.1172  C     
30   C         7.1842   20.9907   82.2088  C     
31   C         8.1702   21.4770   83.0957  C     
32   C         9.5326   21.1581   82.8929  C     
33   O        19.3569   14.4908   84.8620  O     
34   S        19.8625   14.9406   83.4195  S     
35   O        19.6538   13.9411   82.1934  O     
36   Br        5.3960   21.4214   82.4913  Br    
37   H        14.8633   17.4250   82.6306  H     
38   H        16.8705   17.1744   83.8874  H     
39   H        18.9686   16.2612   80.3406  H     
40   H        16.9694   16.6509   79.0659  H     
41   H        19.1799   17.0887   84.0453  H     
42   H        20.7425   17.4220   81.4782  H     
43   H        20.7801   18.3192   83.0069  H     
44   H        22.1636   14.7070   83.8582  H     
45   H        14.6108   17.3107   78.9078  H     
46   H        13.7989   16.5117   80.2106  H     
47   H        13.7136   18.7538   81.4718  H     
48   H        16.0912   24.0022   76.5838  H     
49   H        15.1747   21.7562   76.2547  H     
50   H        16.0113   23.4173   80.7805  H     
51   H        16.5172   24.8162   78.8368  H     
52   H        14.2584   19.5270   77.7253  H     
53   H        12.2357   18.1006   79.0403  H     
54   H         6.8369   19.8035   80.4774  H     
55   H         7.9029   22.0657   83.8894  H     
56   H        10.2425   21.5072   83.5362  H     
@<TRIPOS>BOND
     1    1    2 1
     2    1    6 2
     3    1   12 1
     4    2    3 2
     5    3    4 1
     6    4    5 2
     7    4    7 1
     8    5    6 1
     9    7    9 1
    10    7   34 1
    11    8    9 1
    12    8   10 1
    13    8   11 2
    14   10   34 1
    15   13   12 1
    16   13   14 1
    17   13   23 1
    18   14   21 2
    19   14   22 1
    20   15   16 2
    21   15   18 1
    22   15   22 1
    23   16   19 1
    24   16   21 1
    25   17   18 2
    26   17   20 1
    27   19   20 2
    28   23   24 1
    29   24   25 2
    30   24   26 1
    31   25   27 1
    32   26   28 1
    33   27   28 2
    34   27   32 1
    35   28   29 1
    36   29   30 2
    37   30   31 1
    38   30   36 1
    39   31   32 2
    40   33   34 2
    41   34   35 2
    42    2   37 1
    43    3   38 1
    44    5   39 1
    45    6   40 1
    46    7   41 1
    47    9   42 1
    48    9   43 1
    49   10   44 1
    50   12   45 1
    51   12   46 1
    52   13   47 1
    53   17   48 1
    54   18   49 1
    55   19   50 1
    56   20   51 1
    57   22   52 1
    58   23   53 1
    59   29   54 1
    60   31   55 1
    61   32   56 1
@<TRIPOS>PROPERTY_DATA
  Total_Score	| 11.0428
  Crash		| -1.4657
  Polar		| 6.8107
  FragIndex	| 1
  FragRMSD	| 0.123

