@<TRIPOS>MOLECULE
BindingDB_13487
 59 64 0 0 0
SMALL
NO_CHARGES


@<TRIPOS>ATOM
1    C        15.7585   17.1206   80.6469  C     
2    C        16.9941   16.8130   80.0308  C     
3    C        18.1646   16.6178   80.7986  C     
4    C        18.1454   16.7705   82.2051  C     
5    C        16.9029   17.0460   82.8185  C     
6    C        15.7336   17.1998   82.0564  C     
7    C        19.3681   16.6546   83.0601  C     
8    C        21.7819   16.4864   83.0554  C     
9    C        20.6944   17.3210   82.5873  C     
10   N        21.4646   15.3020   83.5156  N     
11   O        22.9564   16.8341   82.9925  O     
12   C        14.5087   17.3845   79.8679  C     
13   C        13.8077   18.7186   80.2868  C     
14   C        14.4669   19.8970   79.6775  C     
15   C        15.1790   21.3435   78.2225  C     
16   C        15.3825   21.8432   79.5072  C     
17   C        16.0306   23.3972   77.2724  C     
18   C        15.4942   22.1038   77.0859  C     
19   C        15.9487   23.1138   79.7056  C     
20   C        16.2620   23.8965   78.5751  C     
21   N        14.9325   20.9448   80.3901  N     
22   N        14.6428   20.1237   78.3609  N     
23   N        12.4200   18.7077   79.9317  N     
24   C        11.4103   19.3305   80.5839  C     
25   N        10.1265   19.2266   80.1837  N     
26   S        11.4478   20.3491   81.9746  S     
27   C         9.2209   19.9054   80.9338  C     
28   C         9.7511   20.6264   82.0146  C     
29   C         8.9281   21.3797   82.8739  C     
30   C         7.5285   21.4038   82.6456  C     
31   C         6.9978   20.6709   81.5542  C     
32   C         7.8356   19.9254   80.6987  C     
33   O        19.3622   14.4672   84.8450  O     
34   S        19.8306   14.9446   83.3986  S     
35   O        19.6760   13.9550   82.1613  O     
36   C         6.6500   22.1839   83.5468  C     
37   H        17.0523   16.7387   79.0126  H     
38   H        19.0399   16.3881   80.3217  H     
39   H        16.8358   17.1459   83.8362  H     
40   H        14.8582   17.3959   82.5454  H     
41   H        19.1515   17.0855   84.0455  H     
42   H        20.7471   17.4074   81.4957  H     
43   H        20.7946   18.3165   83.0341  H     
44   H        22.1261   14.6702   83.8423  H     
45   H        14.7118   17.3994   78.7941  H     
46   H        13.8281   16.5450   80.0452  H     
47   H        13.8802   18.8240   81.3715  H     
48   H        16.2462   23.9799   76.4609  H     
49   H        15.3174   21.7407   76.1473  H     
50   H        16.1112   23.4685   80.6482  H     
51   H        16.6507   24.8371   78.6999  H     
52   H        14.3911   19.5186   77.6432  H     
53   H        12.1748   18.1991   79.1406  H     
54   H         9.3421   21.8938   83.6521  H     
55   H         5.9898   20.6688   81.3698  H     
56   H         7.4426   19.4015   79.9150  H     
57   H         6.7510   21.8142   84.5688  H     
58   H         5.5970   22.1107   83.2602  H     
59   H         6.9378   23.2359   83.5176  H     
@<TRIPOS>BOND
     1    1    2 1
     2    1    6 2
     3    1   12 1
     4    2    3 2
     5    3    4 1
     6    4    5 2
     7    4    7 1
     8    5    6 1
     9    7    9 1
    10    7   34 1
    11    8    9 1
    12    8   10 1
    13    8   11 2
    14   10   34 1
    15   13   12 1
    16   13   14 1
    17   13   23 1
    18   14   21 2
    19   14   22 1
    20   15   16 2
    21   15   18 1
    22   15   22 1
    23   16   19 1
    24   16   21 1
    25   17   18 2
    26   17   20 1
    27   19   20 2
    28   23   24 1
    29   24   25 2
    30   24   26 1
    31   25   27 1
    32   26   28 1
    33   27   28 2
    34   27   32 1
    35   28   29 1
    36   29   30 2
    37   30   31 1
    38   30   36 1
    39   31   32 2
    40   33   34 2
    41   34   35 2
    42    2   37 1
    43    3   38 1
    44    5   39 1
    45    6   40 1
    46    7   41 1
    47    9   42 1
    48    9   43 1
    49   10   44 1
    50   12   45 1
    51   12   46 1
    52   13   47 1
    53   17   48 1
    54   18   49 1
    55   19   50 1
    56   20   51 1
    57   22   52 1
    58   23   53 1
    59   29   54 1
    60   31   55 1
    61   32   56 1
    62   36   57 1
    63   36   58 1
    64   36   59 1
@<TRIPOS>PROPERTY_DATA
  Total_Score	| 11.0067
  Crash		| -1.3513
  Polar		| 6.7526
  FragIndex	| 1
  FragRMSD	| 1.055

