@<TRIPOS>MOLECULE
BindingDB_13486
 56 61 0 0 0
SMALL
NO_CHARGES


@<TRIPOS>ATOM
1    C        15.6775   17.0383   80.6507  C     
2    C        16.8827   16.6974   80.0008  C     
3    C        18.0830   16.5595   80.7278  C     
4    C        18.1188   16.7331   82.1331  C     
5    C        16.8907   17.0102   82.7799  C     
6    C        15.6986   17.1722   82.0544  C     
7    C        19.3544   16.6828   82.9834  C     
8    C        21.7689   16.5330   83.0860  C     
9    C        20.6991   17.3424   82.5423  C     
10   N        21.4401   15.3500   83.5476  N     
11   O        22.9403   16.8647   83.0457  O     
12   C        14.4048   17.2816   79.9067  C     
13   C        13.6722   18.6043   80.3176  C     
14   C        14.3210   19.8316   79.7902  C     
15   C        15.0980   21.3378   78.4167  C     
16   C        15.3182   21.7555   79.7310  C     
17   C        16.1855   23.3352   77.5815  C     
18   C        15.5098   22.1220   77.3196  C     
19   C        15.9870   22.9642   79.9990  C     
20   C        16.4299   23.7521   78.9122  C     
21   N        14.8163   20.8254   80.5617  N     
22   N        14.4751   20.1566   78.4852  N     
23   N        12.3138   18.5227   79.8586  N     
24   C        11.2512   19.1235   80.4328  C     
25   N        11.2526   19.9062   81.5335  N     
26   S         9.6401   19.0082   79.8373  S     
27   C        10.0384   20.3880   81.8953  C     
28   C         8.9725   19.9982   81.0697  C     
29   C         7.6532   20.4095   81.3153  C     
30   C         7.4069   21.2440   82.4266  C     
31   C         8.4720   21.6458   83.2666  C     
32   C         9.7899   21.2164   83.0043  C     
33   O        19.3348   14.5131   84.8321  O     
34   S        19.8170   14.9838   83.3880  S     
35   O        19.7139   13.9509   82.1801  O     
36   Cl        5.8309   21.7660   82.7540  Cl    
37   H        16.9001   16.5695   78.9831  H     
38   H        18.9339   16.3374   80.2062  H     
39   H        16.8538   17.1136   83.7979  H     
40   H        14.8434   17.4083   82.5597  H     
41   H        19.0982   17.1612   83.9328  H     
42   H        20.8301   17.3865   81.4580  H     
43   H        20.7689   18.3580   82.9475  H     
44   H        22.0824   14.7244   83.9101  H     
45   H        14.5750   17.2886   78.8289  H     
46   H        13.7513   16.4199   80.0974  H     
47   H        13.6783   18.6796   81.4086  H     
48   H        16.4980   23.9203   76.7989  H     
49   H        15.3169   21.8222   76.3639  H     
50   H        16.1562   23.2597   80.9609  H     
51   H        16.9239   24.6309   79.0867  H     
52   H        14.1844   19.6320   77.7191  H     
53   H        12.1447   18.0060   79.0562  H     
54   H         6.8977   20.1111   80.6967  H     
55   H         8.2949   22.2543   84.0681  H     
56   H        10.5579   21.5076   83.6129  H     
@<TRIPOS>BOND
     1    1    2 1
     2    1    6 2
     3    1   12 1
     4    2    3 2
     5    3    4 1
     6    4    5 2
     7    4    7 1
     8    5    6 1
     9    7    9 1
    10    7   34 1
    11    8    9 1
    12    8   10 1
    13    8   11 2
    14   10   34 1
    15   13   12 1
    16   13   14 1
    17   13   23 1
    18   14   21 2
    19   14   22 1
    20   15   16 2
    21   15   18 1
    22   15   22 1
    23   16   19 1
    24   16   21 1
    25   17   18 2
    26   17   20 1
    27   19   20 2
    28   23   24 1
    29   24   25 2
    30   24   26 1
    31   25   27 1
    32   26   28 1
    33   27   28 2
    34   27   32 1
    35   28   29 1
    36   29   30 2
    37   30   31 1
    38   30   36 1
    39   31   32 2
    40   33   34 2
    41   34   35 2
    42    2   37 1
    43    3   38 1
    44    5   39 1
    45    6   40 1
    46    7   41 1
    47    9   42 1
    48    9   43 1
    49   10   44 1
    50   12   45 1
    51   12   46 1
    52   13   47 1
    53   17   48 1
    54   18   49 1
    55   19   50 1
    56   20   51 1
    57   22   52 1
    58   23   53 1
    59   29   54 1
    60   31   55 1
    61   32   56 1
@<TRIPOS>PROPERTY_DATA
  Total_Score	| 10.9518
  Crash		| -1.4934
  Polar		| 6.7202
  FragIndex	| 1
  FragRMSD	| 0.225

