@<TRIPOS>MOLECULE
BindingDB_13481
 56 61 0 0 0
SMALL
NO_CHARGES


@<TRIPOS>ATOM
1    C        15.7367   17.1408   80.7068  C     
2    C        16.9510   16.8367   80.0536  C     
3    C        18.1504   16.6864   80.7815  C     
4    C        18.1790   16.8397   82.1898  C     
5    C        16.9495   17.1034   82.8366  C     
6    C        15.7564   17.2565   82.1105  C     
7    C        19.4097   16.7072   83.0331  C     
8    C        21.8086   16.4711   83.1197  C     
9    C        20.7695   17.3269   82.5919  C     
10   N        21.4385   15.3050   83.5790  N     
11   O        22.9914   16.7669   83.0810  O     
12   C        14.4517   17.3157   79.9598  C     
13   C        13.6922   18.6332   80.3091  C     
14   C        14.3602   19.8359   79.7640  C     
15   C        15.1620   21.2841   78.3630  C     
16   C        15.3312   21.7603   79.6606  C     
17   C        16.2168   23.2723   77.4756  C     
18   C        15.5953   22.0251   77.2516  C     
19   C        15.9380   23.0053   79.8982  C     
20   C        16.3840   23.7602   78.7932  C     
21   N        14.8301   20.8557   80.5116  N     
22   N        14.5540   20.0964   78.4577  N     
23   N        12.3575   18.5772   79.7950  N     
24   C        11.2731   19.1438   80.3622  C     
25   N        11.2361   19.8970   81.4844  N     
26   S         9.6713   18.9763   79.7553  S     
27   C         9.9993   20.3237   81.8462  C     
28   C         8.9571   19.9117   81.0019  C     
29   C         7.6206   20.2632   81.2514  C     
30   C         7.3347   21.0536   82.3833  C     
31   C         8.3755   21.4833   83.2398  C     
32   C         9.7130   21.1168   82.9704  C     
33   O        19.2681   14.5043   84.8141  O     
34   S        19.8063   14.9852   83.3971  S     
35   O        19.6750   13.9902   82.1628  O     
36   Cl        8.0222   22.4364   84.5917  Cl    
37   H        16.9749   16.7200   79.0353  H     
38   H        19.0012   16.4556   80.2663  H     
39   H        16.9074   17.1885   83.8580  H     
40   H        14.8942   17.4529   82.6254  H     
41   H        19.1905   17.1577   84.0002  H     
42   H        20.8885   17.3862   81.5069  H     
43   H        20.8703   18.3361   83.0025  H     
44   H        22.0604   14.6553   83.9347  H     
45   H        14.6211   17.2749   78.8801  H     
46   H        13.8155   16.4627   80.2023  H     
47   H        13.6429   18.7206   81.3991  H     
48   H        16.5466   23.8268   76.6823  H     
49   H        15.4646   21.6688   76.3033  H     
50   H        16.0543   23.3540   80.8503  H     
51   H        16.8331   24.6683   78.9451  H     
52   H        14.2948   19.5273   77.7163  H     
53   H        12.2169   18.0734   78.9838  H     
54   H         6.8753   19.9526   80.6269  H     
55   H         6.3659   21.3142   82.5810  H     
56   H        10.4705   21.4191   83.5874  H     
@<TRIPOS>BOND
     1    1    2 1
     2    1    6 2
     3    1   12 1
     4    2    3 2
     5    3    4 1
     6    4    5 2
     7    4    7 1
     8    5    6 1
     9    7    9 1
    10    7   34 1
    11    8    9 1
    12    8   10 1
    13    8   11 2
    14   10   34 1
    15   13   12 1
    16   13   14 1
    17   13   23 1
    18   14   21 2
    19   14   22 1
    20   15   16 2
    21   15   18 1
    22   15   22 1
    23   16   19 1
    24   16   21 1
    25   17   18 2
    26   17   20 1
    27   19   20 2
    28   23   24 1
    29   24   25 2
    30   24   26 1
    31   25   27 1
    32   26   28 1
    33   27   28 2
    34   27   32 1
    35   28   29 1
    36   29   30 2
    37   30   31 1
    38   31   32 2
    39   31   36 1
    40   33   34 2
    41   34   35 2
    42    2   37 1
    43    3   38 1
    44    5   39 1
    45    6   40 1
    46    7   41 1
    47    9   42 1
    48    9   43 1
    49   10   44 1
    50   12   45 1
    51   12   46 1
    52   13   47 1
    53   17   48 1
    54   18   49 1
    55   19   50 1
    56   20   51 1
    57   22   52 1
    58   23   53 1
    59   29   54 1
    60   30   55 1
    61   32   56 1
@<TRIPOS>PROPERTY_DATA
  Total_Score	| 10.8113
  Crash		| -1.4032
  Polar		| 6.6042
  FragIndex	| 1
  FragRMSD	| 0.163

