@<TRIPOS>MOLECULE
BindingDB_13480
 56 61 0 0 0
SMALL
NO_CHARGES


@<TRIPOS>ATOM
1    C        15.7324   17.2519   80.7959  C     
2    C        15.7241   17.3582   82.2026  C     
3    C        16.8993   17.1625   82.9407  C     
4    C        18.1254   16.8248   82.3108  C     
5    C        18.1115   16.6577   80.9068  C     
6    C        16.9431   16.8885   80.1580  C     
7    C        19.3641   16.6714   83.1340  C     
8    C        21.7759   16.5137   83.0385  C     
9    C        20.6708   17.3472   82.6187  C     
10   N        21.4707   15.3355   83.5245  N     
11   O        22.9463   16.8464   82.9062  O     
12   C        14.4788   17.4685   80.0245  C     
13   C        13.6890   18.7670   80.3707  C     
14   C        14.3014   19.9740   79.7764  C     
15   C        15.0123   21.4437   78.3287  C     
16   C        15.2108   21.9406   79.6210  C     
17   C        15.9467   23.4635   77.3776  C     
18   C        15.3801   22.1848   77.1919  C     
19   C        15.7778   23.2149   79.8180  C     
20   C        16.1505   23.9761   78.6872  C     
21   N        14.7738   21.0236   80.4953  N     
22   N        14.4630   20.2362   78.4596  N     
23   N        12.3538   18.6244   79.8674  N     
24   C        11.2374   19.1677   80.3965  C     
25   N        11.1183   19.9589   81.4905  N     
26   S         9.6712   18.8799   79.7462  S     
27   C         9.8452   20.3305   81.7875  C     
28   C         8.8579   19.8291   80.9253  C     
29   C         7.4939   20.1140   81.0955  C     
30   C         7.1174   20.9313   82.1866  C     
31   C         8.0945   21.4480   83.0704  C     
32   C         9.4614   21.1507   82.8712  C     
33   O        19.3986   14.4746   84.8990  O     
34   S        19.8386   14.9611   83.4497  S     
35   O        19.6591   13.9630   82.2236  O     
36   F         7.7312   22.1953   84.0815  F     
37   H        14.8512   17.5679   82.6971  H     
38   H        16.8502   17.2584   83.9585  H     
39   H        18.9573   16.3680   80.4118  H     
40   H        16.9704   16.7824   79.1387  H     
41   H        19.1858   17.0985   84.1256  H     
42   H        20.7032   17.4348   81.5308  H     
43   H        20.7803   18.3501   83.0450  H     
44   H        22.1373   14.7085   83.8379  H     
45   H        14.6729   17.4492   78.9484  H     
46   H        13.8327   16.6138   80.2309  H     
47   H        13.6729   18.9020   81.4615  H     
48   H        16.2080   24.0273   76.5654  H     
49   H        15.2361   21.8008   76.2489  H     
50   H        15.9306   23.5724   80.7663  H     
51   H        16.5579   24.9058   78.8100  H     
52   H        14.2059   19.6548   77.7237  H     
53   H        12.2329   18.1051   79.0595  H     
54   H         6.7872   19.7296   80.4591  H     
55   H         6.1271   21.1448   82.3385  H     
56   H        10.1750   21.5160   83.5096  H     
@<TRIPOS>BOND
     1    1    2 1
     2    1    6 2
     3    1   12 1
     4    2    3 2
     5    3    4 1
     6    4    5 2
     7    4    7 1
     8    5    6 1
     9    7    9 1
    10    7   34 1
    11    8    9 1
    12    8   10 1
    13    8   11 2
    14   10   34 1
    15   13   12 1
    16   13   14 1
    17   13   23 1
    18   14   21 2
    19   14   22 1
    20   15   16 2
    21   15   18 1
    22   15   22 1
    23   16   19 1
    24   16   21 1
    25   17   18 2
    26   17   20 1
    27   19   20 2
    28   23   24 1
    29   24   25 2
    30   24   26 1
    31   25   27 1
    32   26   28 1
    33   27   28 2
    34   27   32 1
    35   28   29 1
    36   29   30 2
    37   30   31 1
    38   31   32 2
    39   31   36 1
    40   33   34 2
    41   34   35 2
    42    2   37 1
    43    3   38 1
    44    5   39 1
    45    6   40 1
    46    7   41 1
    47    9   42 1
    48    9   43 1
    49   10   44 1
    50   12   45 1
    51   12   46 1
    52   13   47 1
    53   17   48 1
    54   18   49 1
    55   19   50 1
    56   20   51 1
    57   22   52 1
    58   23   53 1
    59   29   54 1
    60   30   55 1
    61   32   56 1
@<TRIPOS>PROPERTY_DATA
  Total_Score	| 10.8702
  Crash		| -1.4232
  Polar		| 6.9478
  FragIndex	| 1
  FragRMSD	| 0.132

