@<TRIPOS>MOLECULE
BindingDB_50328849
 85 89 0 0 0
SMALL
NO_CHARGES


@<TRIPOS>ATOM
1    C         1.0041    8.3716   -4.6066  C     
2    C         2.3954    8.5452   -4.4986  C     
3    C         3.0610    8.1903   -3.3058  C     
4    C         2.3091    7.7038   -2.2096  C     
5    C         0.9144    7.5428   -2.3226  C     
6    C         0.2491    7.8739   -3.5226  C     
7    C        -1.2225    7.7307   -3.6088  C     
8    Cl        3.0483    7.3258   -0.7338  Cl    
9    Cl        3.2274    9.2243   -5.8075  Cl    
10   O         4.4130    8.3862   -3.1809  O     
11   C         5.2165    7.1990   -3.3431  C     
12   C         6.2556    7.1565   -2.1992  C     
13   O         6.6619    5.7850   -1.9682  O     
14   C         6.8613    5.4321   -0.6559  C     
15   C         6.2309    4.2834   -0.1388  C     
16   C         6.4068    3.9231    1.2127  C     
17   C         7.2038    4.7004    2.0985  C     
18   C         7.8537    5.8315    1.5399  C     
19   C         7.6961    6.1885    0.1910  C     
20   C         7.3036    4.3181    3.5623  C     
21   C         8.7498    4.2349    4.1673  C     
22   C         9.3158    5.5615    4.7615  C     
23   N         8.3083    6.3653    5.4869  N     
24   C         7.0437    6.5527    4.7496  C     
25   C         6.3584    5.1709    4.5057  C     
26   C         4.9419    5.0459    4.0939  C     
27   N         4.0604    5.9503    3.6132  N     
28   O         4.5118    3.8939    4.2363  O     
29   C         4.2200    7.3509    3.9108  C     
30   C         2.8491    5.5478    2.8952  C     
31   C         1.5377    5.8203    3.5557  C     
32   C         5.1775    8.1432    3.0092  C     
33   C         3.7019    8.5512    3.0725  C     
34   C         1.4747    6.1771    4.9243  C     
35   C         0.2609    6.5316    5.5498  C     
36   C        -0.9309    6.4672    4.7956  C     
37   C        -0.9033    6.0513    3.4540  C     
38   C         0.3168    5.7225    2.8302  C     
39   Cl        0.2287    5.2174    1.2102  Cl    
40   C         0.2308    6.9877    6.9634  C     
41   N         0.4109    8.4618    7.0539  N     
42   C         1.7880    9.0084    7.1320  C     
43   C         2.5254    8.6424    8.4390  C     
44   H         0.5320    8.6313   -5.4762  H     
45   H         0.3773    7.1965   -1.5229  H     
46   H        -1.5011    6.6873   -3.4451  H     
47   H        -1.6966    8.3520   -2.8443  H     
48   H        -1.6091    8.0382   -4.5845  H     
49   H         5.7272    7.2271   -4.3092  H     
50   H         4.6293    6.2713   -3.2916  H     
51   H         7.1351    7.7443   -2.4806  H     
52   H         5.8108    7.6265   -1.3122  H     
53   H         5.6329    3.7088   -0.7457  H     
54   H         5.9258    3.0888    1.5566  H     
55   H         8.4441    6.4232    2.1054  H     
56   H         8.1792    7.0106   -0.1730  H     
57   H         6.9459    3.2825    3.6193  H     
58   H         8.7306    3.5059    4.9832  H     
59   H         9.4471    3.8535    3.4159  H     
60   H        10.1187    5.3267    5.4663  H     
61   H         9.7588    6.1794    3.9801  H     
62   H         8.1022    5.9100    6.3850  H     
63   H         8.7091    7.2884    5.6769  H     
64   H         6.4229    7.2455    5.3476  H     
65   H         7.2440    7.0521    3.8027  H     
66   H         6.3889    4.6979    5.5002  H     
67   H         4.2361    7.5917    4.9905  H     
68   H         2.8937    6.0593    1.9340  H     
69   H         2.8364    4.4864    2.6368  H     
70   H         5.8570    8.8328    3.5030  H     
71   H         5.4812    7.6471    2.0872  H     
72   H         3.5297    9.4864    3.6070  H     
73   H         3.1743    8.3887    2.1338  H     
74   H         2.3302    6.2191    5.4854  H     
75   H        -1.8253    6.7283    5.2209  H     
76   H        -1.7825    6.0031    2.9330  H     
77   H        -0.7432    6.7493    7.4050  H     
78   H         0.9708    6.4550    7.5658  H     
79   H        -0.0963    8.7859    7.8778  H     
80   H        -0.0415    8.8767    6.2336  H     
81   H         2.3741    8.6926    6.2706  H     
82   H         1.7018   10.0975    7.0802  H     
83   H         1.9135    8.9130    9.2990  H     
84   H         3.4656    9.1918    8.4950  H     
85   H         2.7397    7.5736    8.4738  H     
@<TRIPOS>BOND
     1    3   10 1
     2    2    3 1
     3   10   11 1
     4    5    6 2
     5   11   12 1
     6   20   25 1
     7   21   22 1
     8   22   23 1
     9   23   24 1
    10   24   25 1
    11    6    1 1
    12   25   26 1
    13   12   13 1
    14   26   27 am
    15    1    2 2
    16   26   28 2
    17   13   14 1
    18   27   29 1
    19    6    7 1
    20   27   30 1
    21   14   15 2
    22   30   31 1
    23   32   29 1
    24   33   32 1
    25   29   33 1
    26    3    4 2
    27   15   16 1
    28    4    8 1
    29   31   34 2
    30   16   17 2
    31   34   35 1
    32   35   36 2
    33   17   18 1
    34   36   37 1
    35    2    9 1
    36   37   38 2
    37   38   31 1
    38   18   19 2
    39   38   39 1
    40   19   14 1
    41   35   40 1
    42    4    5 1
    43   40   41 1
    44   20   17 1
    45   41   42 1
    46   20   21 1
    47   42   43 1
    48    1   44 1
    49    5   45 1
    50    7   46 1
    51    7   47 1
    52    7   48 1
    53   11   49 1
    54   11   50 1
    55   12   51 1
    56   12   52 1
    57   15   53 1
    58   16   54 1
    59   18   55 1
    60   19   56 1
    61   20   57 1
    62   21   58 1
    63   21   59 1
    64   22   60 1
    65   22   61 1
    66   23   62 1
    67   23   63 1
    68   24   64 1
    69   24   65 1
    70   25   66 1
    71   29   67 1
    72   30   68 1
    73   30   69 1
    74   32   70 1
    75   32   71 1
    76   33   72 1
    77   33   73 1
    78   34   74 1
    79   36   75 1
    80   37   76 1
    81   40   77 1
    82   40   78 1
    83   41   79 1
    84   41   80 1
    85   42   81 1
    86   42   82 1
    87   43   83 1
    88   43   84 1
    89   43   85 1
@<TRIPOS>PROPERTY_DATA
  Total_Score	| 11.2123
  Crash		| -2.8011
  Polar		| 3.1163
  FragIndex	| 1
  FragRMSD	| 0.677

