@<TRIPOS>MOLECULE
BindingDB_50328871
 87 92 0 0 0
SMALL
NO_CHARGES


@<TRIPOS>ATOM
1    C         0.9235    8.4693   -4.3881  C     
2    C         2.3327    8.4538   -4.4532  C     
3    C         3.0883    7.9970   -3.3431  C     
4    C         2.4131    7.6368   -2.1560  C     
5    C         1.0074    7.6878   -2.0913  C     
6    C         0.2438    8.0763   -3.2145  C     
7    C        -1.2386    8.0912   -3.1738  C     
8    Cl        3.2640    7.1596   -0.7704  Cl    
9    Cl        3.0850    9.0383   -5.8557  Cl    
10   O         4.4613    7.9510   -3.3680  O     
11   C         5.0551    6.8590   -4.1018  C     
12   C         6.3580    6.4210   -3.3982  C     
13   O         6.0028    5.5724   -2.2915  O     
14   C         6.7056    5.7016   -1.1236  C     
15   C         7.3704    4.5800   -0.5950  C     
16   C         7.8736    4.6104    0.7214  C     
17   C         7.7433    5.7644    1.5361  C     
18   C         7.1512    6.9100    0.9484  C     
19   C         6.6106    6.8728   -0.3530  C     
20   C         8.1798    5.8464    2.9779  C     
21   C         9.0202    4.6461    3.5260  C     
22   C         9.4721    4.8892    4.9889  C     
23   N         8.3087    5.1461    5.8599  N     
24   C         7.4865    6.3008    5.4417  C     
25   C         6.9987    6.2493    3.9546  C     
26   C         5.7460    5.4699    3.8368  C     
27   N         4.5101    5.9150    3.4811  N     
28   O         5.8922    4.2816    4.1183  O     
29   C         4.3504    7.2036    2.8136  C     
30   C         3.3718    4.9977    3.3904  C     
31   C         2.0852    5.5004    3.9597  C     
32   C         4.6687    8.5169    3.5587  C     
33   C         3.2392    8.2516    3.0880  C     
34   C         2.0456    5.8077    5.3418  C     
35   C         0.9061    6.3906    5.9442  C     
36   C        -0.2317    6.6195    5.1461  C     
37   C        -0.2380    6.2612    3.7882  C     
38   C         0.9104    5.7114    3.1819  C     
39   Cl        0.8024    5.3648    1.5220  Cl    
40   C         0.8999    6.7661    7.3843  C     
41   N         0.9516    8.1784    7.6241  N     
42   C         1.8885    9.0009    7.1776  C     
43   C         1.9560   10.3615    7.6547  C     
44   O         2.7014    8.6573    6.3300  O     
45   C         1.8534   10.6236    9.1678  C     
46   C         3.2071   10.7507    8.4660  C     
47   H         0.3846    8.7886   -5.1971  H     
48   H         0.5364    7.4383   -1.2155  H     
49   H        -1.6324    7.4167   -3.9356  H     
50   H        -1.6095    9.0981   -3.3703  H     
51   H        -1.6289    7.7701   -2.2056  H     
52   H         5.3058    7.1980   -5.1065  H     
53   H         4.3874    5.9957   -4.1858  H     
54   H         6.9767    5.8482   -4.0964  H     
55   H         6.9123    7.3122   -3.0872  H     
56   H         7.4523    3.7240   -1.1473  H     
57   H         8.3206    3.7606    1.0788  H     
58   H         7.0544    7.7727    1.4810  H     
59   H         6.1130    7.6899   -0.7204  H     
60   H         8.9012    6.6724    2.9905  H     
61   H         8.4446    3.7183    3.4939  H     
62   H         9.9110    4.5082    2.9119  H     
63   H        10.1589    5.7376    5.0389  H     
64   H        10.0000    4.0083    5.3615  H     
65   H         8.6601    5.3240    6.8092  H     
66   H         7.7231    4.3068    5.8773  H     
67   H         6.6366    6.3733    6.1214  H     
68   H         8.0949    7.1936    5.6045  H     
69   H         6.7796    7.2874    3.7155  H     
70   H         4.6712    7.2191    1.7714  H     
71   H         3.2729    4.7276    2.3388  H     
72   H         3.5453    4.0491    3.9044  H     
73   H         5.2285    9.2653    2.9859  H     
74   H         4.8245    8.4498    4.6366  H     
75   H         2.5680    8.1939    3.9476  H     
76   H         2.9522    8.9103    2.2630  H     
77   H         2.8834    5.6460    5.9110  H     
78   H        -1.0704    7.0348    5.5521  H     
79   H        -1.0861    6.4190    3.2358  H     
80   H        -0.0111    6.3763    7.8453  H     
81   H         1.7410    6.3124    7.9165  H     
82   H         0.3069    8.5393    8.2544  H     
83   H         1.5820   11.1565    7.0075  H     
84   H         1.4330   11.5794    9.4830  H     
85   H         1.7661    9.7607    9.8318  H     
86   H         3.5705   11.7707    8.3252  H     
87   H         3.9247    9.9614    8.7047  H     
@<TRIPOS>BOND
     1    5    6 2
     2   11   12 1
     3   20   25 1
     4   21   22 1
     5   22   23 1
     6   23   24 1
     7   24   25 1
     8    6    1 1
     9   25   26 1
    10   12   13 1
    11   26   27 am
    12    1    2 2
    13   26   28 2
    14   13   14 1
    15   27   29 1
    16    6    7 1
    17   27   30 1
    18   14   15 2
    19   30   31 1
    20   32   29 1
    21   33   32 1
    22   29   33 1
    23    3    4 2
    24   15   16 1
    25    4    8 1
    26   31   34 2
    27   16   17 2
    28   34   35 1
    29   35   36 2
    30   17   18 1
    31   36   37 1
    32    2    9 1
    33   37   38 2
    34   38   31 1
    35   18   19 2
    36   38   39 1
    37   19   14 1
    38   35   40 1
    39    4    5 1
    40   40   41 1
    41   20   17 1
    42   41   42 am
    43   20   21 1
    44   42   43 1
    45    3   10 1
    46   42   44 2
    47   45   43 1
    48   46   45 1
    49   43   46 1
    50    2    3 1
    51   10   11 1
    52    1   47 1
    53    5   48 1
    54    7   49 1
    55    7   50 1
    56    7   51 1
    57   11   52 1
    58   11   53 1
    59   12   54 1
    60   12   55 1
    61   15   56 1
    62   16   57 1
    63   18   58 1
    64   19   59 1
    65   20   60 1
    66   21   61 1
    67   21   62 1
    68   22   63 1
    69   22   64 1
    70   23   65 1
    71   23   66 1
    72   24   67 1
    73   24   68 1
    74   25   69 1
    75   29   70 1
    76   30   71 1
    77   30   72 1
    78   32   73 1
    79   32   74 1
    80   33   75 1
    81   33   76 1
    82   34   77 1
    83   36   78 1
    84   37   79 1
    85   40   80 1
    86   40   81 1
    87   41   82 1
    88   43   83 1
    89   45   84 1
    90   45   85 1
    91   46   86 1
    92   46   87 1
@<TRIPOS>PROPERTY_DATA
  Total_Score	| 11.4589
  Crash		| -2.7157
  Polar		| 2.3019
  FragIndex	| 1
  FragRMSD	| 0.583

