@<TRIPOS>MOLECULE
BindingDB_50328856
 86 90 0 0 0
SMALL
NO_CHARGES


@<TRIPOS>ATOM
1    C         0.9050    8.3797   -4.3519  C     
2    C         2.3084    8.3288   -4.4563  C     
3    C         3.0836    7.9136   -3.3477  C     
4    C         2.4342    7.6206   -2.1222  C     
5    C         1.0316    7.6909   -2.0242  C     
6    C         0.2531    8.0606   -3.1410  C     
7    C        -1.2212    8.1221   -3.0698  C     
8    Cl        3.2982    7.1889   -0.7300  Cl    
9    Cl        3.0282    8.7929   -5.9215  Cl    
10   O         4.4498    7.8617   -3.4183  O     
11   C         5.0165    6.7191   -4.1006  C     
12   C         6.1224    6.1321   -3.1980  C     
13   O         5.4941    5.5446   -2.0365  O     
14   C         6.2171    5.4397   -0.8736  C     
15   C         6.7937    6.5575   -0.2302  C     
16   C         7.3141    6.4412    1.0720  C     
17   C         7.2718    5.2100    1.7721  C     
18   C         6.7501    4.0864    1.0942  C     
19   C         6.2097    4.2039   -0.2012  C     
20   C         7.7417    5.1235    3.1921  C     
21   C         9.2830    5.3811    3.2771  C     
22   C         9.8044    5.7881    4.6819  C     
23   N         8.8470    5.4548    5.7485  N     
24   C         7.5444    6.1451    5.6032  C     
25   C         6.8991    6.0289    4.1700  C     
26   C         5.4932    5.5882    4.3004  C     
27   N         4.3751    6.3142    4.0639  N     
28   O         5.3795    4.4443    4.7198  O     
29   C         4.4154    7.5166    3.2550  C     
30   C         3.0792    5.8925    4.5934  C     
31   C         1.9867    5.6225    3.6046  C     
32   C         5.0326    8.7968    3.8592  C     
33   C         3.5456    8.7670    3.5154  C     
34   C         0.6632    6.0445    3.9100  C     
35   C        -0.4402    5.7119    3.0977  C     
36   C        -0.1946    5.0082    1.8969  C     
37   C         1.1064    4.5997    1.5606  C     
38   C         2.1850    4.8603    2.4244  C     
39   Cl        3.6798    4.1914    1.9844  Cl    
40   C        -1.8304    6.1127    3.4665  C     
41   C        -2.4105    5.4254    4.7415  C     
42   C        -2.1786    6.0520    6.0406  C     
43   O        -1.3296    6.9259    6.1532  O     
44   N        -2.8442    5.7883    7.1531  N     
45   C        -3.9241    4.8738    7.3496  C     
46   H         0.3542    8.6694   -5.1662  H     
47   H         0.5728    7.4709   -1.1345  H     
48   H        -1.5942    7.8488   -2.0804  H     
49   H        -1.6489    7.4303   -3.8005  H     
50   H        -1.5596    9.1360   -3.2967  H     
51   H         4.2969    5.9296   -4.3335  H     
52   H         5.4640    7.0582   -5.0343  H     
53   H         6.8044    6.9493   -2.9274  H     
54   H         6.6879    5.3562   -3.7338  H     
55   H         6.8168    7.4680   -0.6974  H     
56   H         7.6956    7.2860    1.5051  H     
57   H         6.7093    3.1783    1.5654  H     
58   H         5.7762    3.3892   -0.6371  H     
59   H         7.6162    4.0998    3.5482  H     
60   H         9.5796    6.1674    2.5785  H     
61   H         9.7975    4.4652    2.9572  H     
62   H        10.7495    5.2803    4.8900  H     
63   H        10.0029    6.8681    4.7110  H     
64   H         9.2512    5.7160    6.6489  H     
65   H         8.6785    4.4460    5.7409  H     
66   H         6.8955    5.7281    6.3892  H     
67   H         7.6827    7.2068    5.8629  H     
68   H         6.9303    7.0366    3.7571  H     
69   H         4.6285    7.3759    2.1943  H     
70   H         3.1305    4.9876    5.2038  H     
71   H         2.7851    6.6781    5.2971  H     
72   H         5.6382    9.4107    3.1916  H     
73   H         5.2467    8.8116    4.9279  H     
74   H         2.8669    8.7497    4.3642  H     
75   H         3.2652    9.3416    2.6321  H     
76   H         0.5107    6.5991    4.7528  H     
77   H        -0.9612    4.7733    1.2610  H     
78   H         1.2456    4.0838    0.6888  H     
79   H        -1.8779    7.1980    3.5660  H     
80   H        -2.5037    5.8543    2.6480  H     
81   H        -3.4988    5.3753    4.6143  H     
82   H        -2.0459    4.3915    4.7817  H     
83   H        -2.5798    6.3015    7.9325  H     
84   H        -3.6548    4.1872    8.1503  H     
85   H        -4.7998    5.4422    7.6595  H     
86   H        -4.1804    4.2904    6.4659  H     
@<TRIPOS>BOND
     1   10   11 1
     2    5    6 2
     3   11   12 1
     4   20   25 1
     5   21   22 1
     6   22   23 1
     7   23   24 1
     8   24   25 1
     9    6    1 1
    10   25   26 1
    11   12   13 1
    12   26   27 am
    13    1    2 2
    14   26   28 2
    15   13   14 1
    16   27   29 1
    17    6    7 1
    18   27   30 1
    19   14   15 2
    20   30   31 1
    21   32   29 1
    22   33   32 1
    23   29   33 1
    24    3    4 2
    25   15   16 1
    26    4    8 1
    27   31   34 2
    28   16   17 2
    29   34   35 1
    30   35   36 2
    31   17   18 1
    32   36   37 1
    33    2    9 1
    34   37   38 2
    35   38   31 1
    36   18   19 2
    37   38   39 1
    38   19   14 1
    39   35   40 1
    40    4    5 1
    41   40   41 1
    42   20   17 1
    43   41   42 1
    44   20   21 1
    45   42   43 2
    46    3   10 1
    47   42   44 am
    48    2    3 1
    49   44   45 1
    50    1   46 1
    51    5   47 1
    52    7   48 1
    53    7   49 1
    54    7   50 1
    55   11   51 1
    56   11   52 1
    57   12   53 1
    58   12   54 1
    59   15   55 1
    60   16   56 1
    61   18   57 1
    62   19   58 1
    63   20   59 1
    64   21   60 1
    65   21   61 1
    66   22   62 1
    67   22   63 1
    68   23   64 1
    69   23   65 1
    70   24   66 1
    71   24   67 1
    72   25   68 1
    73   29   69 1
    74   30   70 1
    75   30   71 1
    76   32   72 1
    77   32   73 1
    78   33   74 1
    79   33   75 1
    80   34   76 1
    81   36   77 1
    82   37   78 1
    83   40   79 1
    84   40   80 1
    85   41   81 1
    86   41   82 1
    87   44   83 1
    88   45   84 1
    89   45   85 1
    90   45   86 1
@<TRIPOS>PROPERTY_DATA
  Total_Score	| 11.2206
  Crash		| -2.0515
  Polar		| 1.8408
  FragIndex	| 1
  FragRMSD	| 0.407

