@<TRIPOS>MOLECULE
BindingDB_50328845
 86 91 0 0 0
SMALL
NO_CHARGES


@<TRIPOS>ATOM
1    C         0.9495    8.4722   -4.4033  C     
2    C         2.3571    8.4257   -4.4476  C     
3    C         3.0865    7.9575   -3.3308  C     
4    C         2.3891    7.6271   -2.1444  C     
5    C         0.9801    7.6793   -2.1074  C     
6    C         0.2471    8.0940   -3.2384  C     
7    C        -1.2322    8.1514   -3.2257  C     
8    Cl        3.1979    7.2177   -0.7131  Cl    
9    Cl        3.1335    8.9814   -5.8443  Cl    
10   O         4.4592    7.9049   -3.3766  O     
11   C         5.0197    6.7657   -4.0649  C     
12   C         5.4220    5.6448   -3.0813  C     
13   O         6.6425    6.0342   -2.4074  O     
14   C         6.7843    5.7123   -1.0848  C     
15   C         6.9593    4.3960   -0.6048  C     
16   C         7.1966    4.1697    0.7685  C     
17   C         7.2891    5.2487    1.6836  C     
18   C         7.1069    6.5560    1.1862  C     
19   C         6.8654    6.7811   -0.1825  C     
20   C         7.6487    5.0181    3.1258  C     
21   C         9.1058    5.4863    3.3851  C     
22   C         9.5019    5.3875    4.8753  C     
23   N         8.5436    6.1517    5.7005  N     
24   C         7.1525    5.6436    5.6141  C     
25   C         6.6069    5.6362    4.1450  C     
26   C         5.3267    4.9068    4.0445  C     
27   N         4.1428    5.3125    3.5105  N     
28   O         5.4551    3.7055    4.3002  O     
29   C         3.2409    4.3358    2.9236  C     
30   C         3.6576    6.6940    3.4721  C     
31   C         2.5876    7.0817    4.4632  C     
32   C         3.6703    3.2013    1.9541  C     
33   C         3.0581    4.4920    1.3985  C     
34   C         2.8814    8.0738    5.4228  C     
35   C         1.8839    8.6173    6.2656  C     
36   C         0.5618    8.1642    6.1433  C     
37   C         0.2416    7.1624    5.2346  C     
38   C         1.2356    6.6372    4.3930  C     
39   Cl        0.6318    5.4797    3.3330  Cl    
40   C         2.1489    9.7168    7.2339  C     
41   N         1.8264    9.3013    8.6236  N     
42   C         2.0358   10.2921    9.7104  C     
43   C         2.6057   11.7226    9.5923  C     
44   C         3.5245   10.5541    9.9767  C     
45   H         0.4285    8.8046   -5.2221  H     
46   H         0.4881    7.4269   -1.2489  H     
47   H        -1.6342    7.4998   -4.0043  H     
48   H        -1.6508    7.8345   -2.2673  H     
49   H        -1.5644    9.1769   -3.4164  H     
50   H         5.9235    7.1051   -4.5734  H     
51   H         4.3732    6.3452   -4.8377  H     
52   H         4.5913    5.4623   -2.4003  H     
53   H         5.6105    4.7207   -3.6286  H     
54   H         6.9317    3.6079   -1.2487  H     
55   H         7.3283    3.2076    1.0906  H     
56   H         7.1749    7.3691    1.8017  H     
57   H         6.7668    7.7384   -0.5203  H     
58   H         7.6811    3.9329    3.3153  H     
59   H         9.2423    6.5186    3.0711  H     
60   H         9.7957    4.8836    2.8041  H     
61   H         9.5291    4.3428    5.2031  H     
62   H        10.4951    5.8096    5.0248  H     
63   H         8.8708    6.1390    6.6743  H     
64   H         8.5794    7.1188    5.3754  H     
65   H         7.1311    4.6401    6.0405  H     
66   H         6.5194    6.2702    6.2394  H     
67   H         6.4786    6.6820    3.8895  H     
68   H         2.3643    4.0227    3.4412  H     
69   H         4.4906    7.3910    3.5535  H     
70   H         3.2526    6.9213    2.4897  H     
71   H         4.7118    3.0844    1.6901  H     
72   H         3.0060    2.3430    1.8661  H     
73   H         2.0657    4.3486    0.9803  H     
74   H         3.7832    5.0866    0.8232  H     
75   H         3.8293    8.4553    5.4879  H     
76   H        -0.1756    8.5657    6.7195  H     
77   H        -0.7302    6.8463    5.1759  H     
78   H         3.1916   10.0270    7.2003  H     
79   H         1.5157   10.5539    6.9345  H     
80   H         2.3591    8.4482    8.8481  H     
81   H         0.8328    9.0598    8.6693  H     
82   H         1.5035   10.0785   10.6443  H     
83   H         2.8079   12.1574    8.6107  H     
84   H         2.3214   12.3938   10.4020  H     
85   H         4.2456   10.2828    9.2008  H     
86   H         3.8589   10.5622   11.0096  H     
@<TRIPOS>BOND
     1    2    3 1
     2   10   11 1
     3    5    6 2
     4   11   12 1
     5   20   25 1
     6   21   22 1
     7   22   23 1
     8   23   24 1
     9   24   25 1
    10    6    1 1
    11   25   26 1
    12   12   13 1
    13   26   27 am
    14    1    2 2
    15   26   28 2
    16   13   14 1
    17   27   29 1
    18    6    7 1
    19   27   30 1
    20   14   15 2
    21   30   31 1
    22   32   29 1
    23   33   32 1
    24   29   33 1
    25    3    4 2
    26   15   16 1
    27    4    8 1
    28   31   34 2
    29   16   17 2
    30   34   35 1
    31   35   36 2
    32   17   18 1
    33   36   37 1
    34    2    9 1
    35   37   38 2
    36   38   31 1
    37   18   19 2
    38   38   39 1
    39   19   14 1
    40   35   40 1
    41    4    5 1
    42   40   41 1
    43   20   17 1
    44   41   42 1
    45   43   42 1
    46   44   43 1
    47   42   44 1
    48   20   21 1
    49    3   10 1
    50    1   45 1
    51    5   46 1
    52    7   47 1
    53    7   48 1
    54    7   49 1
    55   11   50 1
    56   11   51 1
    57   12   52 1
    58   12   53 1
    59   15   54 1
    60   16   55 1
    61   18   56 1
    62   19   57 1
    63   20   58 1
    64   21   59 1
    65   21   60 1
    66   22   61 1
    67   22   62 1
    68   23   63 1
    69   23   64 1
    70   24   65 1
    71   24   66 1
    72   25   67 1
    73   29   68 1
    74   30   69 1
    75   30   70 1
    76   32   71 1
    77   32   72 1
    78   33   73 1
    79   33   74 1
    80   34   75 1
    81   36   76 1
    82   37   77 1
    83   40   78 1
    84   40   79 1
    85   41   80 1
    86   41   81 1
    87   42   82 1
    88   43   83 1
    89   43   84 1
    90   44   85 1
    91   44   86 1
@<TRIPOS>PROPERTY_DATA
  Total_Score	| 12.8513
  Crash		| -3.5150
  Polar		| 5.6356
  FragIndex	| 1
  FragRMSD	| 0.937

