@<TRIPOS>MOLECULE
BindingDB_50328848
 88 92 0 0 0
SMALL
NO_CHARGES


@<TRIPOS>ATOM
1    C         0.9568    8.4723   -4.3797  C     
2    C         2.3626    8.4410   -4.4173  C     
3    C         3.0926    7.9895   -3.2946  C     
4    C         2.3933    7.6504   -2.1117  C     
5    C         0.9848    7.6847   -2.0818  C     
6    C         0.2492    8.0853   -3.2211  C     
7    C        -1.2333    8.1117   -3.2183  C     
8    Cl        3.2055    7.1810   -0.7017  Cl    
9    Cl        3.1312    8.9630   -5.8343  Cl    
10   O         4.4585    7.9363   -3.2823  O     
11   C         5.0651    6.8240   -3.9623  C     
12   C         6.3080    6.3583   -3.1692  C     
13   O         5.8544    5.4225   -2.1506  O     
14   C         6.4754    5.3401   -0.9189  C     
15   C         6.5613    4.0700   -0.3179  C     
16   C         6.9813    3.9327    1.0205  C     
17   C         7.3500    5.0675    1.7898  C     
18   C         7.3280    6.3323    1.1508  C     
19   C         6.8663    6.4730   -0.1719  C     
20   C         7.6916    4.9562    3.2513  C     
21   C         9.1933    5.3239    3.4835  C     
22   C         9.5285    5.7679    4.9431  C     
23   N         8.5545    5.2446    5.9104  N     
24   C         7.1526    5.6855    5.6927  C     
25   C         6.7205    5.7828    4.1747  C     
26   C         5.2980    5.4157    3.9730  C     
27   N         4.3438    6.1523    3.3622  N     
28   O         5.0127    4.2811    4.3542  O     
29   C         4.5877    7.5097    2.8993  C     
30   C         3.0654    5.5550    2.9522  C     
31   C         1.8831    5.7930    3.8371  C     
32   C         3.5250    8.6166    3.1052  C     
33   C         4.8131    8.6399    3.9275  C     
34   C         2.0582    6.3038    5.1484  C     
35   C         0.9603    6.6982    5.9525  C     
36   C        -0.3507    6.4833    5.4615  C     
37   C        -0.5438    5.9217    4.1871  C     
38   C         0.5532    5.5775    3.3660  C     
39   Cl        0.2037    4.9672    1.8116  Cl    
40   C         1.1850    7.3634    7.2562  C     
41   C         1.6607    8.8307    7.1070  C     
42   N         1.8768    9.4182    8.4410  N     
43   C         2.5132   10.7545    8.4392  C     
44   C         2.8392   11.1997    9.8778  C     
45   H         0.4339    8.7909   -5.2030  H     
46   H         0.4852    7.4196   -1.2279  H     
47   H        -1.6059    7.4346   -3.9897  H     
48   H        -1.5801    9.1263   -3.4298  H     
49   H        -1.6463    7.7972   -2.2575  H     
50   H         5.3898    7.1548   -4.9471  H     
51   H         4.3945    5.9659   -4.1019  H     
52   H         7.0100    5.8254   -3.8407  H     
53   H         6.8234    7.2344   -2.7616  H     
54   H         6.2714    3.2378   -0.8418  H     
55   H         6.9897    3.0041    1.4387  H     
56   H         7.6016    7.1807    1.6592  H     
57   H         6.7792    7.4141   -0.5668  H     
58   H         7.5812    3.9137    3.5608  H     
59   H         9.5162    6.1290    2.8207  H     
60   H         9.7992    4.4442    3.2376  H     
61   H        10.5225    5.4112    5.2153  H     
62   H         9.5405    6.8562    5.0102  H     
63   H         8.8534    5.5234    6.8525  H     
64   H         8.5748    4.2224    5.8561  H     
65   H         7.0281    6.6643    6.1706  H     
66   H         6.5229    4.9838    6.2503  H     
67   H         6.8770    6.8303    3.9182  H     
68   H         5.1466    7.6297    1.9714  H     
69   H         2.7892    5.9322    1.9651  H     
70   H         3.1815    4.4837    2.8018  H     
71   H         3.4571    9.3421    2.2979  H     
72   H         2.6249    8.3828    3.6662  H     
73   H         4.7258    8.3612    4.9753  H     
74   H         5.5448    9.3975    3.6416  H     
75   H         3.0024    6.4235    5.5251  H     
76   H        -1.1718    6.7512    6.0175  H     
77   H        -1.5002    5.7747    3.8494  H     
78   H         0.2716    7.3582    7.8567  H     
79   H         1.9443    6.7930    7.8005  H     
80   H         2.5815    8.8721    6.5309  H     
81   H         0.9032    9.4111    6.5792  H     
82   H         0.9718    9.4925    8.9073  H     
83   H         2.4718    8.7848    8.9774  H     
84   H         3.4453   10.7350    7.8666  H     
85   H         1.8424   11.4856    7.9807  H     
86   H         1.9306   11.2193   10.4869  H     
87   H         3.2777   12.1979    9.8722  H     
88   H         3.5516   10.5051   10.3317  H     
@<TRIPOS>BOND
     1    2    3 1
     2   10   11 1
     3    5    6 2
     4   11   12 1
     5   20   25 1
     6   21   22 1
     7   22   23 1
     8   23   24 1
     9   24   25 1
    10    6    1 1
    11   25   26 1
    12   12   13 1
    13   26   27 am
    14    1    2 2
    15   26   28 2
    16   13   14 1
    17   27   29 1
    18    6    7 1
    19   27   30 1
    20   14   15 2
    21   30   31 1
    22   32   29 1
    23   33   32 1
    24   29   33 1
    25    3    4 2
    26   15   16 1
    27    4    8 1
    28   31   34 2
    29   16   17 2
    30   34   35 1
    31   35   36 2
    32   17   18 1
    33   36   37 1
    34    2    9 1
    35   37   38 2
    36   38   31 1
    37   18   19 2
    38   38   39 1
    39   19   14 1
    40   35   40 1
    41    4    5 1
    42   40   41 1
    43   20   17 1
    44   41   42 1
    45   20   21 1
    46   42   43 1
    47    3   10 1
    48   43   44 1
    49    1   45 1
    50    5   46 1
    51    7   47 1
    52    7   48 1
    53    7   49 1
    54   11   50 1
    55   11   51 1
    56   12   52 1
    57   12   53 1
    58   15   54 1
    59   16   55 1
    60   18   56 1
    61   19   57 1
    62   20   58 1
    63   21   59 1
    64   21   60 1
    65   22   61 1
    66   22   62 1
    67   23   63 1
    68   23   64 1
    69   24   65 1
    70   24   66 1
    71   25   67 1
    72   29   68 1
    73   30   69 1
    74   30   70 1
    75   32   71 1
    76   32   72 1
    77   33   73 1
    78   33   74 1
    79   34   75 1
    80   36   76 1
    81   37   77 1
    82   40   78 1
    83   40   79 1
    84   41   80 1
    85   41   81 1
    86   42   82 1
    87   42   83 1
    88   43   84 1
    89   43   85 1
    90   44   86 1
    91   44   87 1
    92   44   88 1
@<TRIPOS>PROPERTY_DATA
  Total_Score	| 12.4291
  Crash		| -1.8189
  Polar		| 2.8543
  FragIndex	| 1
  FragRMSD	| 0.278

