@<TRIPOS>MOLECULE
BindingDB_50328859
 83 87 0 0 0
SMALL
NO_CHARGES


@<TRIPOS>ATOM
1    C         0.8868    8.3868   -4.2233  C     
2    C         2.2878    8.3029   -4.2207  C     
3    C         2.9781    7.8893   -3.0538  C     
4    C         2.2423    7.6294   -1.8693  C     
5    C         0.8356    7.7318   -1.8752  C     
6    C         0.1492    8.1004   -3.0545  C     
7    C        -1.3244    8.2034   -3.0863  C     
8    Cl        3.0044    7.1937   -0.4172  Cl    
9    Cl        3.1296    8.7045   -5.6369  Cl    
10   O         4.3495    7.8066   -3.0617  O     
11   C         4.8371    6.4671   -3.2991  C     
12   C         6.3821    6.4841   -3.3930  C     
13   O         6.9819    5.2773   -2.8719  O     
14   C         7.1480    5.1904   -1.5166  C     
15   C         6.6218    4.0817   -0.8162  C     
16   C         6.7937    3.9705    0.5815  C     
17   C         7.4580    4.9821    1.3152  C     
18   C         8.0393    6.0498    0.5868  C     
19   C         7.9120    6.1382   -0.8036  C     
20   C         7.5350    4.9613    2.8108  C     
21   C         8.4671    3.7987    3.3044  C     
22   C         7.7416    2.5614    3.8971  C     
23   N         6.7286    3.0026    4.8728  N     
24   C         5.6584    3.7968    4.2568  C     
25   C         6.1647    5.1233    3.5838  C     
26   C         5.0508    5.7632    2.8394  C     
27   N         4.3289    6.7573    3.3719  N     
28   O         4.5507    5.1048    1.9355  O     
29   C         4.7531    8.1266    3.1266  C     
30   C         2.8882    6.5708    3.5891  C     
31   C         2.5326    6.7611    5.0231  C     
32   C         6.1854    8.5973    2.8013  C     
33   C         5.6500    8.7511    4.2175  C     
34   C         2.4942    8.0853    5.5362  C     
35   C         2.1783    8.3591    6.8851  C     
36   C         1.9369    7.2680    7.7463  C     
37   C         1.9197    5.9527    7.2594  C     
38   C         2.2062    5.6925    5.9085  C     
39   Cl        2.0791    4.0659    5.4228  Cl    
40   C         2.1403    9.7768    7.3422  C     
41   N         1.5214    9.9568    8.6210  N     
42   C         2.0597   10.3899    9.7489  C     
43   O         1.3194   10.3936   10.7245  O     
44   C         3.4293   10.8378    9.9045  C     
45   H         0.4073    8.6720   -5.0781  H     
46   H         0.3089    7.5457   -1.0230  H     
47   H        -1.7751    7.9567   -2.1199  H     
48   H        -1.7350    7.5154   -3.8351  H     
49   H        -1.6242    9.2253   -3.3466  H     
50   H         4.5335    5.8056   -2.4826  H     
51   H         4.4382    6.0547   -4.2384  H     
52   H         6.6655    6.5808   -4.4480  H     
53   H         6.7745    7.3737   -2.8843  H     
54   H         6.0887    3.3582   -1.3140  H     
55   H         6.3667    3.1857    1.0655  H     
56   H         8.5631    6.7875    1.0707  H     
57   H         8.3540    6.9201   -1.2904  H     
58   H         8.1031    5.8583    3.0962  H     
59   H         9.1151    3.4434    2.4894  H     
60   H         9.1421    4.1844    4.0858  H     
61   H         7.2902    1.9675    3.1002  H     
62   H         8.4689    1.9387    4.4103  H     
63   H         7.1863    3.5565    5.6028  H     
64   H         6.3122    2.1717    5.3106  H     
65   H         4.9410    4.0361    5.0484  H     
66   H         5.1427    3.1639    3.5273  H     
67   H         6.3887    5.7769    4.4488  H     
68   H         3.9983    8.8387    2.7543  H     
69   H         2.5534    5.5799    3.2724  H     
70   H         2.2843    7.2517    2.9773  H     
71   H         6.9334    7.8270    2.6602  H     
72   H         6.2730    9.5327    2.2437  H     
73   H         5.4392    9.7793    4.5031  H     
74   H         6.1195    8.0925    4.9441  H     
75   H         2.6724    8.8735    4.9074  H     
76   H         1.7536    7.4157    8.7403  H     
77   H         1.7046    5.1885    7.9059  H     
78   H         3.1613   10.1767    7.3084  H     
79   H         1.5388   10.3675    6.6397  H     
80   H         0.5984    9.6623    8.6845  H     
81   H         3.5961   11.7175    9.2804  H     
82   H         3.6486   11.1047   10.9405  H     
83   H         4.1142   10.0422    9.6049  H     
@<TRIPOS>BOND
     1    2    3 1
     2   10   11 1
     3    5    6 2
     4   11   12 1
     5   20   25 1
     6   21   22 1
     7   22   23 1
     8   23   24 1
     9   24   25 1
    10    6    1 1
    11   25   26 1
    12   12   13 1
    13   26   27 am
    14    1    2 2
    15   26   28 2
    16   13   14 1
    17   27   29 1
    18    6    7 1
    19   27   30 1
    20   14   15 2
    21   30   31 1
    22   32   29 1
    23   33   32 1
    24   29   33 1
    25    3    4 2
    26   15   16 1
    27    4    8 1
    28   31   34 2
    29   16   17 2
    30   34   35 1
    31   35   36 2
    32   17   18 1
    33   36   37 1
    34    2    9 1
    35   37   38 2
    36   38   31 1
    37   18   19 2
    38   38   39 1
    39   19   14 1
    40   35   40 1
    41    4    5 1
    42   40   41 1
    43   20   17 1
    44   41   42 am
    45   20   21 1
    46   42   43 2
    47    3   10 1
    48   42   44 1
    49    1   45 1
    50    5   46 1
    51    7   47 1
    52    7   48 1
    53    7   49 1
    54   11   50 1
    55   11   51 1
    56   12   52 1
    57   12   53 1
    58   15   54 1
    59   16   55 1
    60   18   56 1
    61   19   57 1
    62   20   58 1
    63   21   59 1
    64   21   60 1
    65   22   61 1
    66   22   62 1
    67   23   63 1
    68   23   64 1
    69   24   65 1
    70   24   66 1
    71   25   67 1
    72   29   68 1
    73   30   69 1
    74   30   70 1
    75   32   71 1
    76   32   72 1
    77   33   73 1
    78   33   74 1
    79   34   75 1
    80   36   76 1
    81   37   77 1
    82   40   78 1
    83   40   79 1
    84   41   80 1
    85   44   81 1
    86   44   82 1
    87   44   83 1
@<TRIPOS>PROPERTY_DATA
  Total_Score	| 8.1400
  Crash		| -2.6508
  Polar		| 1.0488
  FragIndex	| 1
  FragRMSD	| 0.744

