@<TRIPOS>MOLECULE
BindingDB_50328850
 82 86 0 0 0
SMALL
NO_CHARGES


@<TRIPOS>ATOM
1    C         1.1014    8.3441   -4.1605  C     
2    C         2.4658    8.3536   -4.5149  C     
3    C         3.4393    7.9005   -3.5952  C     
4    C         3.0329    7.5026   -2.2995  C     
5    C         1.6686    7.4931   -1.9569  C     
6    C         0.6879    7.8968   -2.8836  C     
7    C        -0.7405    7.8566   -2.4961  C     
8    Cl        4.1614    7.0254   -1.1326  Cl    
9    Cl        2.9051    8.9277   -6.0484  Cl    
10   O         4.7742    7.9344   -3.9180  O     
11   C         5.3939    6.6645   -4.2371  C     
12   C         6.6249    6.4384   -3.3158  C     
13   O         6.5037    5.2009   -2.5737  O     
14   C         6.8646    5.2024   -1.2427  C     
15   C         6.0404    4.5379   -0.3117  C     
16   C         6.3515    4.5454    1.0638  C     
17   C         7.4903    5.2271    1.5650  C     
18   C         8.3500    5.8369    0.6091  C     
19   C         8.0515    5.8044   -0.7739  C     
20   C         7.7461    5.2376    3.0590  C     
21   C         9.2106    5.6092    3.4420  C     
22   C         9.4982    5.5142    4.9686  C     
23   N         8.2920    5.5106    5.8214  N     
24   C         7.1965    6.3941    5.3753  C     
25   C         6.7469    6.1451    3.8848  C     
26   C         5.3610    5.6501    3.8339  C     
27   N         4.2931    6.2529    3.2792  N     
28   O         5.2091    4.5506    4.3639  O     
29   C         4.3976    7.5980    2.7516  C     
30   C         3.0655    5.5216    2.9815  C     
31   C         1.8980    5.7544    3.8910  C     
32   C         3.3531    8.6753    3.1078  C     
33   C         4.7608    8.7623    3.6946  C     
34   C         2.0925    6.2689    5.1999  C     
35   C         1.0042    6.6566    6.0186  C     
36   C        -0.3065    6.4386    5.5458  C     
37   C        -0.5230    5.8488    4.2913  C     
38   C         0.5671    5.4986    3.4675  C     
39   Cl        0.1975    4.8177    1.9549  Cl    
40   C         1.2484    7.3271    7.3226  C     
41   N         2.2084    8.4421    7.1347  N     
42   C         2.3740    9.3495    8.2822  C     
43   H         0.4045    8.6705   -4.8340  H     
44   H         1.3877    7.1851   -1.0221  H     
45   H        -1.0269    6.8296   -2.2634  H     
46   H        -0.8981    8.4772   -1.6119  H     
47   H        -1.3928    8.2193   -3.2919  H     
48   H         4.7036    5.8159   -4.1429  H     
49   H         5.7234    6.7030   -5.2802  H     
50   H         7.5234    6.3636   -3.9312  H     
51   H         6.7517    7.3068   -2.6624  H     
52   H         5.2021    4.0471   -0.6335  H     
53   H         5.7249    4.0440    1.7011  H     
54   H         9.2010    6.3242    0.9042  H     
55   H         8.6979    6.2433   -1.4333  H     
56   H         7.6229    4.2061    3.4032  H     
57   H         9.4067    6.6371    3.1321  H     
58   H         9.9135    4.9633    2.9098  H     
59   H        10.1240    6.3565    5.2792  H     
60   H        10.0486    4.5960    5.1853  H     
61   H         8.5883    5.7888    6.7615  H     
62   H         7.9330    4.5551    5.8661  H     
63   H         6.3733    6.2388    6.0764  H     
64   H         7.5130    7.4296    5.5109  H     
65   H         6.8021    7.1236    3.4030  H     
66   H         4.8349    7.6968    1.7571  H     
67   H         3.2460    4.4419    2.9544  H     
68   H         2.7640    5.7813    1.9653  H     
69   H         3.1297    9.4109    2.3283  H     
70   H         2.5789    8.4262    3.8432  H     
71   H         4.8232    8.5619    4.7649  H     
72   H         5.3744    9.5633    3.2729  H     
73   H         3.0428    6.4034    5.5513  H     
74   H        -1.1142    6.7142    6.1095  H     
75   H        -1.4807    5.6914    3.9780  H     
76   H         0.3163    7.7178    7.7429  H     
77   H         1.6636    6.6034    8.0280  H     
78   H         3.1272    8.0422    6.9303  H     
79   H         1.9118    9.0010    6.3304  H     
80   H         2.6496    8.7930    9.1807  H     
81   H         1.4538    9.9081    8.4643  H     
82   H         3.1738   10.0557    8.0496  H     
@<TRIPOS>BOND
     1   20   21 1
     2    3   10 1
     3    2    3 1
     4   10   11 1
     5    5    6 2
     6   11   12 1
     7   20   25 1
     8   21   22 1
     9   22   23 1
    10   23   24 1
    11   24   25 1
    12    6    1 1
    13   25   26 1
    14   12   13 1
    15   26   27 am
    16    1    2 2
    17   26   28 2
    18   13   14 1
    19   27   29 1
    20    6    7 1
    21   27   30 1
    22   14   15 2
    23   30   31 1
    24   32   29 1
    25   33   32 1
    26   29   33 1
    27    3    4 2
    28   15   16 1
    29    4    8 1
    30   31   34 2
    31   16   17 2
    32   34   35 1
    33   35   36 2
    34   17   18 1
    35   36   37 1
    36    2    9 1
    37   37   38 2
    38   38   31 1
    39   18   19 2
    40   38   39 1
    41   19   14 1
    42   35   40 1
    43    4    5 1
    44   40   41 1
    45   20   17 1
    46   41   42 1
    47    1   43 1
    48    5   44 1
    49    7   45 1
    50    7   46 1
    51    7   47 1
    52   11   48 1
    53   11   49 1
    54   12   50 1
    55   12   51 1
    56   15   52 1
    57   16   53 1
    58   18   54 1
    59   19   55 1
    60   20   56 1
    61   21   57 1
    62   21   58 1
    63   22   59 1
    64   22   60 1
    65   23   61 1
    66   23   62 1
    67   24   63 1
    68   24   64 1
    69   25   65 1
    70   29   66 1
    71   30   67 1
    72   30   68 1
    73   32   69 1
    74   32   70 1
    75   33   71 1
    76   33   72 1
    77   34   73 1
    78   36   74 1
    79   37   75 1
    80   40   76 1
    81   40   77 1
    82   41   78 1
    83   41   79 1
    84   42   80 1
    85   42   81 1
    86   42   82 1
@<TRIPOS>PROPERTY_DATA
  Total_Score	| 9.9789
  Crash		| -2.3023
  Polar		| 1.7997
  FragIndex	| 1
  FragRMSD	| 0.156

