@<TRIPOS>MOLECULE
BindingDB_50328855
 86 90 0 0 0
SMALL
NO_CHARGES


@<TRIPOS>ATOM
1    C         0.9559    8.4580   -4.3715  C     
2    C         2.3604    8.4092   -4.4279  C     
3    C         3.0975    7.9465   -3.3074  C     
4    C         2.4064    7.6144   -2.1206  C     
5    C         1.0019    7.6672   -2.0753  C     
6    C         0.2607    8.0753   -3.2032  C     
7    C        -1.2139    8.1468   -3.1632  C     
8    Cl        3.2138    7.1628   -0.7041  Cl    
9    Cl        3.1244    8.9436   -5.8457  Cl    
10   O         4.4699    7.8697   -3.3284  O     
11   C         5.0480    6.7612   -4.0637  C     
12   C         6.1324    6.1035   -3.1866  C     
13   O         5.4348    5.6126   -2.0323  O     
14   C         6.0859    5.4838   -0.8352  C     
15   C         6.6787    6.5955   -0.2097  C     
16   C         7.1723    6.4973    1.1044  C     
17   C         7.0074    5.3099    1.8578  C     
18   C         6.4213    4.1972    1.2108  C     
19   C         5.9592    4.2806   -0.1171  C     
20   C         7.4515    5.2273    3.2885  C     
21   C         8.9868    5.4736    3.3702  C     
22   C         9.5398    5.5538    4.8229  C     
23   N         8.4858    5.4275    5.8561  N     
24   C         7.3296    6.3357    5.6715  C     
25   C         6.6177    6.1497    4.2779  C     
26   C         5.2231    5.7193    4.4518  C     
27   N         4.0669    6.3278    4.0703  N     
28   O         5.1350    4.6136    5.0023  O     
29   C         4.0935    7.4670    3.1738  C     
30   C         2.7580    5.8253    4.5078  C     
31   C         1.6111    5.7210    3.5288  C     
32   C         3.1870    8.7008    3.3510  C     
33   C         4.6715    8.7955    3.6996  C     
34   C         0.2895    6.0227    3.9792  C     
35   C        -0.8610    5.7273    3.2024  C     
36   C        -0.6781    5.1968    1.9047  C     
37   C         0.6080    4.9157    1.4263  C     
38   C         1.7430    5.1348    2.2381  C     
39   Cl        3.2009    4.5259    1.6142  Cl    
40   C        -2.2389    5.8283    3.7676  C     
41   C        -2.5827    4.5854    4.6345  C     
42   N        -3.9463    4.5907    5.0523  N     
43   C        -4.5972    3.5909    5.6418  C     
44   O        -5.7701    3.8119    5.9301  O     
45   C        -4.0291    2.3034    5.9710  C     
46   H         0.4290    8.7907   -5.1829  H     
47   H         0.5194    7.4075   -1.2156  H     
48   H        -1.6353    7.4765   -3.9165  H     
49   H        -1.5377    9.1696   -3.3728  H     
50   H        -1.6135    7.8561   -2.1884  H     
51   H         4.3222    5.9872   -4.3677  H     
52   H         5.5066    7.1616   -4.9745  H     
53   H         6.9073    6.8490   -2.9750  H     
54   H         6.5936    5.2646   -3.7111  H     
55   H         6.7287    7.4973   -0.6947  H     
56   H         7.6120    7.3229    1.5093  H     
57   H         6.2999    3.3122    1.7073  H     
58   H         5.5025    3.4730   -0.5436  H     
59   H         7.3179    4.1972    3.6341  H     
60   H         9.2371    6.4061    2.8558  H     
61   H         9.5096    4.6673    2.8399  H     
62   H        10.0608    6.5006    4.9613  H     
63   H        10.2665    4.7580    4.9950  H     
64   H         8.1348    4.4625    5.8445  H     
65   H         8.9066    5.6099    6.7692  H     
66   H         7.6867    7.3576    5.7862  H     
67   H         6.6526    6.1658    6.5111  H     
68   H         6.6294    7.1400    3.8338  H     
69   H         4.3686    7.2560    2.1440  H     
70   H         2.8026    4.8153    4.9366  H     
71   H         2.4718    6.4633    5.3565  H     
72   H         2.8900    9.2169    2.4368  H     
73   H         2.5305    8.7424    4.2170  H     
74   H         4.9023    8.8305    4.7660  H     
75   H         5.3183    9.3200    2.9918  H     
76   H         0.1582    6.3915    4.9349  H     
77   H        -1.4900    4.9494    1.3295  H     
78   H         0.6906    4.4766    0.5102  H     
79   H        -2.3330    6.7267    4.3886  H     
80   H        -2.9691    5.9273    2.9610  H     
81   H        -2.4012    3.6721    4.0585  H     
82   H        -1.9273    4.5884    5.5086  H     
83   H        -4.4535    5.3977    4.8916  H     
84   H        -3.2162    2.4300    6.6913  H     
85   H        -3.6355    1.8268    5.0703  H     
86   H        -4.7750    1.6326    6.4116  H     
@<TRIPOS>BOND
     1   10   11 1
     2    5    6 2
     3   11   12 1
     4   20   25 1
     5   21   22 1
     6   22   23 1
     7   23   24 1
     8   24   25 1
     9    6    1 1
    10   25   26 1
    11   12   13 1
    12   26   27 am
    13    1    2 2
    14   26   28 2
    15   13   14 1
    16   27   29 1
    17    6    7 1
    18   27   30 1
    19   14   15 2
    20   30   31 1
    21   32   29 1
    22   33   32 1
    23   29   33 1
    24    3    4 2
    25   15   16 1
    26    4    8 1
    27   31   34 2
    28   16   17 2
    29   34   35 1
    30   35   36 2
    31   17   18 1
    32   36   37 1
    33    2    9 1
    34   37   38 2
    35   38   31 1
    36   18   19 2
    37   38   39 1
    38   19   14 1
    39   35   40 1
    40    4    5 1
    41   40   41 1
    42   20   17 1
    43   41   42 1
    44   20   21 1
    45   42   43 am
    46    3   10 1
    47   43   44 2
    48    2    3 1
    49   43   45 1
    50    1   46 1
    51    5   47 1
    52    7   48 1
    53    7   49 1
    54    7   50 1
    55   11   51 1
    56   11   52 1
    57   12   53 1
    58   12   54 1
    59   15   55 1
    60   16   56 1
    61   18   57 1
    62   19   58 1
    63   20   59 1
    64   21   60 1
    65   21   61 1
    66   22   62 1
    67   22   63 1
    68   23   64 1
    69   23   65 1
    70   24   66 1
    71   24   67 1
    72   25   68 1
    73   29   69 1
    74   30   70 1
    75   30   71 1
    76   32   72 1
    77   32   73 1
    78   33   74 1
    79   33   75 1
    80   34   76 1
    81   36   77 1
    82   37   78 1
    83   40   79 1
    84   40   80 1
    85   41   81 1
    86   41   82 1
    87   42   83 1
    88   45   84 1
    89   45   85 1
    90   45   86 1
@<TRIPOS>PROPERTY_DATA
  Total_Score	| 12.3316
  Crash		| -1.3861
  Polar		| 1.8026
  FragIndex	| 1
  FragRMSD	| 0.184

