@<TRIPOS>MOLECULE
BindingDB_50328852
 83 87 0 0 0
SMALL
NO_CHARGES


@<TRIPOS>ATOM
1    C         1.0154    7.7208   -1.9435  C     
2    C         2.4152    7.5644   -2.0273  C     
3    C         3.0910    7.8329   -3.2406  C     
4    C         2.3628    8.3366   -4.3429  C     
5    C         0.9635    8.4686   -4.2551  C     
6    C         0.2737    8.1619   -3.0616  C     
7    C        -1.1999    8.3145   -3.0190  C     
8    Cl        3.1320    8.8052   -5.7831  Cl    
9    Cl        3.2685    7.0386   -0.6599  Cl    
10   O         4.4451    7.6221   -3.3280  O     
11   C         4.8067    6.3156   -3.8288  C     
12   C         6.3130    6.0519   -3.5831  C     
13   O         6.5708    5.0353   -2.5952  O     
14   C         6.5858    5.3329   -1.2581  C     
15   C         6.8198    6.6244   -0.7467  C     
16   C         7.0312    6.8206    0.6272  C     
17   C         7.0224    5.7343    1.5310  C     
18   C         6.7874    4.4411    1.0121  C     
19   C         6.5572    4.2493   -0.3621  C     
20   C         7.4152    5.9500    2.9664  C     
21   C         8.9431    5.6441    3.1446  C     
22   C         9.3524    5.3004    4.6013  C     
23   N         8.4842    6.0146    5.5593  N     
24   C         7.0552    5.6041    5.5028  C     
25   C         6.5486    5.2431    4.0639  C     
26   C         5.0774    5.3387    3.9578  C     
27   N         4.3109    6.4057    3.6354  N     
28   O         4.5027    4.2841    4.2025  O     
29   C         4.8989    7.6450    3.1643  C     
30   C         2.8628    6.2635    3.5121  C     
31   C         2.1303    6.2299    4.8184  C     
32   C         5.4494    8.6640    4.1747  C     
33   C         4.2412    9.0353    3.3186  C     
34   C         2.3891    7.2585    5.7509  C     
35   C         1.6343    7.4157    6.9318  C     
36   C         0.6305    6.4638    7.2185  C     
37   C         0.3926    5.3978    6.3320  C     
38   C         1.1196    5.2746    5.1321  C     
39   Cl        0.7076    3.9746    4.1138  Cl    
40   C         1.9253    8.5549    7.8440  C     
41   C         1.6098    9.9395    7.2088  C     
42   O         1.5582   11.0383    8.1409  O     
43   C         2.8202   11.5047    8.6531  C     
44   H         0.5355    7.5053   -1.0648  H     
45   H         0.4427    8.8061   -5.0677  H     
46   H        -1.4763    9.3452   -3.2594  H     
47   H        -1.6182    8.0566   -2.0429  H     
48   H        -1.6457    7.6493   -3.7600  H     
49   H         4.2298    5.5203   -3.3541  H     
50   H         4.6131    6.2764   -4.9029  H     
51   H         6.7623    5.6900   -4.5118  H     
52   H         6.8332    6.9767   -3.3377  H     
53   H         6.8985    7.4190   -1.3772  H     
54   H         7.2545    7.7609    0.9507  H     
55   H         6.8187    3.6231    1.6211  H     
56   H         6.4261    3.2987   -0.7210  H     
57   H         7.3115    7.0150    3.1798  H     
58   H         9.2682    4.8178    2.4945  H     
59   H         9.5087    6.5340    2.8406  H     
60   H        10.3915    5.5869    4.7759  H     
61   H         9.2766    4.2188    4.7728  H     
62   H         8.8260    5.8384    6.5147  H     
63   H         8.5582    7.0305    5.3681  H     
64   H         6.9272    4.7338    6.1524  H     
65   H         6.4729    6.4045    5.9525  H     
66   H         6.8136    4.1784    3.9371  H     
67   H         5.4107    7.5978    2.2105  H     
68   H         2.4186    7.0733    2.9366  H     
69   H         2.6712    5.3777    2.9202  H     
70   H         6.3619    9.1900    3.9100  H     
71   H         5.1945    8.5659    5.2274  H     
72   H         3.3320    9.1560    3.9062  H     
73   H         4.4759    9.7829    2.5548  H     
74   H         3.1239    7.9382    5.5591  H     
75   H         0.0695    6.5345    8.0731  H     
76   H        -0.3383    4.7217    6.5654  H     
77   H         2.9834    8.5014    8.1199  H     
78   H         1.3474    8.4658    8.7610  H     
79   H         0.6292    9.8902    6.7322  H     
80   H         2.3307   10.1873    6.4285  H     
81   H         2.6499   12.4498    9.1719  H     
82   H         3.5455   11.6797    7.8556  H     
83   H         3.2383   10.7979    9.3713  H     
@<TRIPOS>BOND
     1    3   10 1
     2    2    3 1
     3   10   11 1
     4    5    6 2
     5   11   12 1
     6   20   25 1
     7   21   22 1
     8   22   23 1
     9   23   24 1
    10   24   25 1
    11    6    1 1
    12   25   26 1
    13   12   13 1
    14   26   27 am
    15    1    2 2
    16   26   28 2
    17   13   14 1
    18   27   29 1
    19    6    7 1
    20   27   30 1
    21   14   15 2
    22   30   31 1
    23   32   29 1
    24   33   32 1
    25   29   33 1
    26    3    4 2
    27   15   16 1
    28    4    8 1
    29   31   34 2
    30   16   17 2
    31   34   35 1
    32   35   36 2
    33   17   18 1
    34   36   37 1
    35    2    9 1
    36   37   38 2
    37   38   31 1
    38   18   19 2
    39   38   39 1
    40   19   14 1
    41   35   40 1
    42    4    5 1
    43   40   41 1
    44   20   17 1
    45   41   42 1
    46   20   21 1
    47   42   43 1
    48    1   44 1
    49    5   45 1
    50    7   46 1
    51    7   47 1
    52    7   48 1
    53   11   49 1
    54   11   50 1
    55   12   51 1
    56   12   52 1
    57   15   53 1
    58   16   54 1
    59   18   55 1
    60   19   56 1
    61   20   57 1
    62   21   58 1
    63   21   59 1
    64   22   60 1
    65   22   61 1
    66   23   62 1
    67   23   63 1
    68   24   64 1
    69   24   65 1
    70   25   66 1
    71   29   67 1
    72   30   68 1
    73   30   69 1
    74   32   70 1
    75   32   71 1
    76   33   72 1
    77   33   73 1
    78   34   74 1
    79   36   75 1
    80   37   76 1
    81   40   77 1
    82   40   78 1
    83   41   79 1
    84   41   80 1
    85   43   81 1
    86   43   82 1
    87   43   83 1
@<TRIPOS>PROPERTY_DATA
  Total_Score	| 11.1457
  Crash		| -3.4282
  Polar		| 5.0263
  FragIndex	| 1
  FragRMSD	| 0.576

