@<TRIPOS>MOLECULE
BindingDB_50328853
 86 90 0 0 0
SMALL
NO_CHARGES


@<TRIPOS>ATOM
1    C         0.9515    8.4409   -4.3396  C     
2    C         2.3565    8.3944   -4.4173  C     
3    C         3.1112    7.9335   -3.3129  C     
4    C         2.4410    7.5894   -2.1114  C     
5    C         1.0362    7.6572   -2.0425  C     
6    C         0.2741    8.0764   -3.1556  C     
7    C        -1.2047    8.1601   -3.1010  C     
8    Cl        3.2878    7.1333   -0.7191  Cl    
9    Cl        3.0957    8.9532   -5.8378  Cl    
10   O         4.4862    7.9034   -3.3326  O     
11   C         5.1001    6.8570   -4.1256  C     
12   C         6.4552    6.4889   -3.4849  C     
13   O         6.1990    5.5302   -2.4367  O     
14   C         6.8506    5.6560   -1.2389  C     
15   C         6.8379    6.8880   -0.5553  C     
16   C         7.1282    6.9390    0.8227  C     
17   C         7.3851    5.7555    1.5619  C     
18   C         7.5536    4.5494    0.8271  C     
19   C         7.2539    4.4954   -0.5515  C     
20   C         7.2760    5.7602    3.0686  C     
21   C         8.6668    5.6770    3.8029  C     
22   C         9.0747    4.2539    4.2556  C     
23   N         7.9730    3.6368    5.0161  N     
24   C         6.7778    3.3984    4.1802  C     
25   C         6.1860    4.7202    3.5616  C     
26   C         5.1012    5.2967    4.3895  C     
27   N         4.0809    5.9733    3.8476  N     
28   O         4.9671    4.8740    5.5289  O     
29   C         4.3418    7.0660    2.9350  C     
30   C         2.7427    5.4047    3.8721  C     
31   C         1.8229    5.8336    4.9697  C     
32   C         4.8627    8.3816    3.5575  C     
33   C         3.4653    8.3348    2.9399  C     
34   C         2.2008    6.8574    5.8736  C     
35   C         1.3326    7.3260    6.8903  C     
36   C         0.0551    6.7386    6.9983  C     
37   C        -0.3275    5.6899    6.1480  C     
38   C         0.5466    5.2243    5.1448  C     
39   Cl       -0.0111    3.9440    4.1733  Cl    
40   C         1.7449    8.4533    7.7680  C     
41   C         1.9865    9.7478    6.9424  C     
42   C         2.4306   10.9621    7.7918  C     
43   O         1.5802   11.1479    8.9418  O     
44   C         2.1054   10.6528   10.1851  C     
45   H         0.4149    8.7709   -5.1469  H     
46   H         0.5642    7.4053   -1.1707  H     
47   H        -1.6375    7.4951   -3.8440  H     
48   H        -1.5210    9.1808   -3.3102  H     
49   H        -1.5940    7.8782   -2.1226  H     
50   H         4.4856    5.9467   -4.1941  H     
51   H         5.2758    7.2288   -5.1363  H     
52   H         7.1049    6.0124   -4.2270  H     
53   H         6.9478    7.4098   -3.1425  H     
54   H         6.5343    7.7342   -1.0399  H     
55   H         7.0552    7.8398    1.2966  H     
56   H         7.7678    3.6758    1.3127  H     
57   H         7.2547    3.5922   -1.0348  H     
58   H         6.8982    6.7540    3.3518  H     
59   H         8.6194    6.2972    4.7060  H     
60   H         9.4548    6.0916    3.1714  H     
61   H         9.3439    3.6394    3.3923  H     
62   H         9.9477    4.3145    4.9145  H     
63   H         7.7224    4.2548    5.7968  H     
64   H         8.2839    2.7333    5.3927  H     
65   H         6.0316    2.8870    4.8037  H     
66   H         7.0427    2.6935    3.3809  H     
67   H         5.6764    4.3329    2.6724  H     
68   H         4.7760    6.8322    1.9611  H     
69   H         2.2737    5.6438    2.9124  H     
70   H         2.7827    4.3128    3.9132  H     
71   H         4.8477    8.4708    4.6465  H     
72   H         5.5562    8.9859    2.9801  H     
73   H         2.6650    8.4379    3.6682  H     
74   H         3.3694    8.8534    1.9877  H     
75   H         3.1180    7.2947    5.7884  H     
76   H        -0.6141    7.0750    7.6978  H     
77   H        -1.2538    5.2721    6.2673  H     
78   H         2.6542    8.1831    8.3037  H     
79   H         0.9781    8.6526    8.5185  H     
80   H         1.0644   10.0170    6.4205  H     
81   H         2.7604    9.5564    6.1929  H     
82   H         3.4928   10.8631    8.0395  H     
83   H         2.3307   11.8597    7.1791  H     
84   H         2.2841    9.5783   10.1364  H     
85   H         1.3888   10.8478   10.9805  H     
86   H         3.0376   11.1665   10.4368  H     
@<TRIPOS>BOND
     1    2    3 1
     2   10   11 1
     3    5    6 2
     4   11   12 1
     5   20   25 1
     6   21   22 1
     7   22   23 1
     8   23   24 1
     9   24   25 1
    10    6    1 1
    11   25   26 1
    12   12   13 1
    13   26   27 am
    14    1    2 2
    15   26   28 2
    16   13   14 1
    17   27   29 1
    18    6    7 1
    19   27   30 1
    20   14   15 2
    21   30   31 1
    22   32   29 1
    23   33   32 1
    24   29   33 1
    25    3    4 2
    26   15   16 1
    27    4    8 1
    28   31   34 2
    29   16   17 2
    30   34   35 1
    31   35   36 2
    32   17   18 1
    33   36   37 1
    34    2    9 1
    35   37   38 2
    36   38   31 1
    37   18   19 2
    38   38   39 1
    39   19   14 1
    40   35   40 1
    41    4    5 1
    42   40   41 1
    43   20   17 1
    44   41   42 1
    45   20   21 1
    46   42   43 1
    47    3   10 1
    48   43   44 1
    49    1   45 1
    50    5   46 1
    51    7   47 1
    52    7   48 1
    53    7   49 1
    54   11   50 1
    55   11   51 1
    56   12   52 1
    57   12   53 1
    58   15   54 1
    59   16   55 1
    60   18   56 1
    61   19   57 1
    62   20   58 1
    63   21   59 1
    64   21   60 1
    65   22   61 1
    66   22   62 1
    67   23   63 1
    68   23   64 1
    69   24   65 1
    70   24   66 1
    71   25   67 1
    72   29   68 1
    73   30   69 1
    74   30   70 1
    75   32   71 1
    76   32   72 1
    77   33   73 1
    78   33   74 1
    79   34   75 1
    80   36   76 1
    81   37   77 1
    82   40   78 1
    83   40   79 1
    84   41   80 1
    85   41   81 1
    86   42   82 1
    87   42   83 1
    88   44   84 1
    89   44   85 1
    90   44   86 1
@<TRIPOS>PROPERTY_DATA
  Total_Score	| 9.9039
  Crash		| -2.1259
  Polar		| 1.0631
  FragIndex	| 1
  FragRMSD	| 0.991

