@<TRIPOS>MOLECULE
BindingDB_50325178
 82 85 0 0 0
SMALL
NO_CHARGES


@<TRIPOS>ATOM
1    C         5.9928    4.4062   -0.2536  C     
2    C         6.3792    4.1788    1.0863  C     
3    C         7.1649    5.1268    1.7825  C     
4    C         7.6000    6.2868    1.1012  C     
5    C         7.2203    6.5152   -0.2420  C     
6    C         6.3958    5.5758   -0.9255  C     
7    O         5.7859    5.7971   -2.1348  O     
8    C         6.3115    6.6259   -3.1757  C     
9    C         5.1368    6.9753   -4.1257  C     
10   O         4.4512    8.1228   -3.5638  O     
11   C         3.0829    8.0567   -3.5026  C     
12   C         2.2902    8.4624   -4.6007  C     
13   C         0.8844    8.4246   -4.5088  C     
14   C         0.2482    8.0250   -3.3143  C     
15   C         1.0398    7.6442   -2.2150  C     
16   C         2.4490    7.6606   -2.3005  C     
17   Cl        3.3290    7.2164   -0.9272  Cl    
18   Cl        2.9968    9.0302   -6.0323  Cl    
19   C        -1.2316    8.0289   -3.2439  C     
20   C         7.4760    4.9323    3.2271  C     
21   C         6.6132    5.8262    4.1785  C     
22   C         7.0744    5.7231    5.6590  C     
23   N         8.4533    6.2193    5.8339  N     
24   C         5.1747    5.6215    4.0163  C     
25   N         4.2785    6.4947    3.4893  N     
26   O         4.8088    4.4794    4.2926  O     
27   C         4.5999    7.8245    2.9688  C     
28   C         2.9211    6.0331    3.1726  C     
29   C         2.0061    5.8604    4.3427  C     
30   C         3.9370    8.8840    3.8904  C     
31   C         5.3715    9.0948    3.4238  C     
32   C         1.6528    7.0123    5.1000  C     
33   C         0.8497    6.9300    6.2585  C     
34   C         0.3276    5.6725    6.6196  C     
35   C         0.6077    4.5297    5.8507  C     
36   C         1.4234    4.6151    4.7137  C     
37   Cl        1.6597    3.1695    3.8527  Cl    
38   C         0.5624    8.1497    7.0673  C     
39   C         1.7800    8.6442    7.9152  C     
40   C         2.3226   10.0489    7.5284  C     
41   O         1.8234   11.0934    8.3866  O     
42   C         2.8207   11.7312    9.2004  C     
43   H         5.3764    3.7328   -0.7088  H     
44   H         6.0471    3.3394    1.5669  H     
45   H         8.1741    6.9901    1.5772  H     
46   H         7.5247    7.3740   -0.7131  H     
47   H         6.7047    7.5724   -2.7605  H     
48   H         7.1048    6.1050   -3.7220  H     
49   H         5.5365    7.2581   -5.1015  H     
50   H         4.5085    6.0960   -4.2565  H     
51   H         0.3278    8.7102   -5.3148  H     
52   H         0.5928    7.3563   -1.3395  H     
53   H        -1.6081    9.0278   -3.4777  H     
54   H        -1.5920    7.7491   -2.2568  H     
55   H        -1.6314    7.3182   -3.9709  H     
56   H         7.3560    3.8848    3.5240  H     
57   H         8.5379    5.1830    3.3658  H     
58   H         6.8337    6.8366    3.9072  H     
59   H         6.4220    6.3193    6.3034  H     
60   H         7.0411    4.6785    5.9846  H     
61   H         9.1062    5.5967    5.3457  H     
62   H         8.6909    6.2344    6.8276  H     
63   H         8.5429    7.1663    5.4551  H     
64   H         4.3585    7.9514    1.9100  H     
65   H         2.3927    6.7054    2.4862  H     
66   H         3.0321    5.1022    2.6076  H     
67   H         3.1637    9.4804    3.4158  H     
68   H         3.8462    8.6428    4.9489  H     
69   H         6.1202    9.0392    4.2192  H     
70   H         5.4193    9.9567    2.7515  H     
71   H         2.0008    7.9281    4.8186  H     
72   H        -0.2436    5.5717    7.4585  H     
73   H         0.2067    3.6333    6.1354  H     
74   H         0.2082    8.9384    6.3901  H     
75   H        -0.2730    7.9497    7.7414  H     
76   H         1.4939    8.6720    8.9700  H     
77   H         2.6058    7.9262    7.8438  H     
78   H         3.4187   10.0195    7.5132  H     
79   H         2.0128   10.2846    6.5106  H     
80   H         3.3623   11.0167    9.8235  H     
81   H         2.3186   12.4488    9.8567  H     
82   H         3.5291   12.2801    8.5826  H     
@<TRIPOS>BOND
     1    1    2 2
     2    1    6 1
     3    2    3 1
     4    3    4 2
     5    3   20 1
     6    4    5 1
     7    5    6 2
     8    6    7 1
     9    7    8 1
    10    8    9 1
    11    9   10 1
    12   10   11 1
    13   11   12 2
    14   11   16 1
    15   12   13 1
    16   12   18 1
    17   13   14 2
    18   14   15 1
    19   14   19 1
    20   15   16 2
    21   16   17 1
    22   20   21 1
    23   21   22 1
    24   21   24 1
    25   22   23 1
    26   24   25 am
    27   24   26 2
    28   25   27 1
    29   25   28 1
    30   27   30 1
    31   27   31 1
    32   28   29 1
    33   29   32 2
    34   29   36 1
    35   30   31 1
    36   32   33 1
    37   33   34 2
    38   33   38 1
    39   34   35 1
    40   35   36 2
    41   36   37 1
    42   38   39 1
    43   39   40 1
    44   40   41 1
    45   41   42 1
    46    1   43 1
    47    2   44 1
    48    4   45 1
    49    5   46 1
    50    8   47 1
    51    8   48 1
    52    9   49 1
    53    9   50 1
    54   13   51 1
    55   15   52 1
    56   19   53 1
    57   19   54 1
    58   19   55 1
    59   20   56 1
    60   20   57 1
    61   21   58 1
    62   22   59 1
    63   22   60 1
    64   23   61 1
    65   23   62 1
    66   23   63 1
    67   27   64 1
    68   28   65 1
    69   28   66 1
    70   30   67 1
    71   30   68 1
    72   31   69 1
    73   31   70 1
    74   32   71 1
    75   34   72 1
    76   35   73 1
    77   38   74 1
    78   38   75 1
    79   39   76 1
    80   39   77 1
    81   40   78 1
    82   40   79 1
    83   42   80 1
    84   42   81 1
    85   42   82 1
@<TRIPOS>PROPERTY_DATA
  Total_Score	| 13.4481
  Crash		| -2.1748
  Polar		| 5.0402
  FragIndex	| 1
  FragRMSD	| 0.720

