@<TRIPOS>MOLECULE
BindingDB_50328873
 86 90 0 0 0
SMALL
NO_CHARGES


@<TRIPOS>ATOM
1    C         0.9360    8.4479   -4.4305  C     
2    C         2.3457    8.4137   -4.4870  C     
3    C         3.0864    7.9562   -3.3691  C     
4    C         2.3982    7.5992   -2.1850  C     
5    C         0.9917    7.6544   -2.1296  C     
6    C         0.2491    8.0723   -3.2562  C     
7    C        -1.2324    8.1659   -3.2118  C     
8    Cl        3.2162    7.1141   -0.7802  Cl    
9    Cl        3.0917    8.9722   -5.9066  Cl    
10   O         4.4606    7.9275   -3.3636  O     
11   C         5.0860    6.8397   -4.0816  C     
12   C         6.4147    6.4598   -3.3886  C     
13   O         6.1577    5.3820   -2.4628  O     
14   C         6.6215    5.4564   -1.1804  C     
15   C         6.3905    6.5727   -0.3344  C     
16   C         6.7333    6.5389    1.0220  C     
17   C         7.2213    5.3476    1.6278  C     
18   C         7.4920    4.2463    0.7674  C     
19   C         7.2067    4.3022   -0.6090  C     
20   C         7.5335    5.2720    3.0926  C     
21   C         9.0382    5.6265    3.2807  C     
22   C         9.5046    5.5452    4.7619  C     
23   N         8.4026    5.3699    5.7394  N     
24   C         7.2312    6.2528    5.5132  C     
25   C         6.6382    6.1461    4.0602  C     
26   C         5.2278    5.7131    4.0538  C     
27   N         4.1436    6.3963    3.6093  N     
28   O         5.0494    4.6002    4.5427  O     
29   C         4.2573    7.6749    2.9340  C     
30   C         2.7990    5.8014    3.6138  C     
31   C         1.8883    6.2131    4.7371  C     
32   C         3.2757    8.8101    3.2910  C     
33   C         4.7583    8.9551    3.6431  C     
34   C         2.4188    6.6922    5.9540  C     
35   C         1.5995    7.1360    7.0236  C     
36   C         0.1949    7.0585    6.8689  C     
37   C        -0.3578    6.5947    5.6689  C     
38   C         0.4621    6.1761    4.6023  C     
39   Cl       -0.3126    5.5724    3.2162  Cl    
40   C         2.2002    7.6168    8.2940  C     
41   N         1.7004    8.8324    8.8516  N     
42   C         1.5186   10.0006    8.2569  C     
43   O         1.1580   10.9123    8.9867  O     
44   C         1.6522   10.2841    6.8426  C     
45   C         0.2657   10.3737    6.1539  C     
46   H         0.4031    8.7659   -5.2446  H     
47   H         0.5077    7.3930   -1.2652  H     
48   H        -1.6361    7.8456   -2.2493  H     
49   H        -1.6685    7.5378   -3.9905  H     
50   H        -1.5399    9.1998   -3.3808  H     
51   H         4.4568    5.9460   -4.1500  H     
52   H         5.3093    7.1650   -5.1009  H     
53   H         7.1324    6.1033   -4.1270  H     
54   H         6.8495    7.3530   -2.9255  H     
55   H         5.9494    7.4172   -0.7130  H     
56   H         6.6147    7.3935    1.5794  H     
57   H         7.9169    3.3853    1.1497  H     
58   H         7.3904    3.4863   -1.2030  H     
59   H         7.4175    4.2271    3.4159  H     
60   H         9.2130    6.6425    2.9130  H     
61   H         9.6612    4.9543    2.6783  H     
62   H        10.0761    6.4518    5.0189  H     
63   H        10.1842    4.6917    4.8906  H     
64   H         8.7794    5.5386    6.6786  H     
65   H         8.0791    4.3953    5.6754  H     
66   H         6.4962    5.9892    6.2770  H     
67   H         7.5442    7.2779    5.7302  H     
68   H         6.6952    7.1580    3.6791  H     
69   H         4.4118    7.6349    1.8578  H     
70   H         2.3128    6.0489    2.6612  H     
71   H         2.8376    4.7072    3.6184  H     
72   H         2.9421    9.4542    2.4771  H     
73   H         2.6353    8.6991    4.1640  H     
74   H         4.9910    8.8640    4.7131  H     
75   H         5.3129    9.6623    3.0133  H     
76   H         3.4357    6.6986    6.0916  H     
77   H        -0.4228    7.3618    7.6217  H     
78   H        -1.3784    6.5447    5.5818  H     
79   H         3.2809    7.7428    8.1989  H     
80   H         2.0257    6.8368    9.0262  H     
81   H         1.5061    8.8210    9.8033  H     
82   H         2.1990   11.2243    6.7093  H     
83   H         2.2429    9.5098    6.3555  H     
84   H         0.3818   10.3926    5.0758  H     
85   H        -0.2430   11.2929    6.4566  H     
86   H        -0.3572    9.5149    6.4118  H     
@<TRIPOS>BOND
     1   10   11 1
     2    5    6 2
     3   11   12 1
     4   20   25 1
     5   21   22 1
     6   22   23 1
     7   23   24 1
     8   24   25 1
     9    6    1 1
    10   25   26 1
    11   12   13 1
    12   26   27 am
    13    1    2 2
    14   26   28 2
    15   13   14 1
    16   27   29 1
    17    6    7 1
    18   27   30 1
    19   14   15 2
    20   30   31 1
    21   32   29 1
    22   33   32 1
    23   29   33 1
    24    3    4 2
    25   15   16 1
    26    4    8 1
    27   31   34 2
    28   16   17 2
    29   34   35 1
    30   35   36 2
    31   17   18 1
    32   36   37 1
    33    2    9 1
    34   37   38 2
    35   38   31 1
    36   18   19 2
    37   38   39 1
    38   19   14 1
    39   35   40 1
    40    4    5 1
    41   40   41 1
    42   20   17 1
    43   41   42 am
    44   20   21 1
    45   42   43 2
    46    3   10 1
    47   42   44 1
    48    2    3 1
    49   44   45 1
    50    1   46 1
    51    5   47 1
    52    7   48 1
    53    7   49 1
    54    7   50 1
    55   11   51 1
    56   11   52 1
    57   12   53 1
    58   12   54 1
    59   15   55 1
    60   16   56 1
    61   18   57 1
    62   19   58 1
    63   20   59 1
    64   21   60 1
    65   21   61 1
    66   22   62 1
    67   22   63 1
    68   23   64 1
    69   23   65 1
    70   24   66 1
    71   24   67 1
    72   25   68 1
    73   29   69 1
    74   30   70 1
    75   30   71 1
    76   32   72 1
    77   32   73 1
    78   33   74 1
    79   33   75 1
    80   34   76 1
    81   36   77 1
    82   37   78 1
    83   40   79 1
    84   40   80 1
    85   41   81 1
    86   44   82 1
    87   44   83 1
    88   45   84 1
    89   45   85 1
    90   45   86 1
@<TRIPOS>PROPERTY_DATA
  Total_Score	| 11.1007
  Crash		| -5.3302
  Polar		| 2.5229
  FragIndex	| 1
  FragRMSD	| 0.513

