@<TRIPOS>MOLECULE
BindingDB_50328847
 89 94 0 0 0
SMALL
NO_CHARGES


@<TRIPOS>ATOM
1    C         0.9650    8.4459   -4.3722  C     
2    C         2.3719    8.4278   -4.3892  C     
3    C         3.0896    7.9627   -3.2594  C     
4    C         2.3786    7.6096   -2.0885  C     
5    C         0.9708    7.6447   -2.0770  C     
6    C         0.2530    8.0449   -3.2229  C     
7    C        -1.2255    8.0608   -3.2370  C     
8    Cl        3.1720    7.1799   -0.6509  Cl    
9    Cl        3.1645    9.0062   -5.7698  Cl    
10   O         4.4608    7.8760   -3.2716  O     
11   C         5.0136    6.7530   -3.9993  C     
12   C         6.1125    6.0843   -3.1502  C     
13   O         5.4870    5.6603   -1.9285  O     
14   C         6.2402    5.5358   -0.8004  C     
15   C         6.0783    4.3741   -0.0256  C     
16   C         6.6209    4.2984    1.2712  C     
17   C         7.3440    5.3887    1.8277  C     
18   C         7.5101    6.5445    1.0231  C     
19   C         6.9590    6.6259   -0.2673  C     
20   C         7.8431    5.4098    3.2433  C     
21   C         8.1424    4.0258    3.8975  C     
22   C         8.8399    4.2150    5.2712  C     
23   N         8.0701    5.1202    6.1635  N     
24   C         7.7117    6.4299    5.5675  C     
25   C         6.9551    6.2922    4.1991  C     
26   C         5.5578    5.8094    4.3036  C     
27   N         4.4960    6.2416    3.5912  N     
28   O         5.3008    5.0805    5.2743  O     
29   C         4.4917    7.5135    2.8957  C     
30   C         3.3866    5.3294    3.3044  C     
31   C         2.0604    5.7150    3.8767  C     
32   C         4.8839    8.8449    3.5783  C     
33   C         3.4131    8.5401    3.3144  C     
34   C         2.0355    6.2566    5.1817  C     
35   C         0.8391    6.6585    5.8021  C     
36   C        -0.3749    6.4611    5.1087  C     
37   C        -0.3805    5.9184    3.8136  C     
38   C         0.8277    5.5616    3.1858  C     
39   Cl        0.7017    4.9546    1.6062  Cl    
40   C         0.8691    7.3388    7.1246  C     
41   C         1.3035    8.8189    6.9705  C     
42   N         1.5652    9.4219    8.2935  N     
43   C         2.0606   10.8116    8.2140  C     
44   C         2.3772   11.5042    9.5471  C     
45   C         3.5192   11.0572    8.6244  C     
46   H         0.4571    8.7704   -5.1965  H     
47   H         0.4712    7.3735   -1.2281  H     
48   H        -1.5777    9.0622   -3.4836  H     
49   H        -1.6468    7.7819   -2.2720  H     
50   H        -1.5921    7.3624   -3.9898  H     
51   H         5.4466    7.1177   -4.9398  H     
52   H         4.2636    5.9819   -4.2452  H     
53   H         6.5116    5.2119   -3.6765  H     
54   H         6.9241    6.8003   -2.9904  H     
55   H         5.5126    3.5999   -0.3834  H     
56   H         6.4439    3.4532    1.8187  H     
57   H         7.9939    7.3673    1.3947  H     
58   H         7.0259    7.5057   -0.7907  H     
59   H         8.8170    5.9060    3.1772  H     
60   H         8.8000    3.4459    3.2433  H     
61   H         7.2219    3.4632    4.0547  H     
62   H         8.9344    3.2428    5.7650  H     
63   H         9.8483    4.6254    5.1293  H     
64   H         8.6456    5.3056    6.9915  H     
65   H         7.2133    4.6413    6.4636  H     
66   H         7.1050    6.9931    6.2844  H     
67   H         8.6416    6.9869    5.4236  H     
68   H         6.9507    7.3003    3.7910  H     
69   H         4.5951    7.4844    1.8108  H     
70   H         3.5891    4.3193    3.6680  H     
71   H         3.3442    5.2242    2.2195  H     
72   H         5.3412    9.5978    2.9319  H     
73   H         5.1919    8.7835    4.6262  H     
74   H         2.9736    9.1531    2.5325  H     
75   H         2.8592    8.4120    4.2457  H     
76   H         2.9123    6.4065    5.6825  H     
77   H        -1.2632    6.7432    5.5285  H     
78   H        -1.2735    5.8134    3.3209  H     
79   H        -0.1213    7.3150    7.5883  H     
80   H         1.5530    6.8194    7.8042  H     
81   H         2.2076    8.8820    6.3553  H     
82   H         0.5039    9.3784    6.4725  H     
83   H         0.6925    9.4182    8.8167  H     
84   H         2.2528    8.8506    8.7946  H     
85   H         1.6891   11.4716    7.4252  H     
86   H         2.2003   12.5835    9.5863  H     
87   H         2.2770   10.9073   10.4541  H     
88   H         4.0371   11.8528    8.0783  H     
89   H         4.0745   10.1738    8.9520  H     
@<TRIPOS>BOND
     1   10   11 1
     2    5    6 2
     3   11   12 1
     4   20   25 1
     5   21   22 1
     6   22   23 1
     7   23   24 1
     8   24   25 1
     9    6    1 1
    10   25   26 1
    11   12   13 1
    12   26   27 am
    13    1    2 2
    14   26   28 2
    15   13   14 1
    16   27   29 1
    17    6    7 1
    18   27   30 1
    19   14   15 2
    20   30   31 1
    21   32   29 1
    22   33   32 1
    23   29   33 1
    24    3    4 2
    25   15   16 1
    26    4    8 1
    27   31   34 2
    28   16   17 2
    29   34   35 1
    30   35   36 2
    31   17   18 1
    32   36   37 1
    33    2    9 1
    34   37   38 2
    35   38   31 1
    36   18   19 2
    37   38   39 1
    38   19   14 1
    39   35   40 1
    40    4    5 1
    41   40   41 1
    42   20   17 1
    43   41   42 1
    44   20   21 1
    45   42   43 1
    46   44   43 1
    47   45   44 1
    48   43   45 1
    49    3   10 1
    50    2    3 1
    51    1   46 1
    52    5   47 1
    53    7   48 1
    54    7   49 1
    55    7   50 1
    56   11   51 1
    57   11   52 1
    58   12   53 1
    59   12   54 1
    60   15   55 1
    61   16   56 1
    62   18   57 1
    63   19   58 1
    64   20   59 1
    65   21   60 1
    66   21   61 1
    67   22   62 1
    68   22   63 1
    69   23   64 1
    70   23   65 1
    71   24   66 1
    72   24   67 1
    73   25   68 1
    74   29   69 1
    75   30   70 1
    76   30   71 1
    77   32   72 1
    78   32   73 1
    79   33   74 1
    80   33   75 1
    81   34   76 1
    82   36   77 1
    83   37   78 1
    84   40   79 1
    85   40   80 1
    86   41   81 1
    87   41   82 1
    88   42   83 1
    89   42   84 1
    90   43   85 1
    91   44   86 1
    92   44   87 1
    93   45   88 1
    94   45   89 1
@<TRIPOS>PROPERTY_DATA
  Total_Score	| 11.7916
  Crash		| -2.5488
  Polar		| 2.7063
  FragIndex	| 1
  FragRMSD	| 0.549

