@<TRIPOS>MOLECULE
BindingDB_50328851
 85 89 0 0 0
SMALL
NO_CHARGES


@<TRIPOS>ATOM
1    C         0.9494    8.4759   -4.4247  C     
2    C         2.3602    8.4339   -4.4805  C     
3    C         3.1026    7.9657   -3.3646  C     
4    C         2.4129    7.6300   -2.1746  C     
5    C         1.0071    7.6782   -2.1270  C     
6    C         0.2603    8.0846   -3.2547  C     
7    C        -1.2194    8.1235   -3.2279  C     
8    Cl        3.2561    7.1686   -0.7798  Cl    
9    Cl        3.1216    8.9746   -5.8917  Cl    
10   O         4.4765    7.8670   -3.3963  O     
11   C         4.9431    6.6642   -4.0457  C     
12   C         6.3734    6.2833   -3.5764  C     
13   O         6.3798    5.2155   -2.5989  O     
14   C         6.4165    5.4698   -1.2478  C     
15   C         6.4336    4.3434   -0.3925  C     
16   C         6.6569    4.4771    0.9937  C     
17   C         6.8753    5.7518    1.5782  C     
18   C         6.8375    6.8751    0.7061  C     
19   C         6.5944    6.7470   -0.6704  C     
20   C         7.2711    5.9429    3.0187  C     
21   C         8.7739    5.5212    3.1793  C     
22   C         9.2515    5.3522    4.6533  C     
23   N         8.4049    6.1078    5.6013  N     
24   C         6.9803    5.7083    5.5754  C     
25   C         6.4094    5.2918    4.1677  C     
26   C         4.9301    5.3682    4.1771  C     
27   N         4.0652    6.2488    3.6176  N     
28   O         4.4426    4.4369    4.8261  O     
29   C         4.4720    7.4756    2.9640  C     
30   C         2.6342    5.9199    3.5423  C     
31   C         1.7753    6.2760    4.7188  C     
32   C         3.6233    8.7586    3.1708  C     
33   C         5.0405    8.6880    3.7370  C     
34   C         2.3049    7.0688    5.7714  C     
35   C         1.5146    7.4899    6.8731  C     
36   C         0.1687    7.0597    6.9331  C     
37   C        -0.3798    6.2752    5.8999  C     
38   C         0.4001    5.8950    4.7850  C     
39   Cl       -0.3840    5.0064    3.5592  Cl    
40   C         2.1038    8.3947    7.9070  C     
41   C         2.4130    9.8143    7.3554  C     
42   N         2.8423   10.7806    8.3949  N     
43   C         2.1223   10.7288    9.6833  C     
44   H         0.4171    8.8043   -5.2387  H     
45   H         0.5214    7.4110   -1.2622  H     
46   H        -1.6256    7.8075   -2.2637  H     
47   H        -1.6163    7.4563   -3.9948  H     
48   H        -1.5732    9.1374   -3.4254  H     
49   H         4.2805    5.8196   -3.8535  H     
50   H         4.9589    6.8352   -5.1261  H     
51   H         6.9086    5.8920   -4.4455  H     
52   H         6.9428    7.1602   -3.2365  H     
53   H         6.3214    3.4078   -0.7941  H     
54   H         6.7174    3.6330    1.5694  H     
55   H         7.0274    7.8199    1.0813  H     
56   H         6.6246    7.5816   -1.2579  H     
57   H         7.2324    7.0165    3.2176  H     
58   H         9.3982    6.2755    2.6902  H     
59   H         8.9631    4.5677    2.6672  H     
60   H        10.2842    5.6963    4.7517  H     
61   H         9.2336    4.2977    4.9407  H     
62   H         8.4721    7.0943    5.3553  H     
63   H         8.7861    5.9993    6.5467  H     
64   H         6.8597    4.8791    6.2794  H     
65   H         6.4158    6.5624    5.9748  H     
66   H         6.6408    4.2260    4.0588  H     
67   H         4.7787    7.3770    1.9208  H     
68   H         2.1547    6.3719    2.6734  H     
69   H         2.5765    4.8401    3.3735  H     
70   H         2.8467    8.7654    3.9356  H     
71   H         3.5158    9.4167    2.3079  H     
72   H         5.7963    9.2682    3.2045  H     
73   H         5.1016    8.5906    4.8220  H     
74   H         3.2877    7.3626    5.7399  H     
75   H        -0.4300    7.3365    7.7218  H     
76   H        -1.3607    5.9847    5.9715  H     
77   H         3.0290    7.9439    8.2708  H     
78   H         1.4477    8.5133    8.7749  H     
79   H         3.2214    9.7531    6.6251  H     
80   H         1.5358   10.2110    6.8384  H     
81   H         3.8328   10.6346    8.5809  H     
82   H         2.7340   11.7284    8.0207  H     
83   H         1.0555   10.8859    9.5329  H     
84   H         2.4950   11.5287   10.3305  H     
85   H         2.2764    9.7659   10.1700  H     
@<TRIPOS>BOND
     1    3   10 1
     2    2    3 1
     3   10   11 1
     4    5    6 2
     5   11   12 1
     6   20   25 1
     7   21   22 1
     8   22   23 1
     9   23   24 1
    10   24   25 1
    11    6    1 1
    12   25   26 1
    13   12   13 1
    14   26   27 am
    15    1    2 2
    16   26   28 2
    17   13   14 1
    18   27   29 1
    19    6    7 1
    20   27   30 1
    21   14   15 2
    22   30   31 1
    23   32   29 1
    24   33   32 1
    25   29   33 1
    26    3    4 2
    27   15   16 1
    28    4    8 1
    29   31   34 2
    30   16   17 2
    31   34   35 1
    32   35   36 2
    33   17   18 1
    34   36   37 1
    35    2    9 1
    36   37   38 2
    37   38   31 1
    38   18   19 2
    39   38   39 1
    40   19   14 1
    41   35   40 1
    42    4    5 1
    43   40   41 1
    44   20   17 1
    45   41   42 1
    46   20   21 1
    47   42   43 1
    48    1   44 1
    49    5   45 1
    50    7   46 1
    51    7   47 1
    52    7   48 1
    53   11   49 1
    54   11   50 1
    55   12   51 1
    56   12   52 1
    57   15   53 1
    58   16   54 1
    59   18   55 1
    60   19   56 1
    61   20   57 1
    62   21   58 1
    63   21   59 1
    64   22   60 1
    65   22   61 1
    66   23   62 1
    67   23   63 1
    68   24   64 1
    69   24   65 1
    70   25   66 1
    71   29   67 1
    72   30   68 1
    73   30   69 1
    74   32   70 1
    75   32   71 1
    76   33   72 1
    77   33   73 1
    78   34   74 1
    79   36   75 1
    80   37   76 1
    81   40   77 1
    82   40   78 1
    83   41   79 1
    84   41   80 1
    85   42   81 1
    86   42   82 1
    87   43   83 1
    88   43   84 1
    89   43   85 1
@<TRIPOS>PROPERTY_DATA
  Total_Score	| 13.9368
  Crash		| -2.5991
  Polar		| 4.7975
  FragIndex	| 1
  FragRMSD	| 0.721

