@<TRIPOS>MOLECULE
BindingDB_50310540
 33 34 0 0 0
SMALL
NO_CHARGES


@<TRIPOS>ATOM
1    C         7.1539  -28.6364  -25.6046  C     
2    C         8.2559  -27.5543  -25.6907  C     
3    C         9.4702  -27.7990  -24.7597  C     
4    C         9.1517  -26.9124  -23.5489  C     
5    C         8.4340  -25.7262  -24.2319  C     
6    O         7.6864  -26.2858  -25.3245  O     
7    N         7.5523  -24.9197  -23.4009  N     
8    C         6.4654  -25.4455  -22.7918  C     
9    O         6.1623  -26.6305  -22.8303  O     
10   N         5.6084  -24.6556  -22.1540  N     
11   C         5.7999  -23.3171  -22.0685  C     
12   C         6.9258  -22.7559  -22.6421  C     
13   C         7.7635  -23.5684  -23.3101  C     
14   P         6.6437  -31.0335  -26.2400  P     
15   O         5.6165  -30.9769  -27.2479  O     
16   O         7.6041  -29.8129  -26.3053  O     
17   O        10.6779  -27.3549  -25.3858  O     
18   O        10.3359  -26.5716  -22.8334  O     
19   N         4.8568  -22.5532  -21.5007  N     
20   O         7.4718  -32.2927  -26.5310  O     
21   O         6.0793  -31.2301  -24.8236  O     
22   H         6.9518  -28.8572  -24.5516  H     
23   H         6.2427  -28.2321  -26.0586  H     
24   H         8.5828  -27.4998  -26.7322  H     
25   H         9.5873  -28.8463  -24.4671  H     
26   H         8.4877  -27.4483  -22.8682  H     
27   H         9.2185  -25.1100  -24.6886  H     
28   H         7.0932  -21.7767  -22.5950  H     
29   H         8.5355  -23.1436  -23.7697  H     
30   H        10.7943  -27.9339  -26.1654  H     
31   H        10.0997  -25.8522  -22.2130  H     
32   H         4.9583  -21.5904  -21.4916  H     
33   H         4.0393  -22.9558  -21.1723  H     
@<TRIPOS>BOND
     1    2    1 1
     2    1   16 1
     3    2    3 1
     4    2    6 1
     5    3    4 1
     6    3   17 1
     7    4    5 1
     8    4   18 1
     9    5    6 1
    10    5    7 1
    11    7    8 1
    12    7   13 1
    13    8    9 2
    14    8   10 1
    15   10   11 2
    16   11   12 1
    17   11   19 1
    18   12   13 2
    19   14   15 2
    20   14   16 1
    21   14   20 1
    22   14   21 1
    23    1   22 1
    24    1   23 1
    25    2   24 1
    26    3   25 1
    27    4   26 1
    28    5   27 1
    29   12   28 1
    30   13   29 1
    31   17   30 1
    32   18   31 1
    33   19   32 1
    34   19   33 1
@<TRIPOS>PROPERTY_DATA
  Total_Score	| 9.4662
  Crash		| -2.2093
  Polar		| 9.5857
  FragIndex	| 1
  FragRMSD	| 0.432

