@<TRIPOS>MOLECULE
BindingDB_21337
 35 36 0 0 0
SMALL
NO_CHARGES


@<TRIPOS>ATOM
1    C         9.4258  -27.5047  -24.8698  C     
2    C         9.1936  -26.5271  -23.7098  C     
3    O         7.3931  -26.2562  -25.2572  O     
4    O        10.5175  -27.0684  -25.6818  O     
5    O        10.4036  -25.9142  -23.2693  O     
6    C         8.0875  -27.4532  -25.6521  C     
7    C         7.1533  -28.6681  -25.4280  C     
8    O         7.6205  -29.7838  -26.2147  O     
9    P         6.7149  -31.0483  -26.1778  P     
10   O         7.5129  -32.2011  -26.4955  O     
11   O         6.1100  -31.2857  -24.7815  O     
12   O         5.6294  -30.9901  -27.2667  O     
13   C         8.1902  -25.5175  -24.3177  C     
14   C         6.4541  -25.5236  -22.6017  C     
15   C         7.3719  -23.4457  -23.1997  C     
16   C         6.6274  -22.8408  -22.2456  C     
17   N         7.3334  -24.8236  -23.3576  N     
18   O         6.2732  -26.7306  -22.6905  O     
19   N         5.7078  -24.9072  -21.6908  N     
20   C         5.7893  -23.5984  -21.4920  C     
21   O         5.0719  -23.0853  -20.6468  O     
22   N         8.0778  -22.6577  -23.9516  N     
23   N         7.7396  -22.3760  -25.0332  N     
24   N         7.3930  -22.1158  -26.1134  N     
25   H         9.6603  -28.5024  -24.4882  H     
26   H         8.7621  -27.0708  -22.8689  H     
27   H        10.6443  -27.7753  -26.3448  H     
28   H        10.2300  -25.5862  -22.3620  H     
29   H         8.2821  -27.3979  -26.7254  H     
30   H         7.1488  -28.9230  -24.3648  H     
31   H         6.1389  -28.3730  -25.7220  H     
32   H         8.7840  -24.8107  -24.9098  H     
33   H         6.6496  -21.8509  -22.1154  H     
34   H         5.0910  -25.4294  -21.1540  H     
35   H         6.6955  -22.5990  -26.5127  H     
@<TRIPOS>BOND
     1    1    2 1
     2    1    4 1
     3    1    6 1
     4    2    5 1
     5    2   13 1
     6    3    6 1
     7    3   13 1
     8    6    7 1
     9    7    8 1
    10    8    9 1
    11    9   10 2
    12    9   11 1
    13    9   12 1
    14   13   17 1
    15   14   17 1
    16   14   18 2
    17   14   19 1
    18   15   16 2
    19   15   17 1
    20   15   22 1
    21   16   20 1
    22   19   20 1
    23   20   21 2
    24   22   23 2
    25   23   24 2
    26    1   25 1
    27    2   26 1
    28    4   27 1
    29    5   28 1
    30    6   29 1
    31    7   30 1
    32    7   31 1
    33   13   32 1
    34   16   33 1
    35   19   34 1
    36   24   35 1
@<TRIPOS>PROPERTY_DATA
  Total_Score	| 14.6265
  Crash		| -1.0519
  Polar		| 11.6411
  FragIndex	| 1
  FragRMSD	| 0.728

