@<TRIPOS>MOLECULE
BindingDB_21338
 34 35 0 0 0
SMALL
NO_CHARGES


@<TRIPOS>ATOM
1    C         9.4507  -27.5576  -24.8723  C     
2    C         9.2149  -26.6076  -23.6910  C     
3    O         7.4232  -26.2944  -25.2364  O     
4    O        10.5444  -27.0960  -25.6689  O     
5    O        10.4257  -26.0221  -23.2208  O     
6    C         8.1146  -27.4838  -25.6569  C     
7    C         7.1646  -28.6843  -25.4466  C     
8    O         7.6296  -29.8070  -26.2258  O     
9    P         6.7018  -31.0544  -26.1916  P     
10   O         7.4835  -32.2258  -26.4924  O     
11   O         6.0942  -31.2746  -24.7932  O     
12   O         5.6237  -30.9848  -27.2878  O     
13   C         8.2389  -25.5745  -24.3016  C     
14   C         6.5128  -25.5035  -22.5866  C     
15   C         7.4592  -23.4529  -23.2312  C     
16   C         6.6998  -22.8180  -22.3094  C     
17   N         7.4050  -24.8344  -23.3556  N     
18   O         6.3102  -26.7090  -22.6517  O     
19   N         5.7708  -24.8597  -21.6927  N     
20   C         5.8581  -23.5473  -21.5318  C     
21   O         5.1464  -23.0099  -20.6966  O     
22   N         8.1785  -22.6814  -23.9872  N     
23   H         9.6821  -28.5667  -24.5209  H     
24   H         8.7619  -27.1662  -22.8701  H     
25   H        10.6791  -27.7842  -26.3533  H     
26   H        10.2335  -25.6552  -22.3326  H     
27   H         8.3134  -27.4090  -26.7280  H     
28   H         7.1387  -28.9330  -24.3794  H     
29   H         6.1603  -28.3729  -25.7587  H     
30   H         8.8515  -24.9073  -24.9110  H     
31   H         6.7288  -21.8254  -22.2026  H     
32   H         5.1503  -25.3661  -21.1462  H     
33   H         8.7541  -23.0234  -24.6373  H     
34   H         8.1424  -21.7548  -23.8705  H     
@<TRIPOS>BOND
     1    1    2 1
     2    1    4 1
     3    1    6 1
     4    2    5 1
     5    2   13 1
     6    3    6 1
     7    3   13 1
     8    6    7 1
     9    7    8 1
    10    8    9 1
    11    9   10 2
    12    9   11 1
    13    9   12 1
    14   13   17 1
    15   14   17 1
    16   14   18 2
    17   14   19 1
    18   15   16 2
    19   15   17 1
    20   15   22 1
    21   16   20 1
    22   19   20 1
    23   20   21 2
    24    1   23 1
    25    2   24 1
    26    4   25 1
    27    5   26 1
    28    6   27 1
    29    7   28 1
    30    7   29 1
    31   13   30 1
    32   16   31 1
    33   19   32 1
    34   22   33 1
    35   22   34 1
@<TRIPOS>PROPERTY_DATA
  Total_Score	| 14.8742
  Crash		| -1.2959
  Polar		| 12.9646
  FragIndex	| 1
  FragRMSD	| 0.767

