@<TRIPOS>MOLECULE
BindingDB_50398698
 35 36 0 0 0
SMALL
NO_CHARGES


@<TRIPOS>ATOM
1    O         6.0805  -31.2997  -24.8646  O     
2    P         6.6392  -31.1013  -26.1687  P     
3    O         5.5219  -31.0382  -27.2428  O     
4    N         6.0265  -24.2370  -21.9359  N     
5    C         6.7274  -25.1614  -22.6264  C     
6    N         7.7162  -24.7919  -23.4826  N     
7    C         7.9704  -23.4557  -23.6496  C     
8    C         7.3179  -22.5040  -22.9654  C     
9    C         6.2973  -22.9086  -22.1045  C     
10   N         5.5621  -21.9353  -21.5315  N     
11   O         6.4118  -26.3460  -22.5121  O     
12   C         8.4744  -25.7443  -24.2932  C     
13   O         7.6325  -26.3612  -25.2729  O     
14   C         8.2005  -27.6236  -25.6452  C     
15   C         9.4237  -27.8444  -24.7035  C     
16   C         9.1653  -26.8944  -23.5111  C     
17   O        10.3742  -26.5053  -22.8625  O     
18   O        10.6605  -27.4438  -25.3299  O     
19   C         7.0946  -28.6843  -25.5825  C     
20   O         7.5951  -29.8817  -26.2407  O     
21   O         7.4471  -32.3707  -26.5115  O     
22   O         5.0747  -24.5652  -21.0704  O     
23   H         8.6472  -23.1356  -24.3092  H     
24   H         7.5334  -21.5435  -23.0895  H     
25   H         5.7977  -21.0101  -21.7086  H     
26   H         4.7808  -22.1679  -20.9982  H     
27   H         9.2752  -25.2192  -24.8365  H     
28   H         8.5411  -27.4970  -26.6747  H     
29   H         9.5136  -28.8904  -24.3850  H     
30   H         8.4653  -27.3558  -22.8003  H     
31   H        10.1340  -25.7946  -22.2500  H     
32   H        10.7818  -28.0038  -26.1117  H     
33   H         6.8467  -28.8893  -24.5218  H     
34   H         6.2055  -28.2758  -26.1029  H     
35   H         5.1772  -25.5202  -20.9012  H     
@<TRIPOS>BOND
     1    1    2 2
     2    2    3 1
     3    2   20 1
     4    2   21 1
     5    4    5 1
     6    4    9 2
     7    4   22 1
     8    5    6 1
     9    5   11 2
    10    6    7 1
    11   12    6 1
    12    7    8 2
    13    8    9 1
    14    9   10 1
    15   12   13 1
    16   12   16 1
    17   13   14 1
    18   14   15 1
    19   14   19 1
    20   15   16 1
    21   15   18 1
    22   16   17 1
    23   19   20 1
    24    7   23 1
    25    8   24 1
    26   10   25 1
    27   10   26 1
    28   12   27 1
    29   14   28 1
    30   15   29 1
    31   16   30 1
    32   17   31 1
    33   18   32 1
    34   19   33 1
    35   19   34 1
    36   22   35 1
@<TRIPOS>PROPERTY_DATA
  Total_Score	| 9.7999
  Crash		| -2.8687
  Polar		| 9.8962
  FragIndex	| 1
  FragRMSD	| 0.955

