@<TRIPOS>MOLECULE
BindingDB_50398699
 32 33 0 0 0
SMALL
NO_CHARGES


@<TRIPOS>ATOM
1    N         7.4624  -24.9492  -23.2548  N     
2    C         6.5331  -25.6069  -22.5231  C     
3    N         5.7703  -24.9362  -21.6608  N     
4    C         5.8800  -23.6213  -21.5061  C     
5    C         6.7684  -22.9133  -22.2500  C     
6    C         7.5377  -23.5852  -23.1306  C     
7    O         6.3353  -26.8124  -22.5981  O     
8    O         5.1524  -23.0619  -20.7009  O     
9    C         8.3554  -25.6511  -24.1641  C     
10   C         9.1505  -26.8204  -23.5279  C     
11   O        10.3614  -26.4536  -22.8637  O     
12   C         9.4405  -27.6988  -24.7513  C     
13   C         8.1927  -27.4763  -25.6461  C     
14   O        10.6229  -27.2394  -25.4203  O     
15   O         7.6183  -26.2090  -25.2709  O     
16   C         7.1194  -28.5886  -25.5312  C     
17   O         7.5764  -29.7579  -26.2470  O     
18   P         6.6445  -31.0035  -26.1725  P     
19   O         6.0577  -31.1773  -24.8594  O     
20   O         5.5429  -30.9332  -27.2392  O     
21   O         7.4783  -32.2565  -26.4844  O     
22   H         5.1230  -25.4188  -21.1267  H     
23   H         6.8411  -21.9256  -22.1548  H     
24   H         8.1567  -23.0549  -23.6989  H     
25   H         9.0932  -24.9620  -24.6054  H     
26   H         8.5342  -27.3745  -22.8100  H     
27   H        10.1394  -25.7488  -22.2172  H     
28   H         9.5840  -28.7451  -24.4543  H     
29   H         8.4880  -27.4204  -26.6972  H     
30   H        10.7640  -27.8675  -26.1581  H     
31   H         6.9618  -28.8281  -24.4773  H     
32   H         6.1820  -28.1952  -25.9437  H     
@<TRIPOS>BOND
     1    1    2 1
     2    1    6 1
     3    9    1 1
     4    2    3 1
     5    2    7 2
     6    3    4 1
     7    4    5 1
     8    4    8 2
     9    5    6 2
    10    9   10 1
    11    9   15 1
    12   10   11 1
    13   10   12 1
    14   12   13 1
    15   12   14 1
    16   13   15 1
    17   13   16 1
    18   16   17 1
    19   17   18 1
    20   18   19 2
    21   18   20 1
    22   18   21 1
    23    3   22 1
    24    5   23 1
    25    6   24 1
    26    9   25 1
    27   10   26 1
    28   11   27 1
    29   12   28 1
    30   13   29 1
    31   14   30 1
    32   16   31 1
    33   16   32 1
@<TRIPOS>PROPERTY_DATA
  Total_Score	| 13.8937
  Crash		| -0.8350
  Polar		| 11.7525
  FragIndex	| 1
  FragRMSD	| 0.803

