@<TRIPOS>MOLECULE
BindingDB_50398697
 34 35 0 0 0
SMALL
NO_CHARGES


@<TRIPOS>ATOM
1    O         7.3211  -32.4338  -26.4892  O     
2    P         6.7301  -31.1289  -26.2756  P     
3    O         6.1340  -31.1198  -24.8249  O     
4    N         5.8508  -24.6442  -22.2531  N     
5    C         6.6489  -25.4768  -22.9193  C     
6    N         7.6940  -24.9971  -23.6248  N     
7    C         7.8725  -23.6295  -23.6907  C     
8    C         7.1123  -22.7977  -22.9602  C     
9    C         6.0659  -23.3065  -22.2260  C     
10   N         5.2524  -22.4555  -21.5926  N     
11   O         6.3926  -26.6740  -22.8984  O     
12   C         8.6578  -25.8329  -24.3366  C     
13   O         7.9784  -26.4060  -25.4740  O     
14   C         8.5452  -27.6941  -25.7193  C     
15   C         9.6748  -27.9262  -24.6601  C     
16   C         9.2993  -26.9983  -23.5117  C     
17   O        10.4624  -26.6610  -22.7511  O     
18   O        10.9460  -27.4710  -25.1515  O     
19   C         7.3760  -28.7140  -25.6913  C     
20   O         7.7728  -29.9421  -26.4176  O     
21   O         5.5011  -30.9763  -27.2524  O     
22   O         4.1536  -22.7986  -20.9840  O     
23   H         8.5532  -23.1937  -24.2914  H     
24   H         7.2764  -21.8183  -22.9608  H     
25   H         5.4655  -21.5237  -21.6674  H     
26   H         9.5043  -25.2331  -24.7765  H     
27   H         8.9588  -27.7016  -26.7296  H     
28   H         9.6841  -28.9784  -24.3681  H     
29   H         8.5653  -27.4447  -22.8645  H     
30   H        10.2480  -25.8995  -22.1781  H     
31   H        11.1760  -27.9709  -25.9547  H     
32   H         7.0651  -28.8981  -24.6245  H     
33   H         6.4915  -28.2642  -26.2118  H     
34   H         3.4314  -22.5687  -21.6316  H     
@<TRIPOS>BOND
     1    1    2 2
     2    2    3 1
     3    2   20 1
     4    2   21 1
     5    4    5 1
     6    4    9 2
     7    5    6 1
     8    5   11 2
     9    6    7 1
    10   12    6 1
    11    7    8 2
    12    8    9 1
    13    9   10 1
    14   10   22 1
    15   12   13 1
    16   12   16 1
    17   13   14 1
    18   14   15 1
    19   14   19 1
    20   15   16 1
    21   15   18 1
    22   16   17 1
    23   19   20 1
    24    7   23 1
    25    8   24 1
    26   10   25 1
    27   12   26 1
    28   14   27 1
    29   15   28 1
    30   16   29 1
    31   17   30 1
    32   18   31 1
    33   19   32 1
    34   19   33 1
    35   22   34 1
@<TRIPOS>PROPERTY_DATA
  Total_Score	| 8.9163
  Crash		| -2.6098
  Polar		| 9.2338
  FragIndex	| 1
  FragRMSD	| 0.989

