@<TRIPOS>MOLECULE
BindingDB_21335
 33 34 0 0 0
SMALL
NO_CHARGES


@<TRIPOS>ATOM
1    C         9.3865  -27.5143  -24.8957  C     
2    C         9.1714  -26.5610  -23.7105  C     
3    O         7.3617  -26.2379  -25.2373  O     
4    O        10.4888  -27.0765  -25.6947  O     
5    O        10.3907  -25.9717  -23.2627  O     
6    C         8.0508  -27.4192  -25.6804  C     
7    C         7.0979  -28.6233  -25.4982  C     
8    O         7.6158  -29.7571  -26.2237  O     
9    P         6.7073  -31.0203  -26.2075  P     
10   O         5.6895  -30.9584  -27.2247  O     
11   O         7.5713  -32.2455  -26.5396  O     
12   O         6.1148  -31.2759  -24.8113  O     
13   C         8.1827  -25.5265  -24.3000  C     
14   C         6.4869  -25.5055  -22.5541  C     
15   C         7.3630  -23.4207  -23.1990  C     
16   C         6.6206  -22.8154  -22.2413  C     
17   N         7.3461  -24.8061  -23.3354  N     
18   O         6.3035  -26.7135  -22.6339  O     
19   N         5.7564  -24.8898  -21.6324  N     
20   C         5.8230  -23.5789  -21.4519  C     
21   O         5.1159  -23.0688  -20.5978  O     
22   C         7.9826  -22.6326  -24.0025  C     
23   N         8.5142  -21.9140  -24.7241  N     
24   H         9.5999  -28.5277  -24.5432  H     
25   H         8.7368  -27.1199  -22.8789  H     
26   H        10.6270  -27.7850  -26.3574  H     
27   H        10.2148  -25.6253  -22.3635  H     
28   H         8.2475  -27.3199  -26.7507  H     
29   H         7.0139  -28.8512  -24.4309  H     
30   H         6.1102  -28.3293  -25.8724  H     
31   H         8.7857  -24.8418  -24.9016  H     
32   H         6.6071  -21.8222  -22.1200  H     
33   H         5.1566  -25.4140  -21.0806  H     
@<TRIPOS>BOND
     1    1    2 1
     2    1    4 1
     3    1    6 1
     4    2    5 1
     5    2   13 1
     6    3    6 1
     7    3   13 1
     8    6    7 1
     9    7    8 1
    10    8    9 1
    11    9   10 2
    12    9   11 1
    13    9   12 1
    14   13   17 1
    15   14   17 1
    16   14   18 2
    17   14   19 1
    18   15   16 2
    19   15   17 1
    20   15   22 1
    21   16   20 1
    22   19   20 1
    23   20   21 2
    24   22   23 3
    25    1   24 1
    26    2   25 1
    27    4   26 1
    28    5   27 1
    29    6   28 1
    30    7   29 1
    31    7   30 1
    32   13   31 1
    33   16   32 1
    34   19   33 1
@<TRIPOS>PROPERTY_DATA
  Total_Score	| 13.7294
  Crash		| -1.2339
  Polar		| 11.5504
  FragIndex	| 1
  FragRMSD	| 0.108

