@<TRIPOS>MOLECULE
BindingDB_21340
 31 32 0 0 0
SMALL
NO_CHARGES


@<TRIPOS>ATOM
1    C         9.5108  -27.7353  -24.8753  C     
2    C         9.2432  -26.9613  -23.5784  C     
3    O         7.6871  -26.2113  -25.2321  O     
4    O        10.6385  -27.1850  -25.5621  O     
5    O        10.4482  -26.6644  -22.8841  O     
6    C         8.2114  -27.4811  -25.6745  C     
7    C         7.1429  -28.5882  -25.5115  C     
8    O         7.5745  -29.7623  -26.2278  O     
9    P         6.6188  -30.9870  -26.1727  P     
10   O         7.4379  -32.1617  -26.4159  O     
11   O         6.0267  -31.2262  -24.7746  O     
12   O         5.5604  -30.9654  -27.2922  O     
13   C         8.4567  -25.7414  -24.1058  C     
14   C         6.5360  -25.7059  -22.5692  C     
15   C         7.2484  -23.2089  -21.8672  C     
16   N         7.6213  -25.1102  -23.1163  N     
17   O         6.1717  -26.8381  -22.8321  O     
18   N         5.8013  -25.0186  -21.6991  N     
19   C         6.1241  -23.7785  -21.3473  C     
20   O         5.4139  -23.1721  -20.5513  O     
21   N         7.9283  -23.9065  -22.7214  N     
22   H         9.6991  -28.7924  -24.6777  H     
23   H         8.6136  -27.5699  -22.9200  H     
24   H        10.8133  -27.7969  -26.3038  H     
25   H        10.2407  -25.9370  -22.2622  H     
26   H         8.4416  -27.4096  -26.7420  H     
27   H         7.0194  -28.8197  -24.4482  H     
28   H         6.1863  -28.2104  -25.8913  H     
29   H         9.1863  -25.0164  -24.4993  H     
30   H         7.5483  -22.3033  -21.6016  H     
31   H         5.0213  -25.4376  -21.3126  H     
@<TRIPOS>BOND
     1    1    2 1
     2    1    4 1
     3    1    6 1
     4    2    5 1
     5    2   13 1
     6    3    6 1
     7    3   13 1
     8    6    7 1
     9    7    8 1
    10    8    9 1
    11    9   10 2
    12    9   11 1
    13    9   12 1
    14   13   16 1
    15   14   16 1
    16   14   17 2
    17   14   18 1
    18   15   19 1
    19   15   21 2
    20   16   21 1
    21   18   19 1
    22   19   20 2
    23    1   22 1
    24    2   23 1
    25    4   24 1
    26    5   25 1
    27    6   26 1
    28    7   27 1
    29    7   28 1
    30   13   29 1
    31   15   30 1
    32   18   31 1
@<TRIPOS>PROPERTY_DATA
  Total_Score	| 14.8983
  Crash		| -0.6843
  Polar		| 13.2701
  FragIndex	| 1
  FragRMSD	| 0.842

