@<TRIPOS>MOLECULE
BindingDB_21339
 35 36 0 0 0
SMALL
NO_CHARGES


@<TRIPOS>ATOM
1    C         9.4551  -27.5508  -24.8781  C     
2    C         9.2314  -26.5992  -23.6978  C     
3    O         7.4288  -26.2977  -25.2376  O     
4    O        10.5536  -27.1046  -25.6647  O     
5    O        10.4583  -26.0017  -23.2602  O     
6    C         8.1125  -27.4830  -25.6454  C     
7    C         7.1631  -28.6946  -25.3829  C     
8    O         7.4951  -29.7918  -26.2653  O     
9    P         6.5850  -31.0571  -26.1847  P     
10   O         5.5936  -31.0291  -27.2299  O     
11   O         7.4805  -32.2765  -26.4875  O     
12   O         5.9783  -31.2827  -24.7814  O     
13   C         8.2389  -25.5719  -24.2985  C     
14   C         6.5841  -25.5613  -22.5272  C     
15   C         7.2967  -23.4579  -23.3183  C     
16   C         6.5749  -22.8671  -22.3312  C     
17   N         7.3758  -24.8504  -23.3693  N     
18   O         6.4572  -26.7815  -22.5626  O     
19   N         5.8519  -24.9578  -21.6088  N     
20   C         5.8631  -23.6343  -21.4804  C     
21   O         5.1751  -23.1291  -20.6028  O     
22   C         7.8321  -22.5891  -24.3723  C     
23   H         9.6905  -28.5576  -24.5404  H     
24   H         8.8007  -27.1465  -22.8483  H     
25   H        10.6576  -27.7611  -26.3832  H     
26   H        10.2868  -25.6611  -22.3489  H     
27   H         8.2769  -27.4175  -26.7191  H     
28   H         7.2782  -29.0165  -24.3283  H     
29   H         6.1060  -28.3848  -25.5202  H     
30   H         8.8466  -24.8913  -24.9092  H     
31   H         6.5016  -21.8786  -22.2631  H     
32   H         5.3047  -25.4924  -21.0132  H     
33   H         7.3984  -22.8780  -25.3358  H     
34   H         8.9177  -22.6841  -24.4339  H     
35   H         7.6132  -21.5261  -24.2298  H     
@<TRIPOS>BOND
     1    1    2 1
     2    1    4 1
     3    1    6 1
     4    2    5 1
     5    2   13 1
     6    3    6 1
     7    3   13 1
     8    6    7 1
     9    7    8 1
    10    8    9 1
    11    9   10 2
    12    9   11 1
    13    9   12 1
    14   13   17 1
    15   14   17 1
    16   14   18 2
    17   14   19 1
    18   15   16 2
    19   15   17 1
    20   15   22 1
    21   16   20 1
    22   19   20 1
    23   20   21 2
    24    1   23 1
    25    2   24 1
    26    4   25 1
    27    5   26 1
    28    6   27 1
    29    7   28 1
    30    7   29 1
    31   13   30 1
    32   16   31 1
    33   19   32 1
    34   22   33 1
    35   22   34 1
    36   22   35 1
@<TRIPOS>PROPERTY_DATA
  Total_Score	| 13.8350
  Crash		| -1.4839
  Polar		| 11.4576
  FragIndex	| 1
  FragRMSD	| 0.182

