@<TRIPOS>MOLECULE
BindingDB_50204722
 60 64 0 0 0
SMALL
NO_CHARGES


@<TRIPOS>ATOM
1    C         1.2224    8.5474  -19.6351  C     
2    C         1.1453    7.7709  -18.4398  C     
3    C        -0.1076    7.7170  -17.7723  C     
4    C         0.1047    9.2294  -20.1601  C     
5    C        -1.1157    9.1400  -19.4765  C     
6    C        -1.2267    8.3942  -18.2977  C     
7    C        -2.6004    8.4343  -17.7645  C     
8    C        -2.3615    9.6810  -19.7462  C     
9    C        -3.2473    9.2864  -18.7768  C     
10   C        -4.4762    9.8713  -19.0992  C     
11   N        -4.2525   10.5755  -20.2339  N     
12   N        -3.0122   10.4603  -20.6109  N     
13   C        -5.7195    9.7974  -18.4090  C     
14   C        -5.8999    8.9834  -17.2637  C     
15   C        -7.1305    8.9289  -16.5865  C     
16   C        -8.2250    9.7025  -17.0254  C     
17   C        -8.0581   10.5205  -18.1667  C     
18   C        -6.8307   10.5591  -18.8507  C     
19   C        -9.4737    9.6397  -16.3605  C     
20   C       -10.0847   10.8134  -15.8582  C     
21   C       -11.3603   10.7588  -15.2679  C     
22   C       -12.0449    9.5352  -15.1684  C     
23   C       -11.4426    8.3579  -15.6602  C     
24   C       -10.1629    8.4097  -16.2425  C     
25   O       -13.2729    9.5157  -14.5925  O     
26   C         2.2780    7.0949  -17.9509  C     
27   N         2.1925    6.1597  -17.0021  N     
28   O         3.3769    7.3477  -18.4242  O     
29   C         3.2574    5.3906  -16.4192  C     
30   C         3.1914    5.4502  -14.8694  C     
31   N         4.3885    4.9422  -14.1151  N     
32   C         4.1560    4.9860  -12.6404  C     
33   C         4.8875    3.6014  -14.5459  C     
34   H         2.0983    8.6228  -20.1540  H     
35   H        -0.2280    7.2050  -16.8940  H     
36   H         0.1782    9.7701  -21.0263  H     
37   H        -3.0386    7.4364  -17.7469  H     
38   H        -2.6304    8.8997  -16.7792  H     
39   H        -2.6215   10.8779  -21.3920  H     
40   H        -5.1337    8.4182  -16.8939  H     
41   H        -7.2182    8.3353  -15.7599  H     
42   H        -8.8376   11.0826  -18.5192  H     
43   H        -6.7630   11.1590  -19.6713  H     
44   H        -9.6005   11.7136  -15.9142  H     
45   H       -11.7876   11.6180  -14.9142  H     
46   H       -11.9333    7.4619  -15.6004  H     
47   H        -9.7505    7.5448  -16.6067  H     
48   H       -13.6052    8.5932  -14.6889  H     
49   H         1.2995    5.9576  -16.6764  H     
50   H         3.1241    4.3555  -16.7383  H     
51   H         4.2472    5.7185  -16.7560  H     
52   H         3.0637    6.5058  -14.5999  H     
53   H         2.2927    4.9127  -14.5514  H     
54   H         5.1374    5.6154  -14.2964  H     
55   H         3.8514    5.9895  -12.3262  H     
56   H         5.0761    4.7448  -12.1021  H     
57   H         3.3795    4.2770  -12.3392  H     
58   H         4.0876    2.8549  -14.5069  H     
59   H         5.7117    3.2643  -13.9106  H     
60   H         5.2752    3.6541  -15.5655  H     
@<TRIPOS>BOND
     1    1    2 2
     2    1    4 1
     3    2    3 1
     4    2   26 1
     5    3    6 2
     6    4    5 2
     7    5    6 1
     8    5    8 1
     9    6    7 1
    10    7    9 1
    11    8    9 2
    12    8   12 1
    13    9   10 1
    14   10   11 2
    15   10   13 1
    16   11   12 1
    17   13   14 2
    18   13   18 1
    19   14   15 1
    20   15   16 2
    21   16   17 1
    22   16   19 1
    23   17   18 2
    24   19   20 2
    25   19   24 1
    26   20   21 1
    27   21   22 2
    28   22   23 1
    29   22   25 1
    30   23   24 2
    31   26   27 am
    32   26   28 2
    33   27   29 1
    34   29   30 1
    35   30   31 1
    36   31   32 1
    37   31   33 1
    38    1   34 1
    39    3   35 1
    40    4   36 1
    41    7   37 1
    42    7   38 1
    43   12   39 1
    44   14   40 1
    45   15   41 1
    46   17   42 1
    47   18   43 1
    48   20   44 1
    49   21   45 1
    50   23   46 1
    51   24   47 1
    52   25   48 1
    53   27   49 1
    54   29   50 1
    55   29   51 1
    56   30   52 1
    57   30   53 1
    58   31   54 1
    59   32   55 1
    60   32   56 1
    61   32   57 1
    62   33   58 1
    63   33   59 1
    64   33   60 1
@<TRIPOS>PROPERTY_DATA
  Total_Score	| 10.0434
  Crash		| -1.0690
  Polar		| 4.7975
  FragIndex	| 1
  FragRMSD	| 0.406

