@<TRIPOS>MOLECULE
BindingDB_50212496
 66 71 0 0 0
SMALL
NO_CHARGES


@<TRIPOS>ATOM
1    C         1.2348    9.1058  -19.9315  C     
2    C         1.2930    8.4868  -18.6402  C     
3    C         0.0856    8.3776  -17.8884  C     
4    C        -0.0126    9.5128  -20.4788  C     
5    C        -1.1790    9.3824  -19.7024  C     
6    C        -1.1313    8.8437  -18.4139  C     
7    C        -2.4566    8.8113  -17.7735  C     
8    C        -2.5044    9.6895  -19.9474  C     
9    C        -3.2758    9.3735  -18.8548  C     
10   C        -4.5764    9.7507  -19.1754  C     
11   N        -4.5169   10.2582  -20.4345  N     
12   N        -3.3009   10.2152  -20.8830  N     
13   C        -5.7716    9.6997  -18.4151  C     
14   C        -6.8619   10.5301  -18.7638  C     
15   C        -8.0752   10.4961  -18.0516  C     
16   C        -8.2567    9.6189  -16.9504  C     
17   C        -7.1690    8.7803  -16.5976  C     
18   C        -5.9482    8.8326  -17.3068  C     
19   C        -9.5154    9.5763  -16.2736  C     
20   C       -10.2270    8.3591  -16.1298  C     
21   C       -11.5316    8.3481  -15.6000  C     
22   C       -12.1457    9.5437  -15.1969  C     
23   C       -11.4335   10.7514  -15.2915  C     
24   C       -10.1324   10.7666  -15.8202  C     
25   O       -13.4177    9.5636  -14.7191  O     
26   O         2.3724    9.1660  -20.7106  O     
27   C         2.7105   10.4844  -21.2301  C     
28   C         2.4791    7.9516  -18.1074  C     
29   N         3.6824    8.3850  -18.4698  N     
30   O         2.4123    7.0223  -17.3026  O     
31   C         4.9520    7.7748  -18.1926  C     
32   C         5.9458    8.8504  -17.6734  C     
33   C         7.3517    8.2483  -17.4289  C     
34   C         7.9124    7.5069  -18.6733  C     
35   C         6.8980    6.4693  -19.2519  C     
36   C         5.5023    7.1036  -19.4857  C     
37   O         9.1561    6.9003  -18.3159  O     
38   H         0.0996    7.9584  -16.9543  H     
39   H        -0.0553    9.9008  -21.4309  H     
40   H        -2.7594    7.7934  -17.5269  H     
41   H        -2.4775    9.4503  -16.8925  H     
42   H        -2.9923   10.5265  -21.7481  H     
43   H        -6.7917   11.1805  -19.5524  H     
44   H        -8.8396   11.1049  -18.3702  H     
45   H        -7.2604    8.1265  -15.8090  H     
46   H        -5.1933    8.2058  -17.0182  H     
47   H        -9.8197    7.4778  -16.4530  H     
48   H       -12.0349    7.4596  -15.5286  H     
49   H       -11.8702   11.6215  -14.9846  H     
50   H        -9.6419   11.6632  -15.8841  H     
51   H       -13.8148    8.6941  -14.9479  H     
52   H         2.0044   10.7639  -22.0343  H     
53   H         3.7093   10.4259  -21.6394  H     
54   H         2.6975   11.2708  -20.4583  H     
55   H         3.7017    9.1629  -19.0512  H     
56   H         4.8683    6.9965  -17.4215  H     
57   H         6.0307    9.6617  -18.4032  H     
58   H         5.5745    9.2729  -16.7353  H     
59   H         8.0494    9.0463  -17.1463  H     
60   H         7.2880    7.5419  -16.5964  H     
61   H         8.1359    8.2364  -19.4557  H     
62   H         7.2823    6.0718  -20.2002  H     
63   H         6.7941    5.6301  -18.5559  H     
64   H         4.8083    6.3239  -19.8186  H     
65   H         5.5761    7.8478  -20.2849  H     
66   H         8.9217    6.1568  -17.7033  H     
@<TRIPOS>BOND
     1    1    2 2
     2    1    4 1
     3    1   26 1
     4    2    3 1
     5    2   28 1
     6    3    6 2
     7    4    5 2
     8    5    6 1
     9    5    8 1
    10    6    7 1
    11    7    9 1
    12    8    9 2
    13    8   12 1
    14    9   10 1
    15   10   11 2
    16   10   13 1
    17   11   12 1
    18   13   14 2
    19   13   18 1
    20   14   15 1
    21   15   16 2
    22   16   17 1
    23   16   19 1
    24   17   18 2
    25   19   20 2
    26   19   24 1
    27   20   21 1
    28   21   22 2
    29   22   23 1
    30   22   25 1
    31   23   24 2
    32   26   27 1
    33   28   29 am
    34   28   30 2
    35   31   29 1
    36   31   32 1
    37   31   36 1
    38   32   33 1
    39   33   34 1
    40   34   35 1
    41   34   37 1
    42   35   36 1
    43    3   38 1
    44    4   39 1
    45    7   40 1
    46    7   41 1
    47   12   42 1
    48   14   43 1
    49   15   44 1
    50   17   45 1
    51   18   46 1
    52   20   47 1
    53   21   48 1
    54   23   49 1
    55   24   50 1
    56   25   51 1
    57   27   52 1
    58   27   53 1
    59   27   54 1
    60   29   55 1
    61   31   56 1
    62   32   57 1
    63   32   58 1
    64   33   59 1
    65   33   60 1
    66   34   61 1
    67   35   62 1
    68   35   63 1
    69   36   64 1
    70   36   65 1
    71   37   66 1
@<TRIPOS>PROPERTY_DATA
  Total_Score	| 8.2570
  Crash		| -1.2311
  Polar		| 2.4989
  FragIndex	| 1
  FragRMSD	| 0.386

