@<TRIPOS>MOLECULE
BindingDB_12020
 34 35 0 0 0
SMALL
NO_CHARGES


@<TRIPOS>ATOM
1    C        -1.8145    7.7372   15.1125  C     
2    C        -1.0705    8.5570   15.9776  C     
3    C        -1.1513    9.9557   15.8715  C     
4    C        -1.9968   10.5334   14.9032  C     
5    C        -2.7717    9.7129   14.0570  C     
6    C        -2.7113    8.2976   14.1694  C     
7    C        -3.5502    7.4199   13.2996  C     
8    N        -3.9558    6.2059   13.9423  N     
9    C        -4.9285    5.3945   13.5435  C     
10   O        -5.6570    5.6769   12.5967  O     
11   C        -5.2004    4.2733   14.3148  C     
12   C        -4.1859    3.3478   14.6609  C     
13   C        -6.4976    4.0656   14.8298  C     
14   C        -6.7808    2.9590   15.6484  C     
15   C        -5.7837    2.0088   15.9391  C     
16   C        -4.4783    2.2208   15.4551  C     
17   S        -6.1777    0.5885   16.8702  S     
18   O        -5.3975    0.7179   18.2494  O     
19   O        -7.7372    0.4453   17.1619  O     
20   N        -5.5843   -0.8117   16.1565  N     
21   F        -3.5355   10.2888   13.1622  F     
22   F        -0.4129   10.7005   16.6502  F     
23   F        -2.0558   11.8386   14.7937  F     
24   H        -1.7014    6.7229   15.1942  H     
25   H        -0.4704    8.1303   16.6864  H     
26   H        -4.4475    7.9580   12.9950  H     
27   H        -2.9891    7.1696   12.4034  H     
28   H        -3.5159    5.9682   14.7780  H     
29   H        -3.2307    3.4721   14.3151  H     
30   H        -7.2442    4.7339   14.6250  H     
31   H        -7.7218    2.8569   16.0313  H     
32   H        -3.7326    1.5507   15.6655  H     
33   H        -5.2745   -1.5315   16.7276  H     
34   H        -5.2868   -0.7850   15.2320  H     
@<TRIPOS>BOND
     1    1    2 2
     2    1    6 1
     3    2    3 1
     4    3    4 2
     5    3   22 1
     6    4    5 1
     7    4   23 1
     8    5    6 2
     9    5   21 1
    10    6    7 1
    11    7    8 1
    12    8    9 am
    13    9   10 2
    14    9   11 1
    15   11   12 1
    16   11   13 2
    17   12   16 2
    18   13   14 1
    19   14   15 2
    20   15   16 1
    21   15   17 1
    22   17   18 2
    23   17   19 2
    24   17   20 am
    25    1   24 1
    26    2   25 1
    27    7   26 1
    28    7   27 1
    29    8   28 1
    30   12   29 1
    31   13   30 1
    32   14   31 1
    33   16   32 1
    34   20   33 1
    35   20   34 1
@<TRIPOS>PROPERTY_DATA
  Total_Score	| 5.5831
  Crash		| -1.5532
  Polar		| 3.0335
  FragIndex	| 1
  FragRMSD	| 0.247

