@<TRIPOS>MOLECULE
BindingDB_12014
 34 35 0 0 0
SMALL
NO_CHARGES


@<TRIPOS>ATOM
1    C        -1.7057    7.5541   15.0542  C     
2    C        -1.1497    8.4011   16.0278  C     
3    C        -1.3523    9.7862   15.9509  C     
4    C        -2.1248   10.3258   14.9067  C     
5    C        -2.7033    9.4765   13.9399  C     
6    C        -2.4977    8.0732   14.0007  C     
7    C        -3.0956    7.1298   13.0140  C     
8    N        -3.5707    5.9593   13.6907  N     
9    C        -4.7815    5.4091   13.6524  C     
10   O        -5.6606    5.9479   12.9790  O     
11   C        -5.0924    4.2881   14.4307  C     
12   C        -6.4418    3.9533   14.7262  C     
13   C        -4.0852    3.4362   14.9633  C     
14   C        -4.4044    2.3060   15.7344  C     
15   C        -5.7530    1.9879   15.9998  C     
16   C        -6.7662    2.8332   15.5100  C     
17   S        -6.1462    0.5514   16.9032  S     
18   O        -5.3785    0.6509   18.2919  O     
19   O        -7.7016    0.3699   17.1799  O     
20   N        -5.5248   -0.8052   16.1322  N     
21   F        -3.4230   10.0223   12.9959  F     
22   H        -1.5401    6.5500   15.1279  H     
23   H        -0.6021    8.0123   16.7955  H     
24   H        -0.9413   10.3990   16.6562  H     
25   H        -2.2736   11.3360   14.8622  H     
26   H        -3.8862    7.6013   12.4230  H     
27   H        -2.3214    6.8174   12.3075  H     
28   H        -2.9226    5.5353   14.2768  H     
29   H        -7.2085    4.5376   14.3811  H     
30   H        -3.0947    3.6211   14.7859  H     
31   H        -3.6535    1.7081   16.0886  H     
32   H        -7.7479    2.6335   15.7182  H     
33   H        -5.1176   -1.5090   16.6581  H     
34   H        -5.3629   -0.7771   15.1791  H     
@<TRIPOS>BOND
     1    1    2 2
     2    1    6 1
     3    2    3 1
     4    3    4 2
     5    4    5 1
     6    5    6 2
     7    5   21 1
     8    6    7 1
     9    7    8 1
    10    8    9 am
    11    9   10 2
    12    9   11 1
    13   11   12 1
    14   11   13 2
    15   12   16 2
    16   13   14 1
    17   14   15 2
    18   15   16 1
    19   15   17 1
    20   17   18 2
    21   17   19 2
    22   17   20 am
    23    1   22 1
    24    2   23 1
    25    3   24 1
    26    4   25 1
    27    7   26 1
    28    7   27 1
    29    8   28 1
    30   12   29 1
    31   13   30 1
    32   14   31 1
    33   16   32 1
    34   20   33 1
    35   20   34 1
@<TRIPOS>PROPERTY_DATA
  Total_Score	| 5.5227
  Crash		| -1.5931
  Polar		| 2.7435
  FragIndex	| 1
  FragRMSD	| 0.204

