@<TRIPOS>MOLECULE
BindingDB_50224908
 47 49 0 0 0
SMALL
NO_CHARGES


@<TRIPOS>ATOM
1    C         4.1512   15.3485   -2.0138  C     
2    C         4.1962   14.7128   -3.2763  C     
3    C         3.2010   13.7774   -3.6249  C     
4    C         2.1088   13.5191   -2.7697  C     
5    C         2.0657   14.1269   -1.4774  C     
6    C         3.1063   15.0412   -1.1268  C     
7    N         1.0084   13.8122   -0.6722  N     
8    C         0.7475   14.0271    0.6180  C     
9    N        -0.3596   13.6460    1.2472  N     
10   O         1.5455   14.6133    1.3412  O     
11   C        -1.4125   12.9290    0.7803  C     
12   N        -1.4874   12.4565   -0.4863  N     
13   C        -2.5108   11.7253   -0.9893  C     
14   C        -3.6183   11.4851   -0.1457  C     
15   N        -3.5571   11.9341    1.1330  N     
16   C        -2.4964   12.6359    1.6311  C     
17   C        -4.6868   10.8795   -0.5561  C     
18   N        -5.6325   10.3294   -0.9294  N     
19   O        -2.4598   11.3401   -2.3054  O     
20   O         1.0664   12.6676   -3.1007  O     
21   C         0.6917   12.5395   -4.5013  C     
22   C        -1.3353   10.5039   -2.6529  C     
23   C        -0.7555   12.0264   -4.6975  C     
24   C        -1.0604   10.5894   -4.1758  C     
25   Cl        5.3729   16.4429   -1.5424  Cl    
26   N         5.0681   15.0797   -4.2455  N     
27   C         6.3518   14.5140   -4.3813  C     
28   C         6.4492   12.9708   -4.5991  C     
29   H         3.2298   13.3390   -4.5509  H     
30   H         3.1229   15.5150   -0.2274  H     
31   H         0.3147   13.3330   -1.1415  H     
32   H        -0.4170   13.9039    2.1748  H     
33   H        -2.5048   12.9400    2.6087  H     
34   H         0.7446   13.5196   -4.9931  H     
35   H         1.3856   11.8605   -5.0078  H     
36   H        -0.4153   10.7794   -2.1328  H     
37   H        -1.5667    9.4680   -2.3864  H     
38   H        -1.4524   12.7409   -4.2436  H     
39   H        -0.9528   12.0248   -5.7751  H     
40   H        -0.2241    9.9258   -4.4280  H     
41   H        -1.9462   10.2073   -4.6918  H     
42   H         5.0617   16.0512   -4.4622  H     
43   H         6.8524   15.0185   -5.2120  H     
44   H         6.8912   14.7555   -3.4629  H     
45   H         6.1055   12.4332   -3.7072  H     
46   H         7.4995   12.6976   -4.7711  H     
47   H         5.8614   12.6601   -5.4568  H     
@<TRIPOS>BOND
     1    1    2 2
     2    1    6 1
     3    1   25 1
     4    2    3 1
     5    2   26 1
     6    3    4 2
     7    4    5 1
     8    4   20 1
     9    5    6 2
    10    5    7 1
    11    7    8 1
    12    8    9 1
    13    8   10 2
    14    9   11 1
    15   11   12 2
    16   11   16 1
    17   12   13 1
    18   13   14 2
    19   13   19 1
    20   14   15 1
    21   14   17 1
    22   15   16 2
    23   17   18 3
    24   19   22 1
    25   20   21 1
    26   21   23 1
    27   22   24 1
    28   23   24 1
    29   26   27 1
    30   27   28 1
    31    3   29 1
    32    6   30 1
    33    7   31 1
    34    9   32 1
    35   16   33 1
    36   21   34 1
    37   21   35 1
    38   22   36 1
    39   22   37 1
    40   23   38 1
    41   23   39 1
    42   24   40 1
    43   24   41 1
    44   26   42 1
    45   27   43 1
    46   27   44 1
    47   28   45 1
    48   28   46 1
    49   28   47 1
@<TRIPOS>PROPERTY_DATA
  Total_Score	| 8.4651
  Crash		| -0.5249
  Polar		| 2.9046
  FragIndex	| 1
  FragRMSD	| 0.875

