@<TRIPOS>MOLECULE
BindingDB_50157950
 41 42 0 0 0
SMALL
NO_CHARGES


@<TRIPOS>ATOM
1    C        -5.3314    2.2749   16.3789  C     
2    S        -6.3143    1.1937   17.2444  S     
3    S        -5.9940    3.3900   15.2788  S     
4    C        -4.3785    3.9986   15.1828  C     
5    N        -4.0736    2.3673   16.5820  N     
6    N        -3.5252    3.3003   15.9441  N     
7    N        -3.9322    5.0688   14.4860  N     
8    C        -4.5898    5.8519   13.6387  C     
9    N        -3.1852    5.1673   11.1795  N     
10   N        -0.8975    4.3787    9.4660  N     
11   O        -6.1365   -0.2261   16.5553  O     
12   O        -5.8673    1.0177   18.7611  O     
13   C        -3.8688    6.9354   12.9946  C     
14   N        -7.9664    1.4397   17.1271  N     
15   O        -5.7631    5.6780   13.3315  O     
16   C        -3.1244    6.5986   11.6600  C     
17   C        -2.0921    4.2805   11.7031  C     
18   C        -3.3211    4.9893    9.6978  C     
19   C        -0.7375    4.4648   10.9531  C     
20   C        -1.9920    5.2551    8.9439  C     
21   C         0.3891    4.6098    8.7552  C     
22   H        -2.9986    5.2890   14.6214  H     
23   H        -4.0509    4.7793   11.5544  H     
24   H        -1.1682    3.4134    9.2648  H     
25   H        -4.5678    7.7520   12.8070  H     
26   H        -3.1462    7.3385   13.7064  H     
27   H        -8.5033    0.8460   16.5801  H     
28   H        -8.3725    2.2140   17.5433  H     
29   H        -2.0839    6.9073   11.7522  H     
30   H        -3.5448    7.2522   10.8920  H     
31   H        -1.9263    4.4566   12.7662  H     
32   H        -2.4063    3.2371   11.5970  H     
33   H        -3.6391    3.9608    9.4809  H     
34   H        -4.1034    5.6449    9.2965  H     
35   H        -0.0604    3.6749   11.2850  H     
36   H        -0.2975    5.4223   11.2343  H     
37   H        -1.7232    6.3124    9.0427  H     
38   H        -2.1521    5.0442    7.8785  H     
39   H         0.2608    4.4533    7.6830  H     
40   H         1.1451    3.9077    9.1045  H     
41   H         0.7492    5.6276    8.9190  H     
@<TRIPOS>BOND
     1    1    2 1
     2    1    3 1
     3    1    5 2
     4    2   11 2
     5    2   12 2
     6    2   14 am
     7    3    4 1
     8    4    6 2
     9    4    7 1
    10    5    6 1
    11    7    8 am
    12    8   13 1
    13    8   15 2
    14    9   16 1
    15    9   17 1
    16    9   18 1
    17   10   19 1
    18   10   20 1
    19   10   21 1
    20   13   16 1
    21   17   19 1
    22   18   20 1
    23    7   22 1
    24    9   23 1
    25   10   24 1
    26   13   25 1
    27   13   26 1
    28   14   27 1
    29   14   28 1
    30   16   29 1
    31   16   30 1
    32   17   31 1
    33   17   32 1
    34   18   33 1
    35   18   34 1
    36   19   35 1
    37   19   36 1
    38   20   37 1
    39   20   38 1
    40   21   39 1
    41   21   40 1
    42   21   41 1
@<TRIPOS>PROPERTY_DATA
  Total_Score	| 5.9832
  Crash		| -1.2976
  Polar		| 5.3328
  FragIndex	| 1
  FragRMSD	| 1.037

