@<TRIPOS>MOLECULE
BindingDB_10880
 19 19 0 0 0
SMALL
NO_CHARGES


@<TRIPOS>ATOM
1    C        -5.2284    2.2864   16.4543  C     
2    C        -4.3768    4.0416   15.2185  C     
3    S        -5.9748    3.3992   15.4064  S     
4    N        -3.4718    3.3589   15.9319  N     
5    N        -3.9652    2.4045   16.5863  N     
6    N        -7.7401    1.4629   17.4312  N     
7    S        -6.1141    1.1030   17.2818  S     
8    O        -6.0513   -0.1924   16.3742  O     
9    O        -5.4692    0.8409   18.7107  O     
10   N        -3.9853    5.0935   14.4648  N     
11   C        -4.7126    5.8678   13.6675  C     
12   C        -4.0331    6.9208   12.9490  C     
13   O        -5.9065    5.6921   13.4601  O     
14   H        -8.3227    0.8395   17.8823  H     
15   H        -8.0781    2.3280   17.1576  H     
16   H        -3.0405    5.3044   14.5120  H     
17   H        -3.5400    7.5931   13.6524  H     
18   H        -4.7240    7.5082   12.3402  H     
19   H        -3.2823    6.4809   12.2907  H     
@<TRIPOS>BOND
     1    1    3 1
     2    1    5 2
     3    1    7 1
     4    2    3 1
     5    2    4 2
     6    2   10 1
     7    4    5 1
     8    6    7 am
     9    7    8 2
    10    7    9 2
    11   10   11 am
    12   11   12 1
    13   11   13 2
    14    6   14 1
    15    6   15 1
    16   10   16 1
    17   12   17 1
    18   12   18 1
    19   12   19 1
@<TRIPOS>PROPERTY_DATA
  Total_Score	| 3.9102
  Crash		| -1.1379
  Polar		| 3.6506
  FragIndex	| 1
  FragRMSD	| 1.064

