@<TRIPOS>MOLECULE
BindingDB_11048
 44 45 0 0 0
SMALL
NO_CHARGES


@<TRIPOS>ATOM
1    C        -5.3149    2.2080   16.4033  C     
2    C        -4.3426    3.9085   15.1633  C     
3    N        -4.0540    2.2842   16.5850  N     
4    N        -3.4963    3.2001   15.9231  N     
5    S        -5.9762    3.3349   15.3112  S     
6    N        -7.9398    1.4319   17.1801  N     
7    S        -6.2942    1.1353   17.2957  S     
8    O        -6.0928   -0.3040   16.6570  O     
9    O        -5.8566    1.0709   18.8221  O     
10   N        -3.8822    4.9582   14.4364  N     
11   C        -4.5375    5.7416   13.5835  C     
12   C        -3.9195    6.8870   12.9269  C     
13   O        -5.6987    5.5030   13.2623  O     
14   C        -2.5150    7.3513   13.3967  C     
15   S        -1.1346    6.3746   12.7655  S     
16   S        -1.2093    6.6938   10.7242  S     
17   C        -1.9703    5.1788   10.0934  C     
18   C        -2.2548    5.2187    8.5706  C     
19   C        -3.6329    5.5354    8.2334  C     
20   O        -4.3787    4.6264    7.8796  O     
21   N        -4.0398    6.7972    8.2776  N     
22   C        -5.2666    7.3016    8.0009  C     
23   S        -5.5640    9.0048    8.0469  S     
24   N        -6.3562    6.5970    7.6634  N     
25   N        -7.3583    7.3238    7.4464  N     
26   C        -7.1458    8.5731    7.5896  C     
27   N        -9.1397    9.5891    5.8477  N     
28   S        -8.3606    9.7380    7.3275  S     
29   O        -9.4809    9.4918    8.4307  O     
30   O        -7.8487   11.2280    7.5426  O     
31   H        -8.5716    0.7004   17.2744  H     
32   H        -8.2639    2.3461   17.1818  H     
33   H        -2.9388    5.1491   14.5518  H     
34   H        -3.8953    6.6984   11.8515  H     
35   H        -4.5776    7.7442   13.0795  H     
36   H        -2.3570    8.3816   13.0609  H     
37   H        -2.4746    7.3565   14.4880  H     
38   H        -1.2793    4.3617   10.3035  H     
39   H        -2.8959    4.9826   10.6392  H     
40   H        -1.5904    5.9409    8.0888  H     
41   H        -1.9973    4.2357    8.1689  H     
42   H        -3.3705    7.4540    8.5204  H     
43   H       -10.0927    9.4161    5.8204  H     
44   H        -8.6221    9.5763    5.0260  H     
@<TRIPOS>BOND
     1    1    3 2
     2    1    5 1
     3    1    7 1
     4    2    4 2
     5    2    5 1
     6    2   10 1
     7    3    4 1
     8    6    7 am
     9    7    8 2
    10    7    9 2
    11   10   11 am
    12   11   12 1
    13   11   13 2
    14   12   14 1
    15   14   15 1
    16   15   16 1
    17   16   17 1
    18   17   18 1
    19   18   19 1
    20   19   20 2
    21   19   21 am
    22   21   22 1
    23   22   23 1
    24   22   24 2
    25   23   26 1
    26   24   25 1
    27   25   26 2
    28   26   28 1
    29   27   28 am
    30   28   29 2
    31   28   30 2
    32    6   31 1
    33    6   32 1
    34   10   33 1
    35   12   34 1
    36   12   35 1
    37   14   36 1
    38   14   37 1
    39   17   38 1
    40   17   39 1
    41   18   40 1
    42   18   41 1
    43   21   42 1
    44   27   43 1
    45   27   44 1
@<TRIPOS>PROPERTY_DATA
  Total_Score	| 4.5830
  Crash		| -1.6844
  Polar		| 5.8460
  FragIndex	| 1
  FragRMSD	| 1.049

