@<TRIPOS>MOLECULE
BindingDB_24650
 43 45 0 0 0
SMALL
NO_CHARGES


@<TRIPOS>ATOM
1    C        28.0416    5.3665   64.3883  C     
2    C        26.8432    4.9855   63.7578  C     
3    C        26.6996    3.6356   64.0495  C     
4    N        28.5493    4.2618   64.9748  N     
5    N        27.7614    3.2568   64.7649  N     
6    C        28.6063    6.6244   64.5339  C     
7    O        27.9601    7.5984   64.1749  O     
8    N        25.8846    5.6460   63.0415  N     
9    C        26.0385    6.4922   62.0260  C     
10   O        27.1657    6.7840   61.6436  O     
11   C        24.9503    7.0327   61.3232  C     
12   C        22.6922    6.8402   60.3539  C     
13   C        22.7898    8.1394   59.8241  C     
14   C        23.9585    8.8864   60.0252  C     
15   C        23.7590    6.2890   61.0935  C     
16   C        25.0239    8.3501   60.7717  C     
17   F        23.6221    5.0414   61.4780  F     
18   F        26.0563    9.1368   60.9652  F     
19   C        32.3831    9.3530   66.3457  C     
20   C        30.9701    8.5932   63.8665  C     
21   C        31.6467    7.9907   66.2385  C     
22   C        30.4556    8.0786   65.2441  C     
23   N        29.7954    6.8057   65.1054  N     
24   C        32.8225    9.8592   64.9482  C     
25   N        31.6815    9.8835   63.9994  N     
26   H        25.9278    3.0283   63.7674  H     
27   H        27.8990    2.3605   65.1071  H     
28   H        24.9720    5.3815   63.2393  H     
29   H        21.8447    6.2887   60.1845  H     
30   H        22.0141    8.5308   59.2841  H     
31   H        24.0225    9.8328   59.6392  H     
32   H        31.7144   10.0904   66.8004  H     
33   H        33.2591    9.2516   66.9931  H     
34   H        31.6384    7.8537   63.4078  H     
35   H        30.1313    8.7493   63.1823  H     
36   H        32.3512    7.2230   65.9030  H     
37   H        31.2780    7.7027   67.2293  H     
38   H        29.7397    8.8044   65.6532  H     
39   H        30.2587    6.0194   65.4502  H     
40   H        33.2198   10.8723   65.0460  H     
41   H        33.6147    9.2213   64.5479  H     
42   H        32.0211   10.1509   63.0710  H     
43   H        31.0145   10.5891   64.3182  H     
@<TRIPOS>BOND
     1    1    2 1
     2    1    4 2
     3    1    6 1
     4    2    3 2
     5    2    8 1
     6    3    5 1
     7    4    5 1
     8    6    7 2
     9    6   23 am
    10    8    9 am
    11    9   10 2
    12    9   11 1
    13   11   15 2
    14   11   16 1
    15   12   13 2
    16   12   15 1
    17   13   14 1
    18   14   16 2
    19   15   17 1
    20   16   18 1
    21   19   21 1
    22   19   24 1
    23   20   22 1
    24   20   25 1
    25   21   22 1
    26   22   23 1
    27   24   25 1
    28    3   26 1
    29    5   27 1
    30    8   28 1
    31   12   29 1
    32   13   30 1
    33   14   31 1
    34   19   32 1
    35   19   33 1
    36   20   34 1
    37   20   35 1
    38   21   36 1
    39   21   37 1
    40   22   38 1
    41   23   39 1
    42   24   40 1
    43   24   41 1
    44   25   42 1
    45   25   43 1
@<TRIPOS>PROPERTY_DATA
  Total_Score	| 8.3525
  Crash		| -0.9756
  Polar		| 4.8628
  FragIndex	| 1
  FragRMSD	| 1.437

