@<TRIPOS>MOLECULE
BindingDB_24639
 30 31 0 0 0
SMALL
NO_CHARGES


@<TRIPOS>ATOM
1    C        28.3020    5.3846   64.4907  C     
2    C        27.1318    5.0841   63.7370  C     
3    C        26.8799    3.7636   64.0103  C     
4    N        28.6418    4.2276   65.1615  N     
5    N        27.8183    3.3259   64.8635  N     
6    C        29.0349    6.6510   64.5938  C     
7    O        28.5023    7.7026   63.6488  O     
8    N        29.9805    6.8086   65.4730  N     
9    C        30.6487    8.0035   65.2200  C     
10   C        32.6657    9.1857   64.6408  C     
11   C        31.8785    8.0193   64.5862  C     
12   C        30.2332    9.0772   66.0292  C     
13   C        31.0615   10.2196   66.1400  C     
14   C        32.2704   10.2814   65.4283  C     
15   F        33.0458   11.3293   65.5065  F     
16   N        26.1689    5.6956   62.7811  N     
17   C        26.1476    6.9530   62.4271  C     
18   C        25.1442    7.4709   61.4004  C     
19   O        27.0982    7.7133   63.0178  O     
20   H        26.1105    3.1083   63.6854  H     
21   H        27.9067    2.4472   65.2666  H     
22   H        30.3749    6.0457   65.8181  H     
23   H        33.5029    9.2274   64.0770  H     
24   H        32.1482    7.2381   63.9887  H     
25   H        29.3594    9.0287   66.5823  H     
26   H        30.7738   11.0242   66.7139  H     
27   H        25.5109    5.0360   62.4730  H     
28   H        25.3474    6.8901   60.5419  H     
29   H        25.4085    8.5083   61.2799  H     
30   H        24.2296    7.3237   61.8967  H     
@<TRIPOS>BOND
     1    1    2 1
     2    1    4 2
     3    1    6 1
     4    2    3 2
     5    2   16 1
     6    3    5 1
     7    4    5 1
     8    6    7 2
     9    6    8 am
    10    8    9 1
    11    9   11 2
    12    9   12 1
    13   10   11 1
    14   10   14 2
    15   12   13 2
    16   13   14 1
    17   14   15 1
    18   16   17 am
    19   17   18 1
    20   17   19 2
    21    3   20 1
    22    5   21 1
    23    8   22 1
    24   10   23 1
    25   11   24 1
    26   12   25 1
    27   13   26 1
    28   16   27 1
    29   18   28 1
    30   18   29 1
    31   18   30 1
@<TRIPOS>PROPERTY_DATA
  Total_Score	| 5.4305
  Crash		| -0.5345
  Polar		| 3.2150
  FragIndex	| 1
  FragRMSD	| 1.307

