@<TRIPOS>MOLECULE
BindingDB_24646
 43 45 0 0 0
SMALL
NO_CHARGES


@<TRIPOS>ATOM
1    C        28.2304    5.4858   64.5108  C     
2    C        27.1148    5.2178   63.7089  C     
3    C        26.8092    3.8847   63.9639  C     
4    N        28.5404    4.3453   65.1810  N     
5    N        27.7030    3.4255   64.8497  N     
6    C        28.9570    6.6628   64.6401  C     
7    O        28.5807    7.7210   64.1268  O     
8    N        30.1190    6.6318   65.2731  N     
9    N        26.5531    6.0708   62.7992  N     
10   C        25.4378    5.9403   62.0876  C     
11   O        24.6690    5.0053   62.2985  O     
12   C        25.1161    6.8620   61.0860  C     
13   C        25.7658    8.1942   59.1195  C     
14   C        24.4647    8.7264   59.0297  C     
15   C        23.4809    8.3115   59.9378  C     
16   C        26.0855    7.2748   60.1376  C     
17   C        23.7936    7.4040   60.9670  C     
18   F        27.3043    6.7953   60.1305  F     
19   F        22.8456    7.1013   61.8083  F     
20   C        31.0548    7.6936   65.5100  C     
21   C        31.4299   10.0233   66.5970  C     
22   C        32.0799   10.5407   65.2796  C     
23   C        32.7478    9.3757   64.4914  C     
24   C        31.7810    8.1915   64.2166  C     
25   C        30.4185    8.8800   66.3099  C     
26   H        26.0759    3.3178   63.5371  H     
27   H        27.7098    2.5084   65.1733  H     
28   H        30.3914    5.7729   65.6260  H     
29   H        27.0597    6.8816   62.6467  H     
30   H        26.4660    8.4755   58.4383  H     
31   H        24.2368    9.3861   58.2893  H     
32   H        22.5301    8.6822   59.8475  H     
33   H        31.8363    7.2632   66.1552  H     
34   H        32.2213    9.6759   67.2793  H     
35   H        30.9065   10.8629   67.0842  H     
36   H        31.3025   10.9992   64.6530  H     
37   H        32.8268   11.3079   65.5125  H     
38   H        33.1088    9.7700   63.5351  H     
39   H        33.6249    9.0206   65.0538  H     
40   H        32.3640    7.3714   63.7860  H     
41   H        31.0270    8.4735   63.4690  H     
42   H        29.5711    9.3050   65.7567  H     
43   H        30.0371    8.5076   67.2714  H     
@<TRIPOS>BOND
     1    1    2 1
     2    1    4 2
     3    1    6 1
     4    2    3 2
     5    2    9 1
     6    3    5 1
     7    4    5 1
     8    6    7 2
     9    6    8 am
    10    8   20 1
    11    9   10 am
    12   10   11 2
    13   10   12 1
    14   12   16 2
    15   12   17 1
    16   13   14 2
    17   13   16 1
    18   14   15 1
    19   15   17 2
    20   16   18 1
    21   17   19 1
    22   20   24 1
    23   20   25 1
    24   21   22 1
    25   21   25 1
    26   22   23 1
    27   23   24 1
    28    3   26 1
    29    5   27 1
    30    8   28 1
    31    9   29 1
    32   13   30 1
    33   14   31 1
    34   15   32 1
    35   20   33 1
    36   21   34 1
    37   21   35 1
    38   22   36 1
    39   22   37 1
    40   23   38 1
    41   23   39 1
    42   24   40 1
    43   24   41 1
    44   25   42 1
    45   25   43 1
@<TRIPOS>PROPERTY_DATA
  Total_Score	| 7.5010
  Crash		| -0.8595
  Polar		| 2.9083
  FragIndex	| 1
  FragRMSD	| 0.707

