@<TRIPOS>MOLECULE
BindingDB_24642
 43 45 0 0 0
SMALL
NO_CHARGES


@<TRIPOS>ATOM
1    C        28.2747    5.3996   64.4969  C     
2    C        27.0411    5.1627   63.7831  C     
3    C        26.7696    3.8326   64.0975  C     
4    N        28.6069    4.2576   65.1367  N     
5    N        27.7413    3.3734   64.8923  N     
6    C        29.0338    6.6048   64.6547  C     
7    O        28.3173    7.7998   64.0926  O     
8    N        30.2201    6.6783   65.2213  N     
9    C        30.7860    7.9151   65.2198  C     
10   C        30.9914   10.1253   66.2100  C     
11   C        30.3113    8.9016   66.1157  C     
12   C        31.8545    8.1703   64.3592  C     
13   C        32.5226    9.4014   64.4469  C     
14   C        32.1074   10.3663   65.3873  C     
15   F        32.7495   11.4908   65.4948  F     
16   N        26.0668    5.7588   62.8753  N     
17   C        26.1521    7.0158   62.3933  C     
18   O        27.3043    7.5817   62.8399  O     
19   C        25.1444    7.7700   61.5612  C     
20   C        26.3592    7.4124   59.2871  C     
21   C        26.5322    8.9497   59.1409  C     
22   C        26.7071    9.6451   60.5020  C     
23   C        25.4762    9.3131   61.4329  C     
24   C        25.1935    7.0180   60.2308  C     
25   H        25.9762    3.2138   63.8158  H     
26   H        27.8513    2.4964   65.2857  H     
27   H        30.5992    5.8856   65.4618  H     
28   H        30.6630   10.8245   66.8791  H     
29   H        29.4699    8.7402   66.6761  H     
30   H        32.1238    7.4827   63.6448  H     
31   H        33.3210    9.5768   63.8353  H     
32   H        25.3094    5.1979   62.6450  H     
33   H        24.2853    7.6444   62.1827  H     
34   H        26.1146    7.0065   58.2998  H     
35   H        27.2978    6.9571   59.6265  H     
36   H        27.3967    9.1701   58.5098  H     
37   H        25.6529    9.3772   58.6598  H     
38   H        27.6989    9.3553   60.8733  H     
39   H        26.7829   10.7203   60.3922  H     
40   H        24.5834    9.7794   61.0714  H     
41   H        25.6971    9.7571   62.4323  H     
42   H        25.1828    5.9359   60.3451  H     
43   H        24.2737    7.3253   59.7940  H     
@<TRIPOS>BOND
     1    1    2 1
     2    1    4 2
     3    1    6 1
     4    2    3 2
     5    2   16 1
     6    3    5 1
     7    4    5 1
     8    6    7 2
     9    6    8 am
    10    8    9 1
    11    9   11 2
    12    9   12 1
    13   10   11 1
    14   10   14 2
    15   12   13 2
    16   13   14 1
    17   14   15 1
    18   16   17 am
    19   17   18 2
    20   17   19 1
    21   19   23 1
    22   19   24 1
    23   20   21 1
    24   20   24 1
    25   21   22 1
    26   22   23 1
    27    3   25 1
    28    5   26 1
    29    8   27 1
    30   10   28 1
    31   11   29 1
    32   12   30 1
    33   13   31 1
    34   16   32 1
    35   19   33 1
    36   20   34 1
    37   20   35 1
    38   21   36 1
    39   21   37 1
    40   22   38 1
    41   22   39 1
    42   23   40 1
    43   23   41 1
    44   24   42 1
    45   24   43 1
@<TRIPOS>PROPERTY_DATA
  Total_Score	| 6.3295
  Crash		| -1.0142
  Polar		| 3.0350
  FragIndex	| 1
  FragRMSD	| 1.321

