@<TRIPOS>MOLECULE
BindingDB_24649
 43 45 0 0 0
SMALL
NO_CHARGES


@<TRIPOS>ATOM
1    C        28.1069    5.4569   64.5977  C     
2    C        27.0629    5.1317   63.7131  C     
3    C        26.8563    3.7773   63.9347  C     
4    N        28.4769    4.3332   65.2393  N     
5    N        27.7374    3.3518   64.8439  N     
6    C        28.6117    6.6886   64.9305  C     
7    O        27.8577    7.6425   64.8044  O     
8    N        26.2443    5.7712   62.8146  N     
9    C        26.3342    6.9128   62.1312  C     
10   O        27.3589    7.5914   62.1349  O     
11   C        25.2635    7.3353   61.3238  C     
12   C        22.8518    7.7315   60.9856  C     
13   C        23.1009    8.2807   59.7193  C     
14   C        24.4171    8.3465   59.2370  C     
15   C        23.9169    7.2761   61.7870  C     
16   C        25.4877    7.8824   60.0256  C     
17   F        23.6004    6.8126   62.9703  F     
18   F        26.6839    7.9747   59.5012  F     
19   C        32.5592    9.4973   64.8037  C     
20   C        31.8079    9.6144   67.1813  C     
21   C        30.9956    8.3031   67.0183  C     
22   C        31.7659    8.1817   64.5916  C     
23   C        30.5399    8.1128   65.5458  C     
24   N        29.8593    6.8507   65.3752  N     
25   N        32.9369    9.6859   66.2232  N     
26   H        26.1421    3.1924   63.4924  H     
27   H        27.7867    2.4450   65.1919  H     
28   H        25.4464    5.2591   62.6114  H     
29   H        21.8860    7.6760   61.3254  H     
30   H        22.3256    8.6250   59.1500  H     
31   H        24.5911    8.7704   58.3196  H     
32   H        33.4707    9.4680   64.2031  H     
33   H        31.9617   10.3510   64.4695  H     
34   H        31.1532   10.4775   67.0345  H     
35   H        32.2115    9.6652   68.1945  H     
36   H        31.6143    7.4555   67.3275  H     
37   H        30.1198    8.3434   67.6689  H     
38   H        31.4239    8.1296   63.5539  H     
39   H        32.4294    7.3302   64.7744  H     
40   H        29.8798    8.9507   65.3017  H     
41   H        30.4010    6.0515   65.4744  H     
42   H        33.6138    8.9644   66.4694  H     
43   H        33.3900   10.5960   66.3219  H     
@<TRIPOS>BOND
     1    1    2 1
     2    1    4 2
     3    1    6 1
     4    2    3 2
     5    2    8 1
     6    3    5 1
     7    4    5 1
     8    6    7 2
     9    6   24 am
    10    8    9 am
    11    9   10 2
    12    9   11 1
    13   11   15 2
    14   11   16 1
    15   12   13 2
    16   12   15 1
    17   13   14 1
    18   14   16 2
    19   15   17 1
    20   16   18 1
    21   19   22 1
    22   19   25 1
    23   20   21 1
    24   20   25 1
    25   21   23 1
    26   22   23 1
    27   23   24 1
    28    3   26 1
    29    5   27 1
    30    8   28 1
    31   12   29 1
    32   13   30 1
    33   14   31 1
    34   19   32 1
    35   19   33 1
    36   20   34 1
    37   20   35 1
    38   21   36 1
    39   21   37 1
    40   22   38 1
    41   22   39 1
    42   23   40 1
    43   24   41 1
    44   25   42 1
    45   25   43 1
@<TRIPOS>PROPERTY_DATA
  Total_Score	| 8.5090
  Crash		| -0.6592
  Polar		| 4.3818
  FragIndex	| 1
  FragRMSD	| 1.099

