@<TRIPOS>MOLECULE
BindingDB_24645
 37 39 0 0 0
SMALL
NO_CHARGES


@<TRIPOS>ATOM
1    C        28.2092    5.4042   64.3961  C     
2    C        26.9422    5.0671   63.6264  C     
3    C        26.7520    3.6572   64.0536  C     
4    N        28.6069    4.2458   65.0886  N     
5    N        27.7453    3.2873   64.8611  N     
6    C        28.8045    6.6534   64.4261  C     
7    O        28.1583    7.6855   63.5591  O     
8    N        29.8401    6.9056   65.1923  N     
9    N        25.9759    5.4926   62.7736  N     
10   C        26.0029    6.6882   62.0311  C     
11   O        27.2224    7.2673   62.3191  O     
12   C        25.0163    7.1034   61.2927  C     
13   C        24.5124    8.3810   59.2702  C     
14   C        23.2079    8.3474   59.6724  C     
15   C        22.7400    7.8033   60.8860  C     
16   C        25.5023    7.8033   60.0326  C     
17   C        23.6994    7.2115   61.7561  C     
18   F        26.7464    7.8512   59.7035  F     
19   F        23.3829    6.7751   62.9659  F     
20   C        30.3956    8.1855   65.1020  C     
21   C        31.6460    8.0880   65.9274  C     
22   C        31.9701    9.1766   66.9128  C     
23   C        31.3767    7.8567   67.4134  C     
24   H        26.0108    3.0333   63.8037  H     
25   H        27.8843    2.4523   65.2764  H     
26   H        30.2692    6.0753   65.7395  H     
27   H        25.1006    4.8372   62.6488  H     
28   H        24.8212    8.7748   58.3905  H     
29   H        22.4843    8.7395   59.0719  H     
30   H        21.8424    7.7910   61.1990  H     
31   H        30.7507    8.4889   64.0864  H     
32   H        29.5416    8.8624   65.3940  H     
33   H        32.4358    7.4726   65.4943  H     
34   H        33.0310    9.3052   67.0937  H     
35   H        31.2980   10.0290   66.9574  H     
36   H        30.3411    7.9048   67.7592  H     
37   H        32.0653    7.1590   67.8808  H     
@<TRIPOS>BOND
     1    1    2 1
     2    1    4 2
     3    1    6 1
     4    2    3 2
     5    2    9 1
     6    3    5 1
     7    4    5 1
     8    6    7 2
     9    6    8 am
    10    8   20 1
    11    9   10 am
    12   10   11 2
    13   10   12 1
    14   12   16 2
    15   12   17 1
    16   13   14 2
    17   13   16 1
    18   14   15 1
    19   15   17 2
    20   16   18 1
    21   17   19 1
    22   20   21 1
    23   21   22 1
    24   21   23 1
    25   22   23 1
    26    3   24 1
    27    5   25 1
    28    8   26 1
    29    9   27 1
    30   13   28 1
    31   14   29 1
    32   15   30 1
    33   20   31 1
    34   20   32 1
    35   21   33 1
    36   22   34 1
    37   22   35 1
    38   23   36 1
    39   23   37 1
@<TRIPOS>PROPERTY_DATA
  Total_Score	| 6.1345
  Crash		| -0.8519
  Polar		| 3.2508
  FragIndex	| 1
  FragRMSD	| 1.109

