@<TRIPOS>MOLECULE
BindingDB_24647
 44 46 0 0 0
SMALL
NO_CHARGES


@<TRIPOS>ATOM
1    C        28.2005    5.3883   64.3922  C     
2    C        27.0712    5.0411   63.6895  C     
3    C        26.7018    3.7361   64.0724  C     
4    N        28.5586    4.3187   65.0870  N     
5    N        27.7003    3.3255   64.9043  N     
6    C        28.7042    6.6388   64.3411  C     
7    O        28.2031    7.6323   63.4314  O     
8    N        26.0972    5.6496   63.0129  N     
9    C        26.1334    6.5691   61.9616  C     
10   O        27.4279    6.8408   62.0647  O     
11   C        25.1480    7.2189   61.1752  C     
12   C        22.7599    7.8609   60.5717  C     
13   C        23.1916    8.5426   59.4671  C     
14   C        24.5345    8.5468   59.0760  C     
15   C        23.6941    7.1686   61.4018  C     
16   C        25.5008    7.9197   59.9534  C     
17   F        22.8059    6.4200   62.1842  F     
18   F        26.7136    8.2015   59.4680  F     
19   C        31.4350   10.0004   66.6910  C     
20   C        32.7546    9.9378   65.8808  C     
21   C        32.5102    9.4824   64.4149  C     
22   C        31.7595    8.1325   64.3500  C     
23   C        30.6546    8.6681   66.6204  C     
24   O        33.3730   11.2242   65.8907  O     
25   C        30.4251    8.2605   65.1340  C     
26   N        29.7627    6.9707   65.1223  N     
27   H        25.8667    3.1967   63.8808  H     
28   H        27.7375    2.4802   65.3272  H     
29   H        25.2915    5.4483   63.5280  H     
30   H        21.7863    7.8473   60.8470  H     
31   H        22.5263    9.0401   58.9069  H     
32   H        24.8327    9.0612   58.2790  H     
33   H        31.6339   10.2154   67.7369  H     
34   H        30.8095   10.8012   66.2875  H     
35   H        33.4342    9.2312   66.3707  H     
36   H        31.9271   10.2488   63.8960  H     
37   H        33.4574    9.3841   63.8916  H     
38   H        31.5270    7.8795   63.3115  H     
39   H        32.3692    7.3452   64.7739  H     
40   H        31.1893    7.8774   67.1315  H     
41   H        29.6776    8.7972   67.0832  H     
42   H        34.2338   11.1081   65.4320  H     
43   H        29.8795    9.0621   64.6717  H     
44   H        30.1818    6.2082   65.7176  H     
@<TRIPOS>BOND
     1    1    2 1
     2    1    4 2
     3    1    6 1
     4    2    3 2
     5    2    8 1
     6    3    5 1
     7    4    5 1
     8    6    7 2
     9    6   26 am
    10    8    9 am
    11    9   10 2
    12    9   11 1
    13   11   15 2
    14   11   16 1
    15   12   13 2
    16   12   15 1
    17   13   14 1
    18   14   16 2
    19   15   17 1
    20   16   18 1
    21   19   20 1
    22   19   23 1
    23   20   21 1
    24   20   24 1
    25   21   22 1
    26   22   25 1
    27   23   25 1
    28   25   26 1
    29    3   27 1
    30    5   28 1
    31    8   29 1
    32   12   30 1
    33   13   31 1
    34   14   32 1
    35   19   33 1
    36   19   34 1
    37   20   35 1
    38   21   36 1
    39   21   37 1
    40   22   38 1
    41   22   39 1
    42   23   40 1
    43   23   41 1
    44   24   42 1
    45   25   43 1
    46   26   44 1
@<TRIPOS>PROPERTY_DATA
  Total_Score	| 7.4675
  Crash		| -0.7783
  Polar		| 3.1624
  FragIndex	| 1
  FragRMSD	| 1.036

