@<TRIPOS>MOLECULE
BindingDB_24652
 47 49 0 0 0
SMALL
NO_CHARGES


@<TRIPOS>ATOM
1    C        28.1795    5.5375   64.5179  C     
2    C        27.0758    5.1687   63.7370  C     
3    C        26.8686    3.8202   64.0239  C     
4    N        28.5710    4.4417   65.2023  N     
5    N        27.7988    3.4486   64.9087  N     
6    C        28.7735    6.7884   64.6389  C     
7    O        28.2649    7.7511   64.0811  O     
8    N        26.4033    5.9959   62.8780  N     
9    C        25.3536    5.7459   62.1046  C     
10   O        24.8117    4.6424   62.1021  O     
11   C        24.8603    6.7242   61.2449  C     
12   C        25.2307    8.5103   59.5950  C     
13   C        23.8471    8.6660   59.4306  C     
14   C        22.9616    7.8646   60.1702  C     
15   C        25.7446    7.5512   60.4927  C     
16   C        23.4611    6.9069   61.0712  C     
17   F        22.5828    6.2082   61.7503  F     
18   C        32.6060    9.6030   65.0395  C     
19   C        30.9564    8.2992   67.1197  C     
20   C        31.8228    8.3057   64.7257  C     
21   C        30.5559    8.1942   65.6223  C     
22   N        29.8743    6.9527   65.3688  N     
23   C        31.7643    9.5959   67.3845  C     
24   N        32.9346    9.7042   66.4811  N     
25   O        27.1113    7.4479   60.5732  O     
26   C        27.6500    6.3579   59.8074  C     
27   H        26.1492    3.2021   63.6497  H     
28   H        27.8717    2.5543   65.2801  H     
29   H        26.7497    6.8972   62.8243  H     
30   H        25.8674    9.0939   59.0487  H     
31   H        23.4823    9.3562   58.7720  H     
32   H        21.9549    7.9853   60.0504  H     
33   H        33.5384    9.6079   64.4701  H     
34   H        32.0218   10.4778   64.7358  H     
35   H        30.0574    8.3002   67.7416  H     
36   H        31.5631    7.4337   67.4019  H     
37   H        31.5276    8.3053   63.6712  H     
38   H        32.4727    7.4412   64.8958  H     
39   H        29.9039    9.0463   65.3969  H     
40   H        30.2754    6.1533   65.7482  H     
41   H        31.1214   10.4694   67.2520  H     
42   H        32.1226    9.5941   68.4142  H     
43   H        33.5901    8.9544   66.7092  H     
44   H        33.3964   10.5995   66.6483  H     
45   H        27.4002    5.4089   60.2835  H     
46   H        28.7360    6.4614   59.7823  H     
47   H        27.2909    6.3547   58.7750  H     
@<TRIPOS>BOND
     1    1    2 1
     2    1    4 2
     3    1    6 1
     4    2    3 2
     5    2    8 1
     6    3    5 1
     7    4    5 1
     8    6    7 2
     9    6   22 am
    10    8    9 am
    11    9   10 2
    12    9   11 1
    13   11   15 2
    14   11   16 1
    15   12   13 2
    16   12   15 1
    17   13   14 1
    18   14   16 2
    19   15   25 1
    20   16   17 1
    21   18   20 1
    22   18   24 1
    23   19   21 1
    24   19   23 1
    25   20   21 1
    26   21   22 1
    27   23   24 1
    28   25   26 1
    29    3   27 1
    30    5   28 1
    31    8   29 1
    32   12   30 1
    33   13   31 1
    34   14   32 1
    35   18   33 1
    36   18   34 1
    37   19   35 1
    38   19   36 1
    39   20   37 1
    40   20   38 1
    41   21   39 1
    42   22   40 1
    43   23   41 1
    44   23   42 1
    45   24   43 1
    46   24   44 1
    47   26   45 1
    48   26   46 1
    49   26   47 1
@<TRIPOS>PROPERTY_DATA
  Total_Score	| 9.0368
  Crash		| -0.6509
  Polar		| 4.3319
  FragIndex	| 1
  FragRMSD	| 0.509

