@<TRIPOS>MOLECULE
BindingDB_24651
 43 45 0 0 0
SMALL
NO_CHARGES


@<TRIPOS>ATOM
1    C        28.1919    5.4126   64.3515  C     
2    C        26.9308    5.0794   63.8348  C     
3    C        26.6912    3.7772   64.2395  C     
4    N        28.6375    4.3171   65.0054  N     
5    N        27.7630    3.3679   64.9231  N     
6    C        28.8548    6.6324   64.3249  C     
7    O        28.4545    7.5133   63.5725  O     
8    N        26.0138    5.8048   63.1357  N     
9    C        26.1763    6.3222   61.9196  C     
10   O        27.2760    6.1613   61.4027  O     
11   C        25.1722    7.0267   61.2137  C     
12   C        22.8501    7.8394   60.9716  C     
13   C        23.1693    8.4885   59.7717  C     
14   C        24.4750    8.4070   59.2752  C     
15   C        23.8268    7.1142   61.6813  C     
16   C        25.4630    7.6940   59.9828  C     
17   F        23.3964    6.5119   62.7597  F     
18   F        26.6540    7.7010   59.4402  F     
19   C        32.5433    9.5907   64.8329  C     
20   C        30.8811    8.2581   66.8842  C     
21   C        31.8286    8.2513   64.5169  C     
22   C        30.5389    8.1146   65.3725  C     
23   N        29.8927    6.8513   65.1292  N     
24   C        31.6507    9.5771   67.1616  C     
25   N        32.8351    9.7186   66.2801  N     
26   F        22.2547    9.1518   59.1164  F     
27   H        25.8597    3.2143   64.0435  H     
28   H        27.8616    2.4836   65.3091  H     
29   H        25.1307    5.8366   63.5256  H     
30   H        21.8911    7.8895   61.3274  H     
31   H        24.7072    8.8700   58.3922  H     
32   H        33.4828    9.6407   64.2803  H     
33   H        31.9181   10.4274   64.5113  H     
34   H        29.9614    8.2488   67.4763  H     
35   H        31.4973    7.4121   67.2059  H     
36   H        31.5743    8.2178   63.4535  H     
37   H        32.5078    7.4206   64.7304  H     
38   H        29.8701    8.9443   65.1110  H     
39   H        30.2136    6.0983   65.6510  H     
40   H        30.9849   10.4315   67.0127  H     
41   H        31.9880    9.5900   68.2005  H     
42   H        33.5170    9.0011   66.5328  H     
43   H        33.2576   10.6353   66.4458  H     
@<TRIPOS>BOND
     1    1    2 1
     2    1    4 2
     3    1    6 1
     4    2    3 2
     5    2    8 1
     6    3    5 1
     7    4    5 1
     8    6    7 2
     9    6   23 am
    10    8    9 am
    11    9   10 2
    12    9   11 1
    13   11   15 2
    14   11   16 1
    15   12   13 2
    16   12   15 1
    17   13   14 1
    18   13   26 1
    19   14   16 2
    20   15   17 1
    21   16   18 1
    22   19   21 1
    23   19   25 1
    24   20   22 1
    25   20   24 1
    26   21   22 1
    27   22   23 1
    28   24   25 1
    29    3   27 1
    30    5   28 1
    31    8   29 1
    32   12   30 1
    33   14   31 1
    34   19   32 1
    35   19   33 1
    36   20   34 1
    37   20   35 1
    38   21   36 1
    39   21   37 1
    40   22   38 1
    41   23   39 1
    42   24   40 1
    43   24   41 1
    44   25   42 1
    45   25   43 1
@<TRIPOS>PROPERTY_DATA
  Total_Score	| 8.7463
  Crash		| -0.7329
  Polar		| 4.3934
  FragIndex	| 1
  FragRMSD	| 0.903

