@<TRIPOS>MOLECULE
BindingDB_24643
 37 39 0 0 0
SMALL
NO_CHARGES


@<TRIPOS>ATOM
1    C        28.2407    5.5319   64.4593  C     
2    C        27.1344    5.2080   63.6713  C     
3    C        26.8633    3.8680   63.9487  C     
4    N        28.5729    4.4181   65.1466  N     
5    N        27.7558    3.4626   64.8519  N     
6    C        28.8971    6.7438   64.5616  C     
7    O        28.4158    7.7487   64.0299  O     
8    N        30.0878    6.8125   65.1558  N     
9    C        30.8161    7.9527   65.3452  C     
10   C        32.9115    9.1977   65.0203  C     
11   C        32.1555    8.0062   64.8833  C     
12   C        30.2857    9.0775   66.0233  C     
13   C        31.0473   10.2426   66.1949  C     
14   C        32.3540   10.3184   65.6768  C     
15   F        33.0641   11.4042   65.8193  F     
16   N        26.5361    6.0272   62.7583  N     
17   C        25.3416    5.8981   62.1812  C     
18   O        24.5896    4.9837   62.5227  O     
19   C        24.8891    6.8226   61.2290  C     
20   C        25.3177    8.4790   59.4506  C     
21   C        23.9296    8.6779   59.2857  C     
22   C        23.0233    7.9469   60.0752  C     
23   C        23.4965    7.0327   61.0275  C     
24   C        25.7841    7.5715   60.4142  C     
25   H        26.1397    3.2694   63.5495  H     
26   H        27.7721    2.5766   65.2440  H     
27   H        30.4873    5.9712   65.4597  H     
28   H        33.8527    9.2590   64.6320  H     
29   H        32.5501    7.2108   64.3823  H     
30   H        29.3317    9.0506   66.3853  H     
31   H        30.6388   11.0540   66.6872  H     
32   H        27.0191    6.8314   62.5356  H     
33   H        25.9780    9.0070   58.8739  H     
34   H        23.5878    9.3471   58.5934  H     
35   H        22.0127    8.0838   59.9546  H     
36   H        22.8031    6.5366   61.5899  H     
37   H        26.7983    7.4475   60.4919  H     
@<TRIPOS>BOND
     1    1    2 1
     2    1    4 2
     3    1    6 1
     4    2    3 2
     5    2   16 1
     6    3    5 1
     7    4    5 1
     8    6    7 2
     9    6    8 am
    10    8    9 1
    11    9   11 2
    12    9   12 1
    13   10   11 1
    14   10   14 2
    15   12   13 2
    16   13   14 1
    17   14   15 1
    18   16   17 am
    19   17   18 2
    20   17   19 1
    21   19   23 1
    22   19   24 2
    23   20   21 2
    24   20   24 1
    25   21   22 1
    26   22   23 2
    27    3   25 1
    28    5   26 1
    29    8   27 1
    30   10   28 1
    31   11   29 1
    32   12   30 1
    33   13   31 1
    34   16   32 1
    35   20   33 1
    36   21   34 1
    37   22   35 1
    38   23   36 1
    39   24   37 1
@<TRIPOS>PROPERTY_DATA
  Total_Score	| 6.0995
  Crash		| -0.7965
  Polar		| 3.1366
  FragIndex	| 1
  FragRMSD	| 0.731

