@<TRIPOS>MOLECULE
BindingDB_24641
 40 42 0 0 0
SMALL
NO_CHARGES


@<TRIPOS>ATOM
1    C        28.1210    5.4339   64.6018  C     
2    C        26.8486    5.0803   64.1360  C     
3    C        26.7446    3.7095   64.3553  C     
4    N        28.6918    4.2989   65.0645  N     
5    N        27.8867    3.3042   64.9079  N     
6    C        28.7336    6.6825   64.6127  C     
7    O        28.1004    7.6848   64.3069  O     
8    N        30.0324    6.7753   64.9227  N     
9    C        30.7450    7.9323   65.0681  C     
10   C        31.2132   10.0481   66.2102  C     
11   C        30.4201    8.8984   66.0438  C     
12   C        31.9064    8.1216   64.2786  C     
13   C        32.6848    9.2889   64.4245  C     
14   C        32.3402   10.2512   65.3967  C     
15   F        33.0663   11.3280   65.5334  F     
16   N        25.9514    5.9224   63.5638  N     
17   C        24.8893    5.6096   62.8195  C     
18   O        24.4443    4.4745   62.7491  O     
19   C        24.3095    6.6423   61.9682  C     
20   C        25.1591    7.2208   60.8815  C     
21   C        27.2717    7.5876   59.6840  C     
22   C        26.6358    8.5075   58.8341  C     
23   C        25.2643    8.7674   58.9719  C     
24   C        24.5361    8.1429   60.0045  C     
25   C        26.5408    6.9355   60.6772  C     
26   H        25.9456    3.1027   64.1638  H     
27   H        28.0518    2.3918   65.1969  H     
28   H        30.5098    5.9502   65.0408  H     
29   H        30.9654   10.7352   66.9296  H     
30   H        29.6117    8.7603   66.6519  H     
31   H        32.1717    7.4284   63.5745  H     
32   H        33.5023    9.4323   63.8303  H     
33   H        26.2030    6.8626   63.5569  H     
34   H        23.4072    6.2381   61.4938  H     
35   H        23.9907    7.4537   62.6227  H     
36   H        28.2691    7.3861   59.5720  H     
37   H        27.1813    8.9781   58.1036  H     
38   H        24.7958    9.4162   58.3346  H     
39   H        23.5425    8.3715   60.1082  H     
40   H        27.0489    6.2623   61.2525  H     
@<TRIPOS>BOND
     1    1    2 1
     2    1    4 2
     3    1    6 1
     4    2    3 2
     5    2   16 1
     6    3    5 1
     7    4    5 1
     8    6    7 2
     9    6    8 am
    10    8    9 1
    11    9   11 2
    12    9   12 1
    13   10   11 1
    14   10   14 2
    15   12   13 2
    16   13   14 1
    17   14   15 1
    18   16   17 am
    19   17   18 2
    20   17   19 1
    21   19   20 1
    22   20   24 2
    23   20   25 1
    24   21   22 1
    25   21   25 2
    26   22   23 2
    27   23   24 1
    28    3   26 1
    29    5   27 1
    30    8   28 1
    31   10   29 1
    32   11   30 1
    33   12   31 1
    34   13   32 1
    35   16   33 1
    36   19   34 1
    37   19   35 1
    38   21   36 1
    39   22   37 1
    40   23   38 1
    41   24   39 1
    42   25   40 1
@<TRIPOS>PROPERTY_DATA
  Total_Score	| 6.6748
  Crash		| -0.8171
  Polar		| 2.7947
  FragIndex	| 1
  FragRMSD	| 1.305

