@<TRIPOS>MOLECULE
BindingDB_24654
 43 45 0 0 0
SMALL
NO_CHARGES


@<TRIPOS>ATOM
1    C        28.1540    5.4962   64.6953  C     
2    C        27.0822    5.1443   63.8631  C     
3    C        26.8197    3.8077   64.1481  C     
4    N        28.4797    4.3863   65.3959  N     
5    N        27.6950    3.4111   65.0768  N     
6    C        28.8017    6.7179   64.8401  C     
7    O        28.2961    7.7208   64.3634  O     
8    N        26.4436    5.9725   62.9855  N     
9    C        25.7160    5.6555   61.9210  C     
10   O        25.5593    4.4916   61.5862  O     
11   C        25.1358    6.6514   61.1346  C     
12   C        23.2057    8.0737   60.5912  C     
13   C        23.9146    8.6526   59.5281  C     
14   C        25.2255    8.2400   59.2607  C     
15   C        23.8033    7.0839   61.3935  C     
16   C        25.8462    7.2606   60.0538  C     
17   C        30.3436   10.0511   64.5678  C     
18   C        32.1457    7.7432   65.0087  C     
19   C        30.3282    9.3014   65.9307  C     
20   C        30.8453    7.8275   65.8602  C     
21   N        29.9608    6.7536   65.4848  N     
22   C        31.9816    8.4456   63.6450  C     
23   N        31.6232    9.8597   63.8498  N     
24   Cl       22.8511    6.4877   62.6796  Cl    
25   Cl       27.4252    6.8331   59.5834  Cl    
26   H        26.0893    3.2192   63.7464  H     
27   H        27.7262    2.5205   65.4627  H     
28   H        26.5742    6.9179   63.1470  H     
29   H        22.2565    8.4018   60.7838  H     
30   H        23.4742    9.3715   58.9515  H     
31   H        25.7271    8.6693   58.4796  H     
32   H        29.5253    9.7275   63.9244  H     
33   H        30.2153   11.1235   64.7468  H     
34   H        32.9565    8.2351   65.5517  H     
35   H        32.4394    6.7026   64.8450  H     
36   H        30.9824    9.8597   66.6136  H     
37   H        29.3286    9.3198   66.3683  H     
38   H        31.1252    7.5640   66.8865  H     
39   H        30.2821    5.8842   65.7669  H     
40   H        32.9225    8.4106   63.0979  H     
41   H        31.2174    7.9348   63.0479  H     
42   H        31.5734   10.2974   62.9263  H     
43   H        32.3694   10.3076   64.3880  H     
@<TRIPOS>BOND
     1    1    2 1
     2    1    4 2
     3    1    6 1
     4    2    3 2
     5    2    8 1
     6    3    5 1
     7    4    5 1
     8    6    7 2
     9    6   21 am
    10    8    9 am
    11    9   10 2
    12    9   11 1
    13   11   15 2
    14   11   16 1
    15   12   13 2
    16   12   15 1
    17   13   14 1
    18   14   16 2
    19   15   24 1
    20   16   25 1
    21   17   19 1
    22   17   23 1
    23   18   20 1
    24   18   22 1
    25   19   20 1
    26   20   21 1
    27   22   23 1
    28    3   26 1
    29    5   27 1
    30    8   28 1
    31   12   29 1
    32   13   30 1
    33   14   31 1
    34   17   32 1
    35   17   33 1
    36   18   34 1
    37   18   35 1
    38   19   36 1
    39   19   37 1
    40   20   38 1
    41   21   39 1
    42   22   40 1
    43   22   41 1
    44   23   42 1
    45   23   43 1
@<TRIPOS>PROPERTY_DATA
  Total_Score	| 8.2978
  Crash		| -1.7935
  Polar		| 4.7144
  FragIndex	| 1
  FragRMSD	| 1.055

