@<TRIPOS>MOLECULE
BindingDB_24644
 37 39 0 0 0
SMALL
NO_CHARGES


@<TRIPOS>ATOM
1    C        28.2668    5.5395   64.3873  C     
2    C        27.1629    5.1822   63.6060  C     
3    C        26.8987    3.8574   63.9377  C     
4    N        28.5978    4.4536   65.1175  N     
5    N        27.7907    3.4794   64.8526  N     
6    C        28.9436    6.7531   64.4367  C     
7    O        28.5725    7.6930   63.7452  O     
8    N        30.0130    6.8736   65.2160  N     
9    C        30.8035    7.9769   65.3082  C     
10   C        32.7974    9.2037   64.6188  C     
11   C        31.9545    8.0854   64.4998  C     
12   C        30.5123    8.9950   66.2413  C     
13   C        31.3694   10.1007   66.3761  C     
14   C        32.5156   10.2089   65.5655  C     
15   F        33.3187   11.2264   65.6966  F     
16   N        26.5229    5.9676   62.6951  N     
17   C        25.3726    5.7222   62.0808  C     
18   O        24.6988    4.7193   62.2916  O     
19   C        24.8407    6.6775   61.2381  C     
20   C        22.9823    8.1435   60.6066  C     
21   C        23.7365    8.6416   59.5310  C     
22   C        25.0393    8.1662   59.3040  C     
23   C        23.5249    7.1622   61.4531  C     
24   C        25.5958    7.1912   60.1517  C     
25   F        22.7928    6.7516   62.4591  F     
26   F        26.8021    6.7558   59.8841  F     
27   H        26.1806    3.2427   63.5493  H     
28   H        27.8231    2.5939   65.2407  H     
29   H        30.2934    6.0991   65.7256  H     
30   H        33.6170    9.2891   64.0117  H     
31   H        32.1730    7.3559   63.8181  H     
32   H        29.6802    8.9236   66.8372  H     
33   H        31.1558   10.8251   67.0687  H     
34   H        26.9347    6.8239   62.5032  H     
35   H        22.0395    8.5030   60.7780  H     
36   H        23.3369    9.3539   58.9154  H     
37   H        25.5793    8.5276   58.5136  H     
@<TRIPOS>BOND
     1    1    2 1
     2    1    4 2
     3    1    6 1
     4    2    3 2
     5    2   16 1
     6    3    5 1
     7    4    5 1
     8    6    7 2
     9    6    8 am
    10    8    9 1
    11    9   11 2
    12    9   12 1
    13   10   11 1
    14   10   14 2
    15   12   13 2
    16   13   14 1
    17   14   15 1
    18   16   17 am
    19   17   18 2
    20   17   19 1
    21   19   23 2
    22   19   24 1
    23   20   21 2
    24   20   23 1
    25   21   22 1
    26   22   24 2
    27   23   25 1
    28   24   26 1
    29    3   27 1
    30    5   28 1
    31    8   29 1
    32   10   30 1
    33   11   31 1
    34   12   32 1
    35   13   33 1
    36   16   34 1
    37   20   35 1
    38   21   36 1
    39   22   37 1
@<TRIPOS>PROPERTY_DATA
  Total_Score	| 6.4302
  Crash		| -0.5741
  Polar		| 3.0896
  FragIndex	| 1
  FragRMSD	| 0.644

