@<TRIPOS>MOLECULE
BindingDB_24648
 46 48 0 0 0
SMALL
NO_CHARGES


@<TRIPOS>ATOM
1    C        28.1513    5.3559   64.4289  C     
2    C        26.9922    5.0276   63.6876  C     
3    C        26.7359    3.6722   64.0470  C     
4    N        28.5477    4.2641   65.0884  N     
5    N        27.7320    3.2743   64.8682  N     
6    C        28.7503    6.6013   64.5010  C     
7    O        28.1465    7.6662   63.6760  O     
8    N        26.0432    5.5054   62.8078  N     
9    C        26.1404    6.6483   62.0692  C     
10   O        27.4037    7.1642   62.2664  O     
11   C        25.1642    7.1076   61.2624  C     
12   C        24.5264    8.3288   59.2308  C     
13   C        23.2011    8.3530   59.7052  C     
14   C        22.8423    7.7561   60.9208  C     
15   C        25.5265    7.7055   60.0170  C     
16   C        23.8377    7.1497   61.7219  C     
17   F        26.7533    7.6971   59.5335  F     
18   F        23.4676    6.6884   62.9195  F     
19   C        31.6954    9.7480   66.8464  C     
20   C        32.9109    9.7610   65.8770  C     
21   C        32.4739    9.4608   64.4185  C     
22   C        31.6920    8.1306   64.3239  C     
23   C        30.9076    8.4191   66.7673  C     
24   C        30.4781    8.1237   65.3003  C     
25   N        29.8239    6.8506   65.2782  N     
26   N        33.6295   11.0413   65.9450  N     
27   H        25.9797    3.0549   63.7656  H     
28   H        27.8257    2.3970   65.2534  H     
29   H        25.2160    4.9858   62.7038  H     
30   H        24.7829    8.7409   58.3485  H     
31   H        22.5006    8.8335   59.1615  H     
32   H        21.8922    7.7884   61.2575  H     
33   H        32.0343    9.8835   67.8734  H     
34   H        31.0246   10.5736   66.5940  H     
35   H        33.6132    8.9918   66.1921  H     
36   H        31.8390   10.2752   64.0583  H     
37   H        33.3519    9.3953   63.7705  H     
38   H        31.3317    7.9987   63.2940  H     
39   H        32.3489    7.2931   64.5601  H     
40   H        31.5140    7.5913   67.1206  H     
41   H        30.0124    8.4792   67.3880  H     
42   H        29.7834    8.9198   65.0152  H     
43   H        30.2411    6.0598   65.7339  H     
44   H        33.0108   11.7993   65.6620  H     
45   H        34.4390   11.0123   65.3192  H     
46   H        33.9510   11.2043   66.9025  H     
@<TRIPOS>BOND
     1    1    2 1
     2    1    4 2
     3    1    6 1
     4    2    3 2
     5    2    8 1
     6    3    5 1
     7    4    5 1
     8    6    7 2
     9    6   25 am
    10    8    9 am
    11    9   10 2
    12    9   11 1
    13   11   15 2
    14   11   16 1
    15   12   13 2
    16   12   15 1
    17   13   14 1
    18   14   16 2
    19   15   17 1
    20   16   18 1
    21   19   20 1
    22   19   23 1
    23   20   21 1
    24   20   26 1
    25   21   22 1
    26   22   24 1
    27   23   24 1
    28   24   25 1
    29    3   27 1
    30    5   28 1
    31    8   29 1
    32   12   30 1
    33   13   31 1
    34   14   32 1
    35   19   33 1
    36   19   34 1
    37   20   35 1
    38   21   36 1
    39   21   37 1
    40   22   38 1
    41   22   39 1
    42   23   40 1
    43   23   41 1
    44   24   42 1
    45   25   43 1
    46   26   44 1
    47   26   45 1
    48   26   46 1
@<TRIPOS>PROPERTY_DATA
  Total_Score	| 8.0174
  Crash		| -0.9624
  Polar		| 3.2010
  FragIndex	| 1
  FragRMSD	| 1.051

