@<TRIPOS>MOLECULE
BindingDB_50031454
 51 51 0 0 0
SMALL
NO_CHARGES


@<TRIPOS>ATOM
1    S        -6.0558    1.0736   16.9502  S     
2    C        -4.6789    5.9140   13.7087  C     
3    C        -5.6453    2.4707   16.0014  C     
4    O        -5.8585   -0.1934   16.0109  O     
5    O        -5.1239    0.8679   18.2191  O     
6    C        -4.9861    4.7609   14.4296  C     
7    C         2.6352    9.2868   13.7737  C     
8    N        -7.6715    0.9684   17.3862  N     
9    N         4.2808    7.5515   13.9816  N     
10   O        -5.5625    6.5839   13.1695  O     
11   O         1.4347    9.0527   13.6042  O     
12   C        -4.3207    2.6803   15.5751  C     
13   C        -6.6345    3.4011   15.6468  C     
14   C        -4.0008    3.8108   14.8025  C     
15   C        -6.3139    4.5207   14.8578  C     
16   N        -3.4235    6.3609   13.6612  N     
17   N         3.0656   10.1357   14.6945  N     
18   C         3.6068    8.4819   13.0606  C     
19   O        -1.1147    7.4355   14.7879  O     
20   O         0.2518    9.7645   15.8103  O     
21   C        -2.9676    7.5848   13.0954  C     
22   C         2.3570   10.9907   15.6080  C     
23   C         0.8172   11.0568   15.5542  C     
24   C        -1.4658    7.8040   13.4393  C     
25   C        -1.1857    9.7141   15.8172  C     
26   C        -1.5837    8.2317   15.8960  C     
27   H        -8.1528    0.1265   17.2789  H     
28   H        -8.1315    1.7492   17.7390  H     
29   H         4.7185    8.0766   14.7542  H     
30   H         4.9994    7.0342   13.4748  H     
31   H         3.5886    6.8893   14.3659  H     
32   H        -3.5794    2.0224   15.8250  H     
33   H        -7.5929    3.2812   15.9699  H     
34   H        -3.0273    3.9232   14.5116  H     
35   H        -7.0668    5.1710   14.6312  H     
36   H        -2.7582    5.8225   14.1190  H     
37   H         4.0366   10.1818   14.7936  H     
38   H         3.1224    7.8934   12.2711  H     
39   H         4.3536    9.1300   12.5930  H     
40   H        -3.1053    7.5542   12.0113  H     
41   H        -3.5533    8.4183   13.4965  H     
42   H         2.6565   10.6716   16.6069  H     
43   H         2.7450   12.0060   15.4713  H     
44   H         0.4982   11.4603   14.5843  H     
45   H         0.4541   11.7693   16.3335  H     
46   H        -1.1753    8.8362   13.2239  H     
47   H        -0.8799    7.1586   12.7829  H     
48   H        -1.5530   10.2328   16.7051  H     
49   H        -1.6371   10.1852   14.9381  H     
50   H        -2.6729    8.1422   16.0263  H     
51   H        -1.1170    7.7977   16.7774  H     
@<TRIPOS>BOND
     1    1    3 1
     2    1    4 2
     3    1    5 2
     4    1    8 am
     5    2    6 1
     6    2   10 2
     7    2   16 am
     8    3   12 2
     9    3   13 1
    10    6   14 2
    11    6   15 1
    12    7   11 2
    13    7   17 am
    14    7   18 1
    15    9   18 1
    16   12   14 1
    17   13   15 2
    18   16   21 1
    19   17   22 1
    20   19   24 1
    21   19   26 1
    22   20   23 1
    23   20   25 1
    24   21   24 1
    25   22   23 1
    26   25   26 1
    27    8   27 1
    28    8   28 1
    29    9   29 1
    30    9   30 1
    31    9   31 1
    32   12   32 1
    33   13   33 1
    34   14   34 1
    35   15   35 1
    36   16   36 1
    37   17   37 1
    38   18   38 1
    39   18   39 1
    40   21   40 1
    41   21   41 1
    42   22   42 1
    43   22   43 1
    44   23   44 1
    45   23   45 1
    46   24   46 1
    47   24   47 1
    48   25   48 1
    49   25   49 1
    50   26   50 1
    51   26   51 1
@<TRIPOS>PROPERTY_DATA
  Total_Score	| 5.1479
  Crash		| -1.6092
  Polar		| 2.6766
  FragIndex	| 1
  FragRMSD	| 0.950

