@<TRIPOS>MOLECULE
BindingDB_50031453
 59 59 0 0 0
SMALL
NO_CHARGES


@<TRIPOS>ATOM
1    S        -6.0640    1.2297   16.8710  S     
2    C         3.6774    7.9713   13.5818  C     
3    C         2.6655    9.0266   13.5941  C     
4    C         3.3338    6.7380   12.8793  C     
5    C        -4.9098    5.8597   13.2370  C     
6    C        -5.7171    2.5768   15.8241  C     
7    N         4.9333    8.5032   13.0207  N     
8    O        -6.0197   -0.1285   16.0497  O     
9    O        -4.9263    1.1748   17.9822  O     
10   C        -5.1770    4.7539   14.0556  C     
11   N        -7.5157    1.3087   17.7104  N     
12   O         1.6791    8.9801   12.8681  O     
13   O        -5.8270    6.3575   12.5749  O     
14   O         2.7612    6.8223   11.7989  O     
15   C        -6.6836    3.5716   15.6055  C     
16   C        -4.4822    2.6599   15.1550  C     
17   C        -6.4233    4.6377   14.7284  C     
18   C        -4.2120    3.7395   14.2931  C     
19   N         2.8410   10.0462   14.4279  N     
20   N        -3.7109    6.4433   13.1989  N     
21   N         4.8930    4.9322   12.5616  N     
22   C         3.7418    5.4190   13.3284  C     
23   O        -1.6446    7.7730   14.3932  O     
24   O        -0.0664   10.0347   15.0692  O     
25   C        -3.4279    7.7133   12.6042  C     
26   C         2.0180   11.2062   14.6121  C     
27   C         0.8476   11.0056   15.6088  C     
28   C        -2.1290    8.3491   13.1628  C     
29   C        -1.3518    9.9083   15.7171  C     
30   C        -1.8831    8.4547   15.6386  C     
31   H         3.8912    7.7411   14.6262  H     
32   H         4.7993    8.7395   12.0332  H     
33   H         5.6689    7.7958   13.1047  H     
34   H         5.2171    9.3433   13.5367  H     
35   H        -7.6009    0.8685   18.5726  H     
36   H        -8.2317    1.8820   17.3981  H     
37   H        -7.5759    3.5404   16.0931  H     
38   H        -3.7694    1.9462   15.2927  H     
39   H        -7.1534    5.3392   14.5934  H     
40   H        -3.3031    3.7643   13.8220  H     
41   H         3.6411   10.0216   14.9817  H     
42   H        -2.9887    6.0257   13.6978  H     
43   H         4.6541    4.8728   11.5693  H     
44   H         5.1630    4.0070   12.9033  H     
45   H         5.6812    5.5737   12.6736  H     
46   H         4.0247    5.4270   14.3793  H     
47   H         2.9210    4.7126   13.2118  H     
48   H        -3.3414    7.6067   11.5142  H     
49   H        -4.2635    8.3865   12.8116  H     
50   H         2.6677   11.9918   15.0075  H     
51   H         1.6409   11.5547   13.6425  H     
52   H         0.3255   11.9545   15.7550  H     
53   H         1.2266   10.6733   16.5840  H     
54   H        -2.2740    9.4283   13.2748  H     
55   H        -1.3395    8.2038   12.4159  H     
56   H        -1.3187   10.2235   16.7763  H     
57   H        -2.0456   10.5715   15.1984  H     
58   H        -2.9441    8.4405   15.8938  H     
59   H        -1.3599    7.8697   16.4036  H     
@<TRIPOS>BOND
     1    1    6 1
     2    1    8 2
     3    1    9 2
     4    1   11 am
     5    2    3 1
     6    2    4 1
     7    2    7 1
     8    3   12 2
     9    3   19 am
    10    4   14 2
    11    4   22 1
    12    5   10 1
    13    5   13 2
    14    5   20 am
    15    6   15 2
    16    6   16 1
    17   10   17 2
    18   10   18 1
    19   15   17 1
    20   16   18 2
    21   19   26 1
    22   20   25 1
    23   21   22 1
    24   23   28 1
    25   23   30 1
    26   24   27 1
    27   24   29 1
    28   25   28 1
    29   26   27 1
    30   29   30 1
    31    2   31 1
    32    7   32 1
    33    7   33 1
    34    7   34 1
    35   11   35 1
    36   11   36 1
    37   15   37 1
    38   16   38 1
    39   17   39 1
    40   18   40 1
    41   19   41 1
    42   20   42 1
    43   21   43 1
    44   21   44 1
    45   21   45 1
    46   22   46 1
    47   22   47 1
    48   25   48 1
    49   25   49 1
    50   26   50 1
    51   26   51 1
    52   27   52 1
    53   27   53 1
    54   28   54 1
    55   28   55 1
    56   29   56 1
    57   29   57 1
    58   30   58 1
    59   30   59 1
@<TRIPOS>PROPERTY_DATA
  Total_Score	| 6.2126
  Crash		| -1.7464
  Polar		| 3.6634
  FragIndex	| 1
  FragRMSD	| 0.956

