@<TRIPOS>MOLECULE
BindingDB_12916
 26 26 0 0 0
SMALL
NO_CHARGES


@<TRIPOS>ATOM
1    C        -5.6137    2.4236   16.0634  C     
2    C        -6.5541    3.3860   15.6422  C     
3    C        -6.1465    4.4938   14.8787  C     
4    C        -3.8504    3.7215   14.9977  C     
5    C        -4.2558    2.6043   15.7490  C     
6    S        -6.1145    1.0366   16.9899  S     
7    O        -5.9127   -0.2215   16.0401  O     
8    O        -5.2309    0.8299   18.2945  O     
9    N        -7.7526    0.9743   17.3530  N     
10   C        -4.7780    4.6971   14.5469  C     
11   C        -4.3484    5.7899   13.7858  C     
12   O        -3.1494    5.9299   13.5464  O     
13   N        -5.1872    6.7084   13.3074  N     
14   C        -4.8352    7.8207   12.4760  C     
15   C        -4.4854    7.4239   11.2083  C     
16   C        -4.1937    7.0915   10.0968  C     
17   H        -7.5473    3.2836   15.8797  H     
18   H        -6.8668    5.1563   14.5812  H     
19   H        -2.8457    3.8062   14.7911  H     
20   H        -3.5553    1.9216   16.0585  H     
21   H        -8.1851    0.1054   17.4575  H     
22   H        -8.2579    1.7959   17.4920  H     
23   H        -6.1227    6.6497   13.5690  H     
24   H        -5.7068    8.4734   12.3923  H     
25   H        -4.0142    8.3911   12.9200  H     
26   H        -3.9600    6.8258    9.2444  H     
@<TRIPOS>BOND
     1    1    2 2
     2    1    5 1
     3    1    6 1
     4    2    3 1
     5    3   10 2
     6    4    5 2
     7    4   10 1
     8    6    7 2
     9    6    8 2
    10    6    9 am
    11   10   11 1
    12   11   12 2
    13   11   13 am
    14   13   14 1
    15   14   15 1
    16   15   16 3
    17    2   17 1
    18    3   18 1
    19    4   19 1
    20    5   20 1
    21    9   21 1
    22    9   22 1
    23   13   23 1
    24   14   24 1
    25   14   25 1
    26   16   26 1
@<TRIPOS>PROPERTY_DATA
  Total_Score	| 3.9036
  Crash		| -1.0283
  Polar		| 2.5715
  FragIndex	| 1
  FragRMSD	| 1.407

