@<TRIPOS>MOLECULE
BindingDB_50031452
 63 63 0 0 0
SMALL
NO_CHARGES


@<TRIPOS>ATOM
1    S        -6.0593    1.0806   16.8514  S     
2    C         3.9662    8.5699   13.0516  C     
3    C         3.6346    7.3539   12.2865  C     
4    C         2.8519    9.1927   13.7914  C     
5    C        -4.5142    5.9062   13.6160  C     
6    C        -5.5943    2.4911   15.9485  C     
7    N         4.6430    9.5779   12.1859  N     
8    O        -5.8648   -0.2567   16.0163  O     
9    O        -5.0993    0.9438   18.1106  O     
10   C         3.9967    5.9820   12.6717  C     
11   C        -4.8534    4.7861   14.3977  C     
12   O         3.1492    7.4924   11.1656  O     
13   N        -7.6170    1.0846   17.4731  N     
14   O         1.6951    8.9985   13.4290  O     
15   O        -5.3574    6.7715   13.3976  O     
16   C        -4.2817    2.6313   15.4627  C     
17   C        -6.5302    3.5024   15.6741  C     
18   C        -3.9158    3.7611   14.7081  C     
19   C        -6.1659    4.6265   14.9116  C     
20   N         3.1239   10.0150   14.8062  N     
21   N        -3.2915    6.0827   13.1170  N     
22   N         4.4264    5.8361   14.0729  N     
23   O         2.9861    4.3868   11.0881  O     
24   C         2.8777    4.9355   12.4019  C     
25   O        -1.4657    7.7791   14.3652  O     
26   O        -0.0034   10.2522   14.6526  O     
27   C        -2.8004    7.2390   12.4274  C     
28   C         2.2563   10.8413   15.6280  C     
29   C         0.9444   11.3199   14.9611  C     
30   C        -2.4110    8.3464   13.4347  C     
31   C        -0.6187    9.6699   15.8170  C     
32   C        -1.4230    8.3477   15.6801  C     
33   H         4.7109    8.2725   13.7899  H     
34   H         5.4686    9.1742   11.7375  H     
35   H         4.9407   10.3892   12.7328  H     
36   H         4.0091    9.8952   11.4480  H     
37   H         4.8594    5.6764   12.0706  H     
38   H        -7.7586    0.9392   18.4229  H     
39   H        -8.3714    1.0709   16.8631  H     
40   H        -3.5845    1.9055   15.6470  H     
41   H        -7.4886    3.4278   16.0159  H     
42   H        -2.9526    3.8152   14.3772  H     
43   H        -6.8887    5.3281   14.7247  H     
44   H         4.0588   10.1232   14.9993  H     
45   H        -2.6231    5.4138   13.3341  H     
46   H         5.2759    6.3795   14.2268  H     
47   H         4.6264    4.8480   14.2561  H     
48   H         3.6931    6.1629   14.7040  H     
49   H         2.6579    5.0831   10.4796  H     
50   H         2.9595    4.0857   13.0888  H     
51   H         1.8961    5.3920   12.5405  H     
52   H        -1.9008    6.9442   11.8889  H     
53   H        -3.5296    7.5779   11.6835  H     
54   H         1.9679   10.3840   16.6082  H     
55   H         2.8464   11.7312   15.8875  H     
56   H         1.1818   11.8697   14.0506  H     
57   H         0.4658   12.0244   15.6530  H     
58   H        -3.3112    8.7324   13.9203  H     
59   H        -1.9394    9.1726   12.9094  H     
60   H         0.2135    9.4211   16.4902  H     
61   H        -1.2814   10.4191   16.2582  H     
62   H        -2.4281    8.4611   16.0975  H     
63   H        -0.9479    7.6012   16.3305  H     
@<TRIPOS>BOND
     1    1    6 1
     2    1    8 2
     3    1    9 2
     4    1   13 am
     5    2    3 1
     6    2    4 1
     7    2    7 1
     8    3   10 1
     9    3   12 2
    10    4   14 2
    11    4   20 am
    12    5   11 1
    13    5   15 2
    14    5   21 am
    15    6   16 2
    16    6   17 1
    17   10   22 1
    18   10   24 1
    19   11   18 2
    20   11   19 1
    21   16   18 1
    22   17   19 2
    23   20   28 1
    24   21   27 1
    25   23   24 1
    26   25   30 1
    27   25   32 1
    28   26   29 1
    29   26   31 1
    30   27   30 1
    31   28   29 1
    32   31   32 1
    33    2   33 1
    34    7   34 1
    35    7   35 1
    36    7   36 1
    37   10   37 1
    38   13   38 1
    39   13   39 1
    40   16   40 1
    41   17   41 1
    42   18   42 1
    43   19   43 1
    44   20   44 1
    45   21   45 1
    46   22   46 1
    47   22   47 1
    48   22   48 1
    49   23   49 1
    50   24   50 1
    51   24   51 1
    52   27   52 1
    53   27   53 1
    54   28   54 1
    55   28   55 1
    56   29   56 1
    57   29   57 1
    58   30   58 1
    59   30   59 1
    60   31   60 1
    61   31   61 1
    62   32   62 1
    63   32   63 1
@<TRIPOS>PROPERTY_DATA
  Total_Score	| 5.0859
  Crash		| -2.4308
  Polar		| 3.5580
  FragIndex	| 1
  FragRMSD	| 1.072

