@<TRIPOS>MOLECULE
BindingDB_50031455
 74 74 0 0 0
SMALL
NO_CHARGES


@<TRIPOS>ATOM
1    S        -6.0241    1.0730   16.8933  S     
2    C         4.0655    8.7739   13.3492  C     
3    C         5.4954    8.6847   13.6916  C     
4    C         3.2473    9.6651   14.1812  C     
5    C        -4.9945    5.9088   13.5223  C     
6    C        -5.6831    2.5084   15.9779  C     
7    N         3.4579    7.4345   13.3926  N     
8    O        -5.8089   -0.2292   16.0126  O     
9    O        -5.0282    0.9260   18.1200  O     
10   C        -5.2056    4.7973   14.3416  C     
11   O         5.7979    8.6122   14.8757  O     
12   N        -7.5750    0.9363   17.5184  N     
13   O         3.4655    9.6815   15.3900  O     
14   O        -5.8823    6.2954   12.7650  O     
15   C         6.5338    8.4273   12.6783  C     
16   C        -6.7124    3.4382   15.7262  C     
17   C        -4.4063    2.7391   15.4328  C     
18   C        -6.4833    4.5488   14.9010  C     
19   C        -4.1643    3.8768   14.6452  C     
20   N         2.3029   10.4358   13.6431  N     
21   N        -3.8464    6.5726   13.5704  N     
22   N         6.8888    9.6691   11.9679  N     
23   N         8.9587    7.6502   17.6017  N     
24   O        -2.3183    8.2330   14.7772  O     
25   O         0.5158   10.0932   16.1459  O     
26   C        -3.4798    7.6729   12.7337  C     
27   C         1.4600   11.4320   14.2512  C     
28   C         7.8493    7.7291   13.1747  C     
29   C         9.6783    8.4174   16.5635  C     
30   C         1.1112   11.3496   15.7658  C     
31   C        -2.2695    8.4138   13.3512  C     
32   C        -0.8622    9.8677   15.8001  C     
33   C        -1.0777    8.3749   15.4896  C     
34   C         9.6071    7.8004   15.1379  C     
35   C         8.7519    8.5896   14.1048  C     
36   H         3.9891    9.1090   12.3133  H     
37   H         3.9130    6.8271   12.7034  H     
38   H         2.4629    7.4991   13.1689  H     
39   H         3.5733    7.0327   14.3242  H     
40   H        -7.7316    1.0946   18.4610  H     
41   H        -8.2979    0.6390   16.9420  H     
42   H         6.0949    7.7567   11.9344  H     
43   H        -7.6439    3.2942   16.1178  H     
44   H        -3.6410    2.0849   15.6198  H     
45   H        -7.2668    5.1842   14.7174  H     
46   H        -3.2252    4.0105   14.2622  H     
47   H         2.2110   10.3653   12.6798  H     
48   H        -3.2001    6.2879   14.2329  H     
49   H         6.0619   10.0777   11.5278  H     
50   H         7.5799    9.4620   11.2458  H     
51   H         7.2830   10.3396   12.6343  H     
52   H         7.9692    7.5764   17.3558  H     
53   H         9.0423    8.1408   18.4959  H     
54   H         9.3646    6.7179   17.6993  H     
55   H        -3.2048    7.2937   11.7406  H     
56   H        -4.3196    8.3715   12.6262  H     
57   H         1.9197   12.4096   14.0603  H     
58   H         0.5165   11.3929   13.6917  H     
59   H         7.5659    6.8007   13.6705  H     
60   H         8.4380    7.4296   12.2947  H     
61   H         9.2958    9.4391   16.5651  H     
62   H        10.7244    8.4684   16.8860  H     
63   H         0.4699   12.1894   16.0420  H     
64   H         2.0296   11.4580   16.3461  H     
65   H        -2.3518    9.4824   13.1221  H     
66   H        -1.3447    8.0272   12.9043  H     
67   H        -1.4817   10.1611   16.6545  H     
68   H        -1.1884   10.4559   14.9352  H     
69   H        -1.1623    7.8142   16.4310  H     
70   H        -0.2170    7.9965   14.9222  H     
71   H        10.6331    7.7869   14.7558  H     
72   H         9.2662    6.7702   15.1963  H     
73   H         9.4313    9.1518   13.4625  H     
74   H         8.1646    9.3320   14.6433  H     
@<TRIPOS>BOND
     1    1    6 1
     2    1    8 2
     3    1    9 2
     4    1   12 am
     5    2    3 1
     6    2    4 1
     7    2    7 1
     8    3   11 2
     9    3   15 1
    10    4   13 2
    11    4   20 am
    12    5   10 1
    13    5   14 2
    14    5   21 am
    15    6   16 2
    16    6   17 1
    17   10   18 2
    18   10   19 1
    19   15   22 1
    20   15   28 1
    21   16   18 1
    22   17   19 2
    23   20   27 1
    24   21   26 1
    25   23   29 1
    26   24   31 1
    27   24   33 1
    28   25   30 1
    29   25   32 1
    30   26   31 1
    31   27   30 1
    32   28   35 1
    33   29   34 1
    34   32   33 1
    35   34   35 1
    36    2   36 1
    37    7   37 1
    38    7   38 1
    39    7   39 1
    40   12   40 1
    41   12   41 1
    42   15   42 1
    43   16   43 1
    44   17   44 1
    45   18   45 1
    46   19   46 1
    47   20   47 1
    48   21   48 1
    49   22   49 1
    50   22   50 1
    51   22   51 1
    52   23   52 1
    53   23   53 1
    54   23   54 1
    55   26   55 1
    56   26   56 1
    57   27   57 1
    58   27   58 1
    59   28   59 1
    60   28   60 1
    61   29   61 1
    62   29   62 1
    63   30   63 1
    64   30   64 1
    65   31   65 1
    66   31   66 1
    67   32   67 1
    68   32   68 1
    69   33   69 1
    70   33   70 1
    71   34   71 1
    72   34   72 1
    73   35   73 1
    74   35   74 1
@<TRIPOS>PROPERTY_DATA
  Total_Score	| 6.2129
  Crash		| -1.8042
  Polar		| 4.5485
  FragIndex	| 1
  FragRMSD	| 1.119

