@<TRIPOS>MOLECULE
BindingDB_50328904
 85 89 0 0 0
SMALL
NO_CHARGES


@<TRIPOS>ATOM
1    C        32.9166   -9.6515   -4.7678  C     
2    C        31.5140   -9.6008   -4.8764  C     
3    C        30.7225   -9.2890   -3.7475  C     
4    C        31.3499   -9.1828   -2.4939  C     
5    C        32.7571   -9.2600   -2.3795  C     
6    C        33.5572   -9.4615   -3.5248  C     
7    C        35.0388   -9.5143   -3.4438  C     
8    Cl       30.4210   -9.0051   -1.0842  Cl    
9    Cl       30.8105  -10.0223   -6.3481  Cl    
10   O        29.3548   -9.1687   -3.8124  O     
11   C        28.8004   -7.9151   -4.2760  C     
12   C        29.0848   -6.6419   -3.4193  C     
13   O        27.8920   -5.8906   -3.0825  O     
14   C        27.4114   -6.0606   -1.8165  C     
15   N        27.1007   -7.2982   -1.3453  N     
16   C        26.5932   -7.4998   -0.1094  C     
17   C        26.3622   -6.4076    0.7772  C     
18   C        26.6520   -5.1112    0.2975  C     
19   C        27.1722   -4.9326   -1.0022  C     
20   C        25.8395   -6.6372    2.1661  C     
21   C        24.4118   -6.0372    2.3746  C     
22   C        23.9559   -5.9837    3.8654  C     
23   N        24.7564   -6.8395    4.7700  N     
24   C        26.2226   -6.6078    4.7392  C     
25   C        26.7786   -6.1694    3.3383  C     
26   C        28.2475   -6.3938    3.1872  C     
27   N        28.8946   -7.5060    2.7681  N     
28   O        28.9048   -5.3997    3.4609  O     
29   C        28.1977   -8.7765    2.5915  C     
30   C        30.2712   -7.3491    2.2542  C     
31   C        31.3118   -7.1001    3.3057  C     
32   C        31.6537   -8.1631    4.1742  C     
33   C        32.6256   -8.0340    5.1965  C     
34   C        33.2603   -6.7935    5.3617  C     
35   C        32.9848   -5.7265    4.4805  C     
36   C        32.0444   -5.8785    3.4481  C     
37   Cl       31.9094   -4.5723    2.3786  Cl    
38   C        28.8360  -10.1429    2.2841  C     
39   C        28.3885   -9.8106    3.6949  C     
40   C        32.9606   -9.1940    6.0708  C     
41   C        31.8805   -9.5060    7.1612  C     
42   C        31.2047  -10.9061    7.0243  C     
43   O        31.4164  -11.7692    8.1484  O     
44   C        30.8068  -11.3755    9.3909  C     
45   H        33.4844   -9.8579   -5.5958  H     
46   H        33.1961   -9.1671   -1.4584  H     
47   H        35.4651   -8.7075   -4.0449  H     
48   H        35.4042  -10.4691   -3.8301  H     
49   H        35.4022   -9.4037   -2.4187  H     
50   H        27.7199   -8.0736   -4.3212  H     
51   H        29.1242   -7.7356   -5.3042  H     
52   H        29.7066   -5.9632   -4.0102  H     
53   H        29.6714   -6.8857   -2.5318  H     
54   H        26.4006   -8.4612    0.1886  H     
55   H        26.4890   -4.2829    0.8836  H     
56   H        27.3719   -3.9942   -1.3498  H     
57   H        25.6819   -7.7134    2.2475  H     
58   H        23.6963   -6.6306    1.8009  H     
59   H        24.3693   -5.0211    1.9643  H     
60   H        22.9139   -6.2928    3.9435  H     
61   H        24.0254   -4.9533    4.2361  H     
62   H        24.4267   -6.7103    5.7350  H     
63   H        24.6091   -7.8197    4.5192  H     
64   H        26.4610   -5.8457    5.4868  H     
65   H        26.6902   -7.5380    5.0636  H     
66   H        26.6271   -5.0772    3.3471  H     
67   H        27.1327   -8.7397    2.4241  H     
68   H        30.2706   -6.5356    1.5143  H     
69   H        30.5868   -8.2162    1.6787  H     
70   H        31.2286   -9.0824    4.0395  H     
71   H        33.9689   -6.6596    6.0879  H     
72   H        33.4929   -4.8455    4.6030  H     
73   H        28.1871  -10.8684    1.7798  H     
74   H        29.9265  -10.2935    2.2364  H     
75   H        27.5073  -10.3601    4.0120  H     
76   H        29.1615   -9.6261    4.4423  H     
77   H        33.1434  -10.0559    5.4222  H     
78   H        33.9089   -9.0029    6.5752  H     
79   H        32.3506   -9.4420    8.1485  H     
80   H        31.0902   -8.7370    7.1592  H     
81   H        30.1445  -10.7825    6.8311  H     
82   H        31.6221  -11.4458    6.1791  H     
83   H        29.7513  -11.1335    9.2472  H     
84   H        30.8812  -12.2077   10.0980  H     
85   H        31.3253  -10.5099    9.8015  H     
@<TRIPOS>BOND
     1    2    3 1
     2   10   11 1
     3    5    6 2
     4   11   12 1
     5   20   25 1
     6   21   22 1
     7   22   23 1
     8   23   24 1
     9   24   25 1
    10    6    1 1
    11   25   26 1
    12   12   13 1
    13   26   27 am
    14    1    2 2
    15   26   28 2
    16   13   14 1
    17   27   29 1
    18    6    7 1
    19   27   30 1
    20   14   15 2
    21   30   31 1
    22    3    4 2
    23   31   32 2
    24   15   16 1
    25   32   33 1
    26    4    8 1
    27   33   34 2
    28   16   17 2
    29   34   35 1
    30   35   36 2
    31   36   31 1
    32   17   18 1
    33   36   37 1
    34   38   29 1
    35   39   38 1
    36   29   39 1
    37    2    9 1
    38   18   19 2
    39   19   14 1
    40   33   40 1
    41    4    5 1
    42   40   41 1
    43   20   17 1
    44   41   42 1
    45   20   21 1
    46   42   43 1
    47    3   10 1
    48   43   44 1
    49    1   45 1
    50    5   46 1
    51    7   47 1
    52    7   48 1
    53    7   49 1
    54   11   50 1
    55   11   51 1
    56   12   52 1
    57   12   53 1
    58   16   54 1
    59   18   55 1
    60   19   56 1
    61   20   57 1
    62   21   58 1
    63   21   59 1
    64   22   60 1
    65   22   61 1
    66   23   62 1
    67   23   63 1
    68   24   64 1
    69   24   65 1
    70   25   66 1
    71   29   67 1
    72   30   68 1
    73   30   69 1
    74   32   70 1
    75   34   71 1
    76   35   72 1
    77   38   73 1
    78   38   74 1
    79   39   75 1
    80   39   76 1
    81   40   77 1
    82   40   78 1
    83   41   79 1
    84   41   80 1
    85   42   81 1
    86   42   82 1
    87   44   83 1
    88   44   84 1
    89   44   85 1
@<TRIPOS>PROPERTY_DATA
  Total_Score	| 15.5933
  Crash		| -3.5362
  Polar		| 5.3241
  FragIndex	| 1
  FragRMSD	| 0.639

