@<TRIPOS>MOLECULE
BindingDB_50328906
 85 89 0 0 0
SMALL
NO_CHARGES


@<TRIPOS>ATOM
1    C        33.0269   -9.7210   -4.7293  C     
2    C        31.6285   -9.5860   -4.8237  C     
3    C        30.8774   -9.1646   -3.7023  C     
4    C        31.5368   -8.9591   -2.4672  C     
5    C        32.9372   -9.0962   -2.3827  C     
6    C        33.6979   -9.4669   -3.5137  C     
7    C        35.1717   -9.6054   -3.4487  C     
8    Cl       30.6703   -8.5842   -1.0594  Cl    
9    Cl       30.8758   -9.9745   -6.2919  Cl    
10   O        29.5145   -9.0461   -3.8132  O     
11   C        29.0389   -7.7177   -4.1203  C     
12   C        27.5022   -7.6959   -3.9633  C     
13   O        26.9986   -6.5062   -3.3216  O     
14   C        26.6554   -6.4954   -1.9875  C     
15   N        27.1565   -5.4663   -1.2597  N     
16   C        26.8469   -5.2353    0.0412  C     
17   C        25.9519   -6.0851    0.7316  C     
18   C        25.4197   -7.1727    0.0030  C     
19   C        25.7435   -7.3664   -1.3517  C     
20   C        25.6496   -5.8789    2.1889  C     
21   C        24.1780   -6.2243    2.5633  C     
22   C        23.9282   -6.0356    4.0797  C     
23   N        24.8894   -6.8451    4.8564  N     
24   C        26.3041   -6.4745    4.6141  C     
25   C        26.6855   -6.6342    3.1093  C     
26   C        28.0770   -6.1966    2.8784  C     
27   N        29.1951   -6.9575    2.8368  N     
28   O        28.1951   -4.9801    2.7825  O     
29   C        29.1347   -8.3778    3.1156  C     
30   C        30.5053   -6.3747    2.5522  C     
31   C        31.3604   -6.0058    3.7259  C     
32   C        32.7626   -5.9091    3.5409  C     
33   C        33.6218   -5.3378    4.5109  C     
34   C        33.0402   -4.8579    5.7042  C     
35   C        31.6686   -5.0046    5.9444  C     
36   C        30.8264   -5.5757    4.9729  C     
37   Cl       29.1883   -5.6478    5.3989  Cl    
38   C        28.5481   -9.2464    1.9844  C     
39   C        29.9903   -9.4688    2.4344  C     
40   C        35.0824   -5.2815    4.2068  C     
41   C        36.0421   -4.3726    5.0343  C     
42   N        35.8728   -4.3612    6.4562  N     
43   C        35.6084   -5.3640    7.2789  C     
44   O        35.3832   -5.0531    8.4397  O     
45   C        35.5521   -6.7683    6.9428  C     
46   H        33.5615  -10.0160   -5.5507  H     
47   H        33.4055   -8.9300   -1.4882  H     
48   H        35.5611   -9.3897   -2.4518  H     
49   H        35.6357   -8.9114   -4.1531  H     
50   H        35.4616  -10.6242   -3.7139  H     
51   H        29.2958   -7.4270   -5.1447  H     
52   H        29.4760   -6.9888   -3.4352  H     
53   H        27.1659   -8.5901   -3.4408  H     
54   H        27.0584   -7.7353   -4.9609  H     
55   H        27.2825   -4.4387    0.5091  H     
56   H        24.7808   -7.8320    0.4509  H     
57   H        25.2952   -8.1268   -1.8585  H     
58   H        25.7358   -4.8086    2.4103  H     
59   H        23.4907   -5.5840    2.0034  H     
60   H        23.9602   -7.2614    2.3103  H     
61   H        22.9201   -6.3662    4.3285  H     
62   H        24.0145   -4.9802    4.3546  H     
63   H        24.6766   -6.7471    5.8536  H     
64   H        24.7555   -7.8241    4.5866  H     
65   H        26.9290   -7.1265    5.2277  H     
66   H        26.4672   -5.4454    4.9463  H     
67   H        26.5884   -7.6962    2.8823  H     
68   H        28.7758   -8.6638    4.1042  H     
69   H        31.0265   -7.0589    1.8804  H     
70   H        30.4356   -5.4623    1.9558  H     
71   H        33.1704   -6.2234    2.6559  H     
72   H        33.5962   -4.3935    6.4190  H     
73   H        31.2858   -4.6638    6.8306  H     
74   H        28.4349   -8.7661    1.0125  H     
75   H        27.8355  -10.0169    2.2869  H     
76   H        30.7276   -9.1891    1.6831  H     
77   H        30.1381  -10.3973    2.9882  H     
78   H        35.4484   -6.3080    4.2554  H     
79   H        35.1871   -4.9638    3.1648  H     
80   H        37.0765   -4.6455    4.8064  H     
81   H        35.9002   -3.3436    4.6934  H     
82   H        35.9080   -3.4831    6.8708  H     
83   H        36.1699   -7.3431    7.6333  H     
84   H        35.9261   -6.9637    5.9410  H     
85   H        34.5192   -7.1163    7.0136  H     
@<TRIPOS>BOND
     1   10   11 1
     2    5    6 2
     3   11   12 1
     4   20   25 1
     5   21   22 1
     6   22   23 1
     7   23   24 1
     8   24   25 1
     9    6    1 1
    10   25   26 1
    11   12   13 1
    12   26   27 am
    13    1    2 2
    14   26   28 2
    15   13   14 1
    16   27   29 1
    17    6    7 1
    18   27   30 1
    19   14   15 2
    20   30   31 1
    21    3    4 2
    22   31   32 2
    23   15   16 1
    24   32   33 1
    25    4    8 1
    26   33   34 2
    27   16   17 2
    28   34   35 1
    29   35   36 2
    30   36   31 1
    31   17   18 1
    32   36   37 1
    33   38   29 1
    34   39   38 1
    35   29   39 1
    36    2    9 1
    37   18   19 2
    38   19   14 1
    39   33   40 1
    40    4    5 1
    41   40   41 1
    42   20   17 1
    43   41   42 1
    44   20   21 1
    45   42   43 am
    46    3   10 1
    47   43   44 2
    48    2    3 1
    49   43   45 1
    50    1   46 1
    51    5   47 1
    52    7   48 1
    53    7   49 1
    54    7   50 1
    55   11   51 1
    56   11   52 1
    57   12   53 1
    58   12   54 1
    59   16   55 1
    60   18   56 1
    61   19   57 1
    62   20   58 1
    63   21   59 1
    64   21   60 1
    65   22   61 1
    66   22   62 1
    67   23   63 1
    68   23   64 1
    69   24   65 1
    70   24   66 1
    71   25   67 1
    72   29   68 1
    73   30   69 1
    74   30   70 1
    75   32   71 1
    76   34   72 1
    77   35   73 1
    78   38   74 1
    79   38   75 1
    80   39   76 1
    81   39   77 1
    82   40   78 1
    83   40   79 1
    84   41   80 1
    85   41   81 1
    86   42   82 1
    87   45   83 1
    88   45   84 1
    89   45   85 1
@<TRIPOS>PROPERTY_DATA
  Total_Score	| 10.5367
  Crash		| -3.3778
  Polar		| 5.2636
  FragIndex	| 1
  FragRMSD	| 1.012

