@<TRIPOS>MOLECULE
BindingDB_50328851
 85 89 0 0 0
SMALL
NO_CHARGES


@<TRIPOS>ATOM
1    C        32.5652   -9.2353   -2.2879  C     
2    C        31.1836   -8.9928   -2.4029  C     
3    C        30.5334   -9.1154   -3.6506  C     
4    C        31.2819   -9.5439   -4.7703  C     
5    C        32.6704   -9.7539   -4.6572  C     
6    C        33.3297   -9.5868   -3.4188  C     
7    C        34.7932   -9.7855   -3.2835  C     
8    Cl       30.5356   -9.8666   -6.2543  Cl    
9    Cl       30.3107   -8.5970   -1.0136  Cl    
10   O        29.1841   -8.8499   -3.7729  O     
11   C        28.8601   -7.4401   -3.7775  C     
12   C        27.3403   -7.2384   -3.9655  C     
13   O        26.5674   -7.7872   -2.8917  O     
14   C        26.4239   -7.1973   -1.6579  C     
15   C        25.8330   -8.0193   -0.6793  C     
16   C        25.6183   -7.5533    0.6265  C     
17   C        25.9710   -6.2302    1.0073  C     
18   C        26.5621   -5.4052    0.0180  C     
19   C        26.7824   -5.8764   -1.2927  C     
20   C        25.7576   -5.7649    2.4275  C     
21   C        24.2254   -5.6474    2.7692  C     
22   C        23.8294   -5.9165    4.2458  C     
23   N        24.6139   -7.0112    4.8549  N     
24   C        26.0515   -6.7065    4.8791  C     
25   C        26.6426   -6.6042    3.4418  C     
26   C        28.0262   -6.0789    3.5192  C     
27   N        29.1859   -6.7608    3.3874  N     
28   O        28.0805   -4.8773    3.7905  O     
29   C        29.1659   -8.1929    3.1563  C     
30   C        30.4763   -6.0834    3.5147  C     
31   C        31.5910   -6.8629    4.1333  C     
32   C        30.1456   -8.8928    2.1891  C     
33   C        28.7011   -8.6376    1.7564  C     
34   C        31.3186   -7.5420    5.3431  C     
35   C        32.2662   -8.3818    5.9604  C     
36   C        33.5333   -8.5142    5.3590  C     
37   C        33.8511   -7.7910    4.1970  C     
38   C        32.8905   -6.9725    3.5743  C     
39   Cl       33.3741   -6.1618    2.1647  Cl    
40   C        31.9156   -9.0875    7.2244  C     
41   C        30.9827  -10.3053    6.9963  C     
42   N        30.3045  -10.7352    8.2432  N     
43   C        31.0934  -11.5688    9.1772  C     
44   H        33.0218   -9.1382   -1.3773  H     
45   H        33.2023  -10.0376   -5.4848  H     
46   H        34.9995  -10.6013   -2.5940  H     
47   H        35.2441   -8.8757   -2.8981  H     
48   H        35.2625  -10.0205   -4.2377  H     
49   H        29.3729   -6.9401   -4.6057  H     
50   H        29.1664   -6.9590   -2.8437  H     
51   H        27.1134   -6.1828   -4.1142  H     
52   H        27.0460   -7.7647   -4.8747  H     
53   H        25.5539   -8.9731   -0.9176  H     
54   H        25.1971   -8.1894    1.3078  H     
55   H        26.8394   -4.4431    0.2528  H     
56   H        27.2117   -5.2482   -1.9711  H     
57   H        26.1034   -4.7285    2.4796  H     
58   H        23.6002   -6.2709    2.1122  H     
59   H        23.9265   -4.6092    2.5405  H     
60   H        22.7689   -6.1668    4.2924  H     
61   H        23.9655   -4.9993    4.8264  H     
62   H        24.4761   -7.8745    4.3247  H     
63   H        24.3118   -7.1617    5.8226  H     
64   H        26.5455   -7.5249    5.4133  H     
65   H        26.2182   -5.7845    5.4486  H     
66   H        26.6541   -7.6400    3.0855  H     
67   H        28.8031   -8.8276    3.9711  H     
68   H        30.4048   -5.1944    4.1429  H     
69   H        30.7362   -5.7183    2.5167  H     
70   H        30.8919   -8.2804    1.6890  H     
71   H        30.3944   -9.9269    2.4353  H     
72   H        28.5456   -7.8221    1.0463  H     
73   H        28.0483   -9.5085    1.7274  H     
74   H        30.3952   -7.4372    5.7753  H     
75   H        34.2420   -9.1274    5.7781  H     
76   H        34.7950   -7.8793    3.7996  H     
77   H        31.4275   -8.3699    7.8994  H     
78   H        32.8179   -9.4378    7.7309  H     
79   H        31.5458  -11.1378    6.5681  H     
80   H        30.1954  -10.0478    6.2875  H     
81   H        30.0151   -9.8916    8.7545  H     
82   H        29.4508  -11.2488    8.0051  H     
83   H        31.4603  -12.4672    8.6731  H     
84   H        30.4413  -11.8743   10.0030  H     
85   H        31.9345  -11.0015    9.5777  H     
@<TRIPOS>BOND
     1    3   10 1
     2    2    3 1
     3   10   11 1
     4    5    6 2
     5   11   12 1
     6   20   25 1
     7   21   22 1
     8   22   23 1
     9   23   24 1
    10   24   25 1
    11    6    1 1
    12   25   26 1
    13   12   13 1
    14   26   27 am
    15    1    2 2
    16   26   28 2
    17   13   14 1
    18   27   29 1
    19    6    7 1
    20   27   30 1
    21   14   15 2
    22   30   31 1
    23   32   29 1
    24   33   32 1
    25   29   33 1
    26    3    4 2
    27   15   16 1
    28    4    8 1
    29   31   34 2
    30   16   17 2
    31   34   35 1
    32   35   36 2
    33   17   18 1
    34   36   37 1
    35    2    9 1
    36   37   38 2
    37   38   31 1
    38   18   19 2
    39   38   39 1
    40   19   14 1
    41   35   40 1
    42    4    5 1
    43   40   41 1
    44   20   17 1
    45   41   42 1
    46   20   21 1
    47   42   43 1
    48    1   44 1
    49    5   45 1
    50    7   46 1
    51    7   47 1
    52    7   48 1
    53   11   49 1
    54   11   50 1
    55   12   51 1
    56   12   52 1
    57   15   53 1
    58   16   54 1
    59   18   55 1
    60   19   56 1
    61   20   57 1
    62   21   58 1
    63   21   59 1
    64   22   60 1
    65   22   61 1
    66   23   62 1
    67   23   63 1
    68   24   64 1
    69   24   65 1
    70   25   66 1
    71   29   67 1
    72   30   68 1
    73   30   69 1
    74   32   70 1
    75   32   71 1
    76   33   72 1
    77   33   73 1
    78   34   74 1
    79   36   75 1
    80   37   76 1
    81   40   77 1
    82   40   78 1
    83   41   79 1
    84   41   80 1
    85   42   81 1
    86   42   82 1
    87   43   83 1
    88   43   84 1
    89   43   85 1
@<TRIPOS>PROPERTY_DATA
  Total_Score	| 14.3190
  Crash		| -3.5556
  Polar		| 5.4748
  FragIndex	| 1
  FragRMSD	| 0.781

