@<TRIPOS>MOLECULE
BindingDB_50328910
 86 90 0 0 0
SMALL
NO_CHARGES


@<TRIPOS>ATOM
1    C        31.3162   -8.3077    4.2402  C     
2    C        31.5085   -7.4405    3.1463  C     
3    C        32.4351   -6.3792    3.2451  C     
4    C        33.0230   -6.0820    4.4963  C     
5    C        32.8372   -6.9615    5.5883  C     
6    C        32.0074   -8.0984    5.4625  C     
7    C        31.8382   -8.9961    6.6257  C     
8    Cl       33.9349   -4.6773    4.7260  Cl    
9    Cl       30.6528   -7.6851    1.7013  Cl    
10   O        32.7945   -5.6231    2.1637  O     
11   C        33.8407   -6.2026    1.3436  C     
12   C        35.2650   -5.8675    1.8455  C     
13   O        35.7116   -6.7864    2.8726  O     
14   C        36.1774   -6.2792    4.0518  C     
15   N        35.7210   -6.8365    5.2044  N     
16   C        36.1480   -6.4433    6.4322  C     
17   C        37.1368   -5.4399    6.5704  C     
18   C        37.6211   -4.8425    5.3858  C     
19   C        37.1515   -5.2590    4.1271  C     
20   C        37.6280   -5.0301    7.9271  C     
21   C        39.1812   -5.0478    8.0040  C     
22   C        39.6806   -4.6516    9.4159  C     
23   N        39.0720   -3.3871    9.8827  N     
24   C        37.5887   -3.3627    9.8551  C     
25   C        37.0413   -3.6584    8.4176  C     
26   C        35.5678   -3.5632    8.4159  C     
27   N        34.8575   -2.4254    8.1812  N     
28   O        34.9802   -4.5869    8.7516  O     
29   C        33.3962   -2.4833    8.2851  C     
30   C        35.5040   -1.2301    7.6321  C     
31   C        34.8371    0.0943    7.7953  C     
32   C        34.0063    0.5565    6.7453  C     
33   C        33.1807    1.6897    6.9067  C     
34   N        33.2717    2.4063    8.0733  N     
35   C        34.1291    2.0311    9.0716  C     
36   C        34.9192    0.8727    8.9753  C     
37   Cl       35.8850    0.4789   10.3189  Cl    
38   C        32.7632   -3.2771    9.4583  C     
39   C        32.6785   -1.7654    9.4538  C     
40   C        32.1469    1.9544    5.8627  C     
41   C        30.8221    1.1953    6.1629  C     
42   C        30.2360    0.4615    4.9219  C     
43   O        31.1923   -0.3303    4.1859  O     
44   C        31.6446   -1.5208    4.8531  C     
45   O        32.5032    3.4532    8.2619  O     
46   H        30.6635   -9.0868    4.1479  H     
47   H        33.3045   -6.7732    6.4941  H     
48   H        31.4401   -8.4227    7.4699  H     
49   H        32.8054   -9.4141    6.9069  H     
50   H        31.1498   -9.8186    6.4166  H     
51   H        33.7538   -7.2918    1.2192  H     
52   H        33.7207   -5.7617    0.3502  H     
53   H        35.3283   -4.8099    2.1166  H     
54   H        35.9601   -6.0210    0.9984  H     
55   H        35.7298   -6.8782    7.2573  H     
56   H        38.3346   -4.1155    5.4179  H     
57   H        37.5228   -4.8282    3.2787  H     
58   H        37.3064   -5.7824    8.6489  H     
59   H        39.6074   -4.3515    7.2766  H     
60   H        39.5518   -6.0490    7.7692  H     
61   H        39.4449   -5.4452   10.1265  H     
62   H        40.7660   -4.5187    9.3937  H     
63   H        39.3857   -3.2104   10.8414  H     
64   H        39.4120   -2.6357    9.2801  H     
65   H        37.2054   -4.0853   10.5815  H     
66   H        37.2794   -2.3773   10.2015  H     
67   H        37.4536   -2.9092    7.7391  H     
68   H        32.7992   -2.5919    7.3710  H     
69   H        35.6560   -1.3995    6.5571  H     
70   H        36.5096   -1.1566    8.0436  H     
71   H        33.9728    0.0343    5.8736  H     
72   H        34.1711    2.5859    9.9298  H     
73   H        31.8182   -3.7881    9.2569  H     
74   H        33.4512   -3.6896   10.2048  H     
75   H        31.6827   -1.3535    9.2479  H     
76   H        33.3048   -1.2894   10.2098  H     
77   H        32.5572    1.6746    4.8857  H     
78   H        31.9290    3.0208    5.7914  H     
79   H        30.0860    1.9047    6.5514  H     
80   H        30.9748    0.4455    6.9499  H     
81   H        29.4005   -0.1690    5.2474  H     
82   H        29.8399    1.2074    4.2362  H     
83   H        32.1996   -1.2710    5.7636  H     
84   H        32.3192   -2.0489    4.1753  H     
85   H        30.8046   -2.1805    5.0920  H     
86   H        32.2207    3.4341    9.2085  H     
@<TRIPOS>BOND
     1   10   11 1
     2    5    6 2
     3   11   12 1
     4   20   25 1
     5   21   22 1
     6   22   23 1
     7   23   24 1
     8   24   25 1
     9    6    1 1
    10   25   26 1
    11   12   13 1
    12   26   27 am
    13    1    2 2
    14   26   28 2
    15   13   14 1
    16   27   29 1
    17    6    7 1
    18   27   30 1
    19   14   15 2
    20   30   31 1
    21    3    4 2
    22   31   32 2
    23   15   16 1
    24   32   33 1
    25    4    8 1
    26   33   34 2
    27   16   17 2
    28   34   35 1
    29   35   36 2
    30   36   31 1
    31   17   18 1
    32   36   37 1
    33   38   29 1
    34   39   38 1
    35   29   39 1
    36    2    9 1
    37   18   19 2
    38   19   14 1
    39   33   40 1
    40    4    5 1
    41   40   41 1
    42   20   17 1
    43   41   42 1
    44   20   21 1
    45   42   43 1
    46    3   10 1
    47   43   44 1
    48    2    3 1
    49   34   45 1
    50    1   46 1
    51    5   47 1
    52    7   48 1
    53    7   49 1
    54    7   50 1
    55   11   51 1
    56   11   52 1
    57   12   53 1
    58   12   54 1
    59   16   55 1
    60   18   56 1
    61   19   57 1
    62   20   58 1
    63   21   59 1
    64   21   60 1
    65   22   61 1
    66   22   62 1
    67   23   63 1
    68   23   64 1
    69   24   65 1
    70   24   66 1
    71   25   67 1
    72   29   68 1
    73   30   69 1
    74   30   70 1
    75   32   71 1
    76   35   72 1
    77   38   73 1
    78   38   74 1
    79   39   75 1
    80   39   76 1
    81   40   77 1
    82   40   78 1
    83   41   79 1
    84   41   80 1
    85   42   81 1
    86   42   82 1
    87   44   83 1
    88   44   84 1
    89   44   85 1
    90   45   86 1
@<TRIPOS>PROPERTY_DATA
  Total_Score	| 2.8846
  Crash		| -4.0310
  Polar		| 2.1201
  FragIndex	| 1
  FragRMSD	| 0.785

