@<TRIPOS>MOLECULE
BindingDB_50328852
 83 87 0 0 0
SMALL
NO_CHARGES


@<TRIPOS>ATOM
1    C        32.9019   -8.9688   -2.4556  C     
2    C        31.4928   -8.8702   -2.4013  C     
3    C        30.7069   -9.0513   -3.5654  C     
4    C        31.3547   -9.4918   -4.7507  C     
5    C        32.7598   -9.6243   -4.7838  C     
6    C        33.5541   -9.3307   -3.6551  C     
7    C        35.0306   -9.4618   -3.7318  C     
8    Cl       30.5064   -9.9627   -6.1292  Cl    
9    Cl       30.7661   -8.6501   -0.8906  Cl    
10   O        29.3343   -9.0088   -3.4441  O     
11   C        28.5661   -8.1082   -4.2876  C     
12   C        28.4972   -6.6100   -3.8759  C     
13   O        28.7182   -6.2938   -2.4946  O     
14   C        27.7064   -6.3615   -1.5746  C     
15   C        27.4373   -5.1943   -0.8303  C     
16   C        26.6392   -5.2526    0.3289  C     
17   C        26.1068   -6.4837    0.7841  C     
18   C        26.2892   -7.6248   -0.0348  C     
19   C        27.0865   -7.5694   -1.1907  C     
20   C        25.4910   -6.6462    2.1417  C     
21   C        24.5098   -5.5131    2.5697  C     
22   C        23.7485   -5.9161    3.8674  C     
23   N        24.4938   -6.8510    4.7544  N     
24   C        25.9589   -6.6862    4.7207  C     
25   C        26.5309   -6.9934    3.2905  C     
26   C        27.8706   -6.3881    3.1517  C     
27   N        29.0598   -7.0249    3.0133  N     
28   O        27.8463   -5.1619    3.1857  O     
29   C        29.1233   -8.4785    2.9958  C     
30   C        30.3117   -6.2612    2.9449  C     
31   C        31.5265   -6.8342    3.6057  C     
32   C        30.1703   -9.3032    2.2173  C     
33   C        28.7465   -9.1789    1.6717  C     
34   C        31.3660   -7.5126    4.8402  C     
35   C        32.4416   -8.1742    5.4703  C     
36   C        33.7292   -8.0574    4.8999  C     
37   C        33.9302   -7.3092    3.7272  C     
38   C        32.8389   -6.7131    3.0649  C     
39   Cl       33.1977   -5.8493    1.6422  Cl    
40   C        32.2112   -9.0417    6.6549  C     
41   C        31.9674  -10.5163    6.2293  C     
42   O        31.9072  -11.4293    7.3431  O     
43   C        30.6631  -11.4881    8.0617  C     
44   H        33.4530   -8.8192   -1.6055  H     
45   H        33.2085   -9.9771   -5.6330  H     
46   H        35.4118   -8.8635   -4.5709  H     
47   H        35.5230   -9.1126   -2.8160  H     
48   H        35.3035  -10.5108   -3.8951  H     
49   H        28.8870   -8.1659   -5.3388  H     
50   H        27.5481   -8.5051   -4.2592  H     
51   H        29.2942   -6.0873   -4.4120  H     
52   H        27.5426   -6.1843   -4.2185  H     
53   H        27.8731   -4.3083   -1.0934  H     
54   H        26.5130   -4.3977    0.8731  H     
55   H        25.9175   -8.5367    0.2478  H     
56   H        27.2673   -8.4309   -1.7011  H     
57   H        24.8245   -7.5144    2.0587  H     
58   H        23.7895   -5.3103    1.7707  H     
59   H        25.0694   -4.5954    2.7614  H     
60   H        23.4993   -5.0146    4.4350  H     
61   H        22.8113   -6.4073    3.6008  H     
62   H        24.1602   -6.7332    5.7159  H     
63   H        24.3058   -7.8137    4.4601  H     
64   H        26.1871   -5.6653    5.0442  H     
65   H        26.4019   -7.3674    5.4556  H     
66   H        26.6252   -8.0784    3.2550  H     
67   H        28.7411   -8.9937    3.8850  H     
68   H        30.4908   -6.0739    1.8811  H     
69   H        30.2109   -5.2766    3.4164  H     
70   H        30.9305   -8.7529    1.6654  H     
71   H        30.4239  -10.2768    2.6449  H     
72   H        28.6861   -8.5704    0.7705  H     
73   H        28.1496  -10.0942    1.7403  H     
74   H        30.4353   -7.5740    5.2620  H     
75   H        34.5294   -8.5244    5.3308  H     
76   H        34.8776   -7.2251    3.3481  H     
77   H        33.0793   -8.9960    7.3188  H     
78   H        31.3531   -8.6767    7.2296  H     
79   H        32.8118  -10.8465    5.6146  H     
80   H        31.0673  -10.5893    5.6096  H     
81   H        30.4195  -10.5275    8.5253  H     
82   H        30.7633  -12.2343    8.8519  H     
83   H        29.8487  -11.7948    7.3995  H     
@<TRIPOS>BOND
     1    3   10 1
     2    2    3 1
     3   10   11 1
     4    5    6 2
     5   11   12 1
     6   20   25 1
     7   21   22 1
     8   22   23 1
     9   23   24 1
    10   24   25 1
    11    6    1 1
    12   25   26 1
    13   12   13 1
    14   26   27 am
    15    1    2 2
    16   26   28 2
    17   13   14 1
    18   27   29 1
    19    6    7 1
    20   27   30 1
    21   14   15 2
    22   30   31 1
    23   32   29 1
    24   33   32 1
    25   29   33 1
    26    3    4 2
    27   15   16 1
    28    4    8 1
    29   31   34 2
    30   16   17 2
    31   34   35 1
    32   35   36 2
    33   17   18 1
    34   36   37 1
    35    2    9 1
    36   37   38 2
    37   38   31 1
    38   18   19 2
    39   38   39 1
    40   19   14 1
    41   35   40 1
    42    4    5 1
    43   40   41 1
    44   20   17 1
    45   41   42 1
    46   20   21 1
    47   42   43 1
    48    1   44 1
    49    5   45 1
    50    7   46 1
    51    7   47 1
    52    7   48 1
    53   11   49 1
    54   11   50 1
    55   12   51 1
    56   12   52 1
    57   15   53 1
    58   16   54 1
    59   18   55 1
    60   19   56 1
    61   20   57 1
    62   21   58 1
    63   21   59 1
    64   22   60 1
    65   22   61 1
    66   23   62 1
    67   23   63 1
    68   24   64 1
    69   24   65 1
    70   25   66 1
    71   29   67 1
    72   30   68 1
    73   30   69 1
    74   32   70 1
    75   32   71 1
    76   33   72 1
    77   33   73 1
    78   34   74 1
    79   36   75 1
    80   37   76 1
    81   40   77 1
    82   40   78 1
    83   41   79 1
    84   41   80 1
    85   43   81 1
    86   43   82 1
    87   43   83 1
@<TRIPOS>PROPERTY_DATA
  Total_Score	| 14.0095
  Crash		| -3.4759
  Polar		| 5.2132
  FragIndex	| 1
  FragRMSD	| 0.582

