@<TRIPOS>MOLECULE
BindingDB_50328847
 89 94 0 0 0
SMALL
NO_CHARGES


@<TRIPOS>ATOM
1    C        33.0675   -9.1643   -2.4005  C     
2    C        31.6706   -9.0180   -2.3873  C     
3    C        30.9302   -9.2196   -3.5856  C     
4    C        31.6129   -9.5579   -4.7649  C     
5    C        32.9961   -9.7598   -4.7592  C     
6    C        33.7409   -9.5634   -3.5746  C     
7    C        35.2140   -9.7449   -3.5406  C     
8    Cl       30.7336   -9.7248   -6.2087  Cl    
9    Cl       30.9233   -8.5872   -0.9297  Cl    
10   O        29.5573   -9.3084   -3.5896  O     
11   C        28.7428   -8.1586   -3.8420  C     
12   C        29.1889   -6.8254   -3.1992  C     
13   O        28.0903   -5.9859   -2.7881  O     
14   C        27.5451   -6.1062   -1.5281  C     
15   C        27.1193   -4.9363   -0.8668  C     
16   C        26.5494   -4.9906    0.4216  C     
17   C        26.3491   -6.2177    1.0916  C     
18   C        26.6590   -7.3755    0.3447  C     
19   C        27.3393   -7.3365   -0.8634  C     
20   C        25.7628   -6.2817    2.4797  C     
21   C        25.3748   -4.8711    3.0591  C     
22   C        24.6904   -4.9505    4.4498  C     
23   N        25.4423   -5.7865    5.4019  N     
24   C        25.7847   -7.1341    4.8974  C     
25   C        26.5924   -7.0982    3.5616  C     
26   C        28.0019   -6.6498    3.7294  C     
27   N        29.1144   -7.0853    3.0766  N     
28   O        28.1313   -5.7255    4.5188  O     
29   C        29.3339   -8.3897    2.4221  C     
30   C        30.2567   -6.1685    2.9008  C     
31   C        31.5655   -6.6543    3.4208  C     
32   C        29.7960   -9.5123    3.3687  C     
33   C        28.6063   -9.7644    2.4147  C     
34   C        31.6168   -7.3388    4.6578  C     
35   C        32.8029   -7.9282    5.1498  C     
36   C        33.9953   -7.7283    4.4190  C     
37   C        33.9887   -6.9984    3.2177  C     
38   C        32.7832   -6.4688    2.7112  C     
39   Cl       32.8860   -5.6326    1.2382  Cl    
40   C        32.8325   -8.7669    6.3811  C     
41   C        31.6452   -9.7422    6.5974  C     
42   N        31.0514   -9.5706    7.9350  N     
43   C        30.2665  -10.7421    8.3691  C     
44   C        30.4851  -12.0775    7.6441  C     
45   C        31.0854  -11.8471    9.0369  C     
46   H        33.6068   -9.0074   -1.5415  H     
47   H        33.4702  -10.0468   -5.6166  H     
48   H        35.6911   -8.7978   -3.2619  H     
49   H        35.6230  -10.0717   -4.5024  H     
50   H        35.4708  -10.4984   -2.7902  H     
51   H        27.7367   -8.4098   -3.5067  H     
52   H        28.6889   -8.0241   -4.9297  H     
53   H        29.8483   -7.0644   -2.3549  H     
54   H        29.7763   -6.2706   -3.9377  H     
55   H        27.2237   -4.0307   -1.3245  H     
56   H        26.2770   -4.1024    0.8517  H     
57   H        26.3616   -8.2823    0.6480  H     
58   H        27.6179   -8.2313   -1.2749  H     
59   H        24.8094   -6.8145    2.3570  H     
60   H        26.2623   -4.2344    3.1411  H     
61   H        24.6775   -4.3473    2.3947  H     
62   H        23.6781   -5.3444    4.3421  H     
63   H        24.6107   -3.9445    4.8679  H     
64   H        26.2981   -5.2947    5.6601  H     
65   H        24.8712   -5.9082    6.2364  H     
66   H        26.3564   -7.6601    5.6643  H     
67   H        24.8587   -7.6958    4.7468  H     
68   H        26.5838   -8.1189    3.2215  H     
69   H        29.9658   -8.3620    1.5305  H     
70   H        30.3368   -5.9920    1.8265  H     
71   H        30.1001   -5.1765    3.3294  H     
72   H        29.5445   -9.3258    4.4136  H     
73   H        30.7601   -9.9696    3.1088  H     
74   H        28.8828  -10.4781    1.6196  H     
75   H        27.7332  -10.0255    3.0143  H     
76   H        30.7612   -7.4228    5.1967  H     
77   H        34.8835   -8.1306    4.7442  H     
78   H        34.8658   -6.8764    2.7034  H     
79   H        33.7409   -9.3782    6.3399  H     
80   H        32.9183   -8.1048    7.2440  H     
81   H        30.8711   -9.5790    5.8440  H     
82   H        32.0378  -10.7527    6.4904  H     
83   H        31.7984   -9.3895    8.5985  H     
84   H        30.4460   -8.7555    7.9175  H     
85   H        29.2715  -10.5998    8.7845  H     
86   H        29.6257  -12.7471    7.6055  H     
87   H        31.1848  -12.0614    6.8081  H     
88   H        30.5905  -12.3359    9.8772  H     
89   H        32.1604  -11.6863    9.0646  H     
@<TRIPOS>BOND
     1   10   11 1
     2    5    6 2
     3   11   12 1
     4   20   25 1
     5   21   22 1
     6   22   23 1
     7   23   24 1
     8   24   25 1
     9    6    1 1
    10   25   26 1
    11   12   13 1
    12   26   27 am
    13    1    2 2
    14   26   28 2
    15   13   14 1
    16   27   29 1
    17    6    7 1
    18   27   30 1
    19   14   15 2
    20   30   31 1
    21   32   29 1
    22   33   32 1
    23   29   33 1
    24    3    4 2
    25   15   16 1
    26    4    8 1
    27   31   34 2
    28   16   17 2
    29   34   35 1
    30   35   36 2
    31   17   18 1
    32   36   37 1
    33    2    9 1
    34   37   38 2
    35   38   31 1
    36   18   19 2
    37   38   39 1
    38   19   14 1
    39   35   40 1
    40    4    5 1
    41   40   41 1
    42   20   17 1
    43   41   42 1
    44   20   21 1
    45   42   43 1
    46   44   43 1
    47   45   44 1
    48   43   45 1
    49    3   10 1
    50    2    3 1
    51    1   46 1
    52    5   47 1
    53    7   48 1
    54    7   49 1
    55    7   50 1
    56   11   51 1
    57   11   52 1
    58   12   53 1
    59   12   54 1
    60   15   55 1
    61   16   56 1
    62   18   57 1
    63   19   58 1
    64   20   59 1
    65   21   60 1
    66   21   61 1
    67   22   62 1
    68   22   63 1
    69   23   64 1
    70   23   65 1
    71   24   66 1
    72   24   67 1
    73   25   68 1
    74   29   69 1
    75   30   70 1
    76   30   71 1
    77   32   72 1
    78   32   73 1
    79   33   74 1
    80   33   75 1
    81   34   76 1
    82   36   77 1
    83   37   78 1
    84   40   79 1
    85   40   80 1
    86   41   81 1
    87   41   82 1
    88   42   83 1
    89   42   84 1
    90   43   85 1
    91   44   86 1
    92   44   87 1
    93   45   88 1
    94   45   89 1
@<TRIPOS>PROPERTY_DATA
  Total_Score	| 12.1681
  Crash		| -5.4299
  Polar		| 1.8146
  FragIndex	| 1
  FragRMSD	| 0.647

