@<TRIPOS>MOLECULE
BindingDB_50328907
 85 89 0 0 0
SMALL
NO_CHARGES


@<TRIPOS>ATOM
1    C        32.7517   -9.2135   -2.3798  C     
2    C        31.3607   -9.0617   -2.5166  C     
3    C        30.7487   -9.2290   -3.7829  C     
4    C        31.5420   -9.6257   -4.8891  C     
5    C        32.9323   -9.7688   -4.7455  C     
6    C        33.5532   -9.5632   -3.4903  C     
7    C        35.0126   -9.7480   -3.3135  C     
8    Cl       30.8535   -9.9827   -6.3939  Cl    
9    Cl       30.4356   -8.7150   -1.1348  Cl    
10   O        29.3948   -9.0762   -3.9374  O     
11   C        28.9957   -7.7566   -4.3855  C     
12   C        27.4837   -7.5992   -4.1264  C     
13   O        27.1430   -6.3394   -3.5154  O     
14   C        26.9272   -6.3367   -2.1599  C     
15   N        27.5780   -5.4176   -1.4104  N     
16   C        27.3699   -5.2664   -0.0754  C     
17   C        26.4308   -6.0665    0.6173  C     
18   C        25.7293   -7.0221   -0.1570  C     
19   C        25.9695   -7.1571   -1.5362  C     
20   C        26.1946   -5.8252    2.0861  C     
21   C        25.1274   -6.7393    2.7844  C     
22   C        24.8171   -6.2666    4.2297  C     
23   N        26.0004   -5.8039    4.9912  N     
24   C        27.3188   -6.2177    4.4523  C     
25   C        27.4959   -5.6978    2.9856  C     
26   C        28.7964   -6.1557    2.4269  C     
27   N        29.2632   -7.4193    2.2647  N     
28   O        29.5563   -5.2287    2.1484  O     
29   C        28.3593   -8.5614    2.2690  C     
30   C        30.6965   -7.6311    2.0108  C     
31   C        31.6135   -7.1433    3.0942  C     
32   C        31.1856   -7.2301    4.4430  C     
33   C        31.9772   -6.7604    5.5144  C     
34   C        33.2487   -6.2171    5.2280  C     
35   C        33.7087   -6.1407    3.9037  C     
36   C        32.8997   -6.5862    2.8382  C     
37   Cl       33.5615   -6.4381    1.2849  Cl    
38   C        28.7113  -10.0612    2.1714  C     
39   C        28.3466   -9.4508    3.5194  C     
40   C        31.4729   -6.8379    6.9024  C     
41   N        31.8289   -8.0891    7.4987  N     
42   C        31.3085   -9.2785    7.2060  C     
43   O        30.5019   -9.3998    6.2919  O     
44   C        31.7402  -10.4392    7.9672  C     
45   C        30.6235  -11.3954    8.4795  C     
46   F        29.9564  -11.9886    7.4311  F     
47   F        29.7169  -10.7423    9.2827  F     
48   F        31.1726  -12.3988    9.2368  F     
49   H        33.1777   -9.0890   -1.4578  H     
50   H        33.5015  -10.0347   -5.5565  H     
51   H        35.1798  -10.5294   -2.5705  H     
52   H        35.4795   -8.8218   -2.9668  H     
53   H        35.5009  -10.0627   -4.2353  H     
54   H        29.5380   -6.9851   -3.8255  H     
55   H        29.1906   -7.6184   -5.4575  H     
56   H        27.1215   -8.4424   -3.5297  H     
57   H        26.9722   -7.6398   -5.0912  H     
58   H        27.9148   -4.5533    0.4108  H     
59   H        25.0251   -7.6241    0.2667  H     
60   H        25.4308   -7.8314   -2.0876  H     
61   H        25.7032   -4.8409    2.1002  H     
62   H        25.5201   -7.7538    2.8686  H     
63   H        24.1981   -6.7799    2.2072  H     
64   H        24.1159   -5.4366    4.1766  H     
65   H        24.3364   -7.0768    4.7814  H     
66   H        25.9833   -4.7857    5.0037  H     
67   H        25.9242   -6.1301    5.9541  H     
68   H        28.1050   -5.8071    5.0952  H     
69   H        27.3889   -7.3005    4.5154  H     
70   H        27.5849   -4.6102    3.1446  H     
71   H        27.3643   -8.4140    1.8549  H     
72   H        30.9602   -8.6779    1.8877  H     
73   H        30.9184   -7.1554    1.0527  H     
74   H        30.2650   -7.6178    4.6564  H     
75   H        33.8448   -5.8600    5.9802  H     
76   H        34.6397   -5.7562    3.7241  H     
77   H        29.7393  -10.3630    2.0406  H     
78   H        27.9282  -10.6971    1.7573  H     
79   H        27.3624   -9.7271    3.8986  H     
80   H        29.1789   -9.3932    4.2249  H     
81   H        31.9066   -6.0471    7.5143  H     
82   H        30.3934   -6.6708    6.9106  H     
83   H        32.4746   -8.0592    8.2252  H     
84   H        32.4124  -11.0231    7.3329  H     
85   H        32.3092  -10.0901    8.8350  H     
@<TRIPOS>BOND
     1   20   25 1
     2   21   22 1
     3   22   23 1
     4   23   24 1
     5   24   25 1
     6    6    1 1
     7   25   26 1
     8   12   13 1
     9   26   27 am
    10    1    2 2
    11   26   28 2
    12   13   14 1
    13   27   29 1
    14    6    7 1
    15   27   30 1
    16   14   15 2
    17   30   31 1
    18    3    4 2
    19   31   32 2
    20   15   16 1
    21   32   33 1
    22    4    8 1
    23   33   34 2
    24   16   17 2
    25   34   35 1
    26   35   36 2
    27   36   31 1
    28   17   18 1
    29   36   37 1
    30   38   29 1
    31   39   38 1
    32   29   39 1
    33    2    9 1
    34   18   19 2
    35   19   14 1
    36   33   40 1
    37    4    5 1
    38   40   41 1
    39   20   17 1
    40   41   42 am
    41   20   21 1
    42   42   43 2
    43    3   10 1
    44   42   44 1
    45    2    3 1
    46   44   45 1
    47   10   11 1
    48    5    6 2
    49   11   12 1
    50   45   46 1
    51   45   47 1
    52   45   48 1
    53    1   49 1
    54    5   50 1
    55    7   51 1
    56    7   52 1
    57    7   53 1
    58   11   54 1
    59   11   55 1
    60   12   56 1
    61   12   57 1
    62   16   58 1
    63   18   59 1
    64   19   60 1
    65   20   61 1
    66   21   62 1
    67   21   63 1
    68   22   64 1
    69   22   65 1
    70   23   66 1
    71   23   67 1
    72   24   68 1
    73   24   69 1
    74   25   70 1
    75   29   71 1
    76   30   72 1
    77   30   73 1
    78   32   74 1
    79   34   75 1
    80   35   76 1
    81   38   77 1
    82   38   78 1
    83   39   79 1
    84   39   80 1
    85   40   81 1
    86   40   82 1
    87   41   83 1
    88   44   84 1
    89   44   85 1
@<TRIPOS>PROPERTY_DATA
  Total_Score	| 9.0514
  Crash		| -4.5365
  Polar		| 1.3637
  FragIndex	| 1
  FragRMSD	| 1.142

