@<TRIPOS>MOLECULE
BindingDB_50328848
 88 92 0 0 0
SMALL
NO_CHARGES


@<TRIPOS>ATOM
1    C        32.4771   -9.8716   -4.1899  C     
2    C        31.1224   -9.6837   -4.5382  C     
3    C        30.2161   -9.1472   -3.5909  C     
4    C        30.6726   -8.8607   -2.2860  C     
5    C        32.0248   -9.0622   -1.9452  C     
6    C        32.9440   -9.5636   -2.8937  C     
7    C        34.3582   -9.7682   -2.5070  C     
8    Cl       29.6132   -8.3137   -1.0819  Cl    
9    Cl       30.6110  -10.1566   -6.0863  Cl    
10   O        28.8879   -8.9964   -3.8879  O     
11   C        28.5008   -7.7971   -4.5946  C     
12   C        27.3077   -7.1634   -3.8449  C     
13   O        27.8212   -6.3813   -2.7420  O     
14   C        27.1117   -6.2920   -1.5671  C     
15   C        26.6121   -7.4080   -0.8663  C     
16   C        26.1590   -7.2754    0.4611  C     
17   C        26.1297   -6.0175    1.1065  C     
18   C        26.5269   -4.8855    0.3525  C     
19   C        27.0358   -5.0237   -0.9536  C     
20   C        25.7084   -5.9015    2.5431  C     
21   C        24.1630   -6.1376    2.6920  C     
22   C        23.7073   -6.6108    4.0996  C     
23   N        24.6679   -6.2343    5.1431  N     
24   C        26.0042   -6.8425    4.9788  C     
25   C        26.5583   -6.8228    3.5024  C     
26   C        27.9906   -6.4828    3.5323  C     
27   N        29.0082   -7.3430    3.3511  N     
28   O        28.2326   -5.3154    3.8670  O     
29   C        28.8537   -8.4994    2.4887  C     
30   C        30.3015   -7.0994    3.9932  C     
31   C        31.4193   -6.6369    3.1150  C     
32   C        29.8369   -9.6859    2.4335  C     
33   C        28.4854   -9.8463    3.1371  C     
34   C        32.7345   -7.0623    3.4410  C     
35   C        33.8715   -6.5762    2.7583  C     
36   C        33.6880   -5.6572    1.7045  C     
37   C        32.3962   -5.2306    1.3529  C     
38   C        31.2660   -5.6844    2.0680  C     
39   Cl       29.7691   -5.0056    1.6429  Cl    
40   C        35.2333   -6.9299    3.2402  C     
41   C        35.7440   -5.9266    4.3108  C     
42   N        36.9596   -5.2009    3.8482  N     
43   C        37.5718   -4.2571    4.8087  C     
44   C        38.4075   -4.9535    5.9178  C     
45   H        33.1279  -10.2457   -4.8913  H     
46   H        32.3433   -8.8459   -0.9977  H     
47   H        34.4163  -10.4529   -1.6540  H     
48   H        34.7957   -8.8120   -2.2187  H     
49   H        34.9576  -10.1917   -3.3183  H     
50   H        29.2953   -7.0500   -4.6920  H     
51   H        28.1709   -8.0723   -5.5941  H     
52   H        26.7358   -6.4959   -4.5252  H     
53   H        26.6588   -7.9686   -3.5023  H     
54   H        26.5972   -8.3329   -1.2963  H     
55   H        25.8720   -8.1211    0.9660  H     
56   H        26.5051   -3.9576    0.7592  H     
57   H        27.3771   -4.2033   -1.4599  H     
58   H        25.8809   -4.8703    2.8710  H     
59   H        23.8052   -6.8747    1.9727  H     
60   H        23.6562   -5.1969    2.4498  H     
61   H        22.7435   -6.1584    4.3435  H     
62   H        23.5781   -7.6954    4.1118  H     
63   H        24.3024   -6.5103    6.0545  H     
64   H        24.7747   -5.2175    5.1284  H     
65   H        25.9640   -7.8770    5.3363  H     
66   H        26.6488   -6.3050    5.6836  H     
67   H        26.4161   -7.8459    3.1353  H     
68   H        28.3549   -8.2918    1.5288  H     
69   H        30.5777   -8.0332    4.4983  H     
70   H        30.2526   -6.3699    4.8139  H     
71   H        29.9081  -10.2119    1.4761  H     
72   H        30.6956   -9.7099    3.1076  H     
73   H        28.5284   -9.8965    4.2294  H     
74   H        27.7351  -10.4305    2.5907  H     
75   H        32.8760   -7.7067    4.2208  H     
76   H        34.4892   -5.2788    1.1956  H     
77   H        32.2932   -4.5539    0.5975  H     
78   H        35.2184   -7.9362    3.6793  H     
79   H        35.9272   -6.9798    2.4002  H     
80   H        34.9620   -5.2072    4.5842  H     
81   H        35.9946   -6.4895    5.2165  H     
82   H        37.6641   -5.9004    3.5890  H     
83   H        36.7176   -4.6685    2.9999  H     
84   H        38.2412   -3.5982    4.2445  H     
85   H        36.7994   -3.6224    5.2684  H     
86   H        39.1469   -5.6234    5.4585  H     
87   H        37.7542   -5.5353    6.5739  H     
88   H        38.9254   -4.1971    6.5115  H     
@<TRIPOS>BOND
     1    2    3 1
     2   10   11 1
     3    5    6 2
     4   11   12 1
     5   20   25 1
     6   21   22 1
     7   22   23 1
     8   23   24 1
     9   24   25 1
    10    6    1 1
    11   25   26 1
    12   12   13 1
    13   26   27 am
    14    1    2 2
    15   26   28 2
    16   13   14 1
    17   27   29 1
    18    6    7 1
    19   27   30 1
    20   14   15 2
    21   30   31 1
    22   32   29 1
    23   33   32 1
    24   29   33 1
    25    3    4 2
    26   15   16 1
    27    4    8 1
    28   31   34 2
    29   16   17 2
    30   34   35 1
    31   35   36 2
    32   17   18 1
    33   36   37 1
    34    2    9 1
    35   37   38 2
    36   38   31 1
    37   18   19 2
    38   38   39 1
    39   19   14 1
    40   35   40 1
    41    4    5 1
    42   40   41 1
    43   20   17 1
    44   41   42 1
    45   20   21 1
    46   42   43 1
    47    3   10 1
    48   43   44 1
    49    1   45 1
    50    5   46 1
    51    7   47 1
    52    7   48 1
    53    7   49 1
    54   11   50 1
    55   11   51 1
    56   12   52 1
    57   12   53 1
    58   15   54 1
    59   16   55 1
    60   18   56 1
    61   19   57 1
    62   20   58 1
    63   21   59 1
    64   21   60 1
    65   22   61 1
    66   22   62 1
    67   23   63 1
    68   23   64 1
    69   24   65 1
    70   24   66 1
    71   25   67 1
    72   29   68 1
    73   30   69 1
    74   30   70 1
    75   32   71 1
    76   32   72 1
    77   33   73 1
    78   33   74 1
    79   34   75 1
    80   36   76 1
    81   37   77 1
    82   40   78 1
    83   40   79 1
    84   41   80 1
    85   41   81 1
    86   42   82 1
    87   42   83 1
    88   43   84 1
    89   43   85 1
    90   44   86 1
    91   44   87 1
    92   44   88 1
@<TRIPOS>PROPERTY_DATA
  Total_Score	| 12.9828
  Crash		| -3.4607
  Polar		| 2.1942
  FragIndex	| 1
  FragRMSD	| 0.175

