@<TRIPOS>MOLECULE
BindingDB_50328908
 83 87 0 0 0
SMALL
NO_CHARGES


@<TRIPOS>ATOM
1    C        28.9010   -8.5858   -5.0194  C     
2    C        28.3487   -7.8466   -3.9568  C     
3    C        28.9515   -7.8800   -2.6812  C     
4    C        30.1680   -8.5823   -2.5088  C     
5    C        30.7134   -9.3218   -3.5766  C     
6    C        30.0725   -9.3563   -4.8354  C     
7    C        30.6346  -10.2065   -5.9116  C     
8    Cl       30.9956   -8.5635   -1.0259  Cl    
9    Cl       26.9583   -6.9213   -4.2447  Cl    
10   O        28.3809   -7.2112   -1.6293  O     
11   C        27.5007   -8.0018   -0.7979  C     
12   C        26.0171   -7.9275   -1.2465  C     
13   O        25.4707   -6.5881   -1.2008  O     
14   C        25.6449   -6.0016    0.0245  C     
15   N        26.8939   -5.6151    0.3835  N     
16   C        27.1834   -5.1669    1.6277  C     
17   C        26.1975   -5.1153    2.6464  C     
18   C        24.8797   -5.4605    2.2593  C     
19   C        24.5935   -5.9075    0.9549  C     
20   C        26.5898   -4.6574    4.0285  C     
21   C        25.4242   -4.0351    4.8710  C     
22   C        24.6695   -5.0550    5.7730  C     
23   N        24.9517   -6.4706    5.4489  N     
24   C        26.3811   -6.8637    5.4084  C     
25   C        27.3445   -5.7417    4.8934  C     
26   C        28.7038   -6.0773    4.3830  C     
27   N        29.0928   -6.9445    3.4108  N     
28   O        29.5557   -5.2839    4.7866  O     
29   C        28.2657   -8.0345    2.9327  C     
30   C        30.3316   -6.6799    2.6670  C     
31   C        31.6343   -6.9958    3.3385  C     
32   C        31.6842   -7.8120    4.4963  C     
33   C        32.9075   -8.1682    5.1122  C     
34   C        34.1063   -7.6821    4.5458  C     
35   C        34.0835   -6.8758    3.4003  C     
36   C        32.8621   -6.5436    2.7866  C     
37   Cl       32.9611   -5.6219    1.3642  Cl    
38   C        28.8998   -9.2658    2.2463  C     
39   C        28.3585   -9.3842    3.6647  C     
40   C        32.9809   -9.1424    6.2337  C     
41   N        31.9564   -9.0014    7.2158  N     
42   C        31.2050  -10.0060    7.7184  C     
43   O        30.3130   -9.6837    8.6794  O     
44   O        31.3540  -11.3035    7.3308  O     
45   C        30.5852  -12.4034    7.8169  C     
46   H        28.4393   -8.5743   -5.9282  H     
47   H        31.5828   -9.8456   -3.4328  H     
48   H        30.6616  -11.2439   -5.5741  H     
49   H        31.6504   -9.8844   -6.1476  H     
50   H        30.0409  -10.1628   -6.8240  H     
51   H        27.8078   -9.0505   -0.7017  H     
52   H        27.5569   -7.5576    0.1964  H     
53   H        25.9330   -8.2918   -2.2700  H     
54   H        25.4211   -8.6034   -0.6244  H     
55   H        28.1499   -4.8769    1.8178  H     
56   H        24.1089   -5.3899    2.9191  H     
57   H        23.6476   -6.2057    0.7002  H     
58   H        27.2845   -3.8240    3.8786  H     
59   H        24.7191   -3.5234    4.2110  H     
60   H        25.8449   -3.2630    5.5250  H     
61   H        24.9395   -4.8927    6.8170  H     
62   H        23.5954   -4.8939    5.6817  H     
63   H        24.4927   -7.0524    6.1474  H     
64   H        24.5329   -6.6915    4.5474  H     
65   H        26.6659   -7.1405    6.4310  H     
66   H        26.4306   -7.7593    4.7954  H     
67   H        27.5444   -5.2019    5.8347  H     
68   H        27.2736   -7.7893    2.5620  H     
69   H        30.3343   -5.6129    2.4044  H     
70   H        30.3220   -7.2161    1.7096  H     
71   H        30.8250   -8.1817    4.8959  H     
72   H        35.0139   -7.9382    4.9409  H     
73   H        34.9698   -6.5560    3.0037  H     
74   H        29.9916   -9.3109    2.1683  H     
75   H        28.3013   -9.7842    1.4980  H     
76   H        29.1402   -9.5513    4.4041  H     
77   H        27.4488   -9.9821    3.7213  H     
78   H        33.0067  -10.1437    5.7952  H     
79   H        33.9150   -9.0040    6.7776  H     
80   H        31.8511   -8.1208    7.6185  H     
81   H        29.5354  -12.2739    7.5613  H     
82   H        30.9426  -13.3212    7.3541  H     
83   H        30.6887  -12.4888    8.9000  H     
@<TRIPOS>BOND
     1   10   11 1
     2    5    6 2
     3   11   12 1
     4   20   25 1
     5   21   22 1
     6   22   23 1
     7   23   24 1
     8   24   25 1
     9    6    1 1
    10   25   26 1
    11   12   13 1
    12   26   27 am
    13    1    2 2
    14   26   28 2
    15   13   14 1
    16   27   29 1
    17    6    7 1
    18   27   30 1
    19   14   15 2
    20   30   31 1
    21    3    4 2
    22   31   32 2
    23   15   16 1
    24   32   33 1
    25    4    8 1
    26   33   34 2
    27   16   17 2
    28   34   35 1
    29   35   36 2
    30   36   31 1
    31   17   18 1
    32   36   37 1
    33   38   29 1
    34   39   38 1
    35   29   39 1
    36    2    9 1
    37   18   19 2
    38   19   14 1
    39   33   40 1
    40    4    5 1
    41   40   41 1
    42   20   17 1
    43   41   42 am
    44   20   21 1
    45   42   43 2
    46    3   10 1
    47   42   44 1
    48    2    3 1
    49   44   45 1
    50    1   46 1
    51    5   47 1
    52    7   48 1
    53    7   49 1
    54    7   50 1
    55   11   51 1
    56   11   52 1
    57   12   53 1
    58   12   54 1
    59   16   55 1
    60   18   56 1
    61   19   57 1
    62   20   58 1
    63   21   59 1
    64   21   60 1
    65   22   61 1
    66   22   62 1
    67   23   63 1
    68   23   64 1
    69   24   65 1
    70   24   66 1
    71   25   67 1
    72   29   68 1
    73   30   69 1
    74   30   70 1
    75   32   71 1
    76   34   72 1
    77   35   73 1
    78   38   74 1
    79   38   75 1
    80   39   76 1
    81   39   77 1
    82   40   78 1
    83   40   79 1
    84   41   80 1
    85   45   81 1
    86   45   82 1
    87   45   83 1
@<TRIPOS>PROPERTY_DATA
  Total_Score	| 9.4130
  Crash		| -4.7714
  Polar		| 2.6479
  FragIndex	| 1
  FragRMSD	| 0.601

