@<TRIPOS>MOLECULE
BindingDB_50328905
 82 86 0 0 0
SMALL
NO_CHARGES


@<TRIPOS>ATOM
1    C        33.0729   -9.6544   -4.7499  C     
2    C        31.6789   -9.4787   -4.8284  C     
3    C        30.9468   -9.0447   -3.7002  C     
4    C        31.6310   -8.8544   -2.4746  C     
5    C        33.0253   -9.0388   -2.4013  C     
6    C        33.7630   -9.4315   -3.5390  C     
7    C        35.2296   -9.6319   -3.4821  C     
8    Cl       30.8155   -8.4468   -1.0517  Cl    
9    Cl       30.9064   -9.8435   -6.2917  Cl    
10   O        29.5831   -8.9080   -3.8127  O     
11   C        29.0751   -7.5564   -3.8149  C     
12   C        27.5323   -7.5911   -3.7071  C     
13   O        26.9749   -6.3429   -3.2356  O     
14   C        26.6031   -6.3355   -1.9148  C     
15   N        27.1735   -5.4539   -1.0525  N     
16   C        26.8728   -5.4109    0.2728  C     
17   C        25.9528   -6.3263    0.8371  C     
18   C        25.2730   -7.1762   -0.0718  C     
19   C        25.5927   -7.1905   -1.4389  C     
20   C        25.7229   -6.5183    2.3121  C     
21   C        24.3055   -6.0032    2.7431  C     
22   C        24.0950   -5.9892    4.2903  C     
23   N        24.9988   -6.9413    4.9704  N     
24   C        26.4575   -6.7075    4.7483  C     
25   C        26.7919   -6.0460    3.3653  C     
26   C        28.2346   -6.0914    3.0168  C     
27   N        29.0592   -7.1375    2.7608  N     
28   O        28.7395   -4.9689    2.9699  O     
29   C        28.6839   -8.5219    2.9953  C     
30   C        30.4826   -6.8846    2.4773  C     
31   C        31.4552   -6.9934    3.6104  C     
32   C        31.0400   -7.5326    4.8505  C     
33   C        31.9520   -7.8733    5.8724  C     
34   C        33.3141   -7.5639    5.6809  C     
35   C        33.7523   -6.9964    4.4735  C     
36   C        32.8413   -6.7324    3.4310  C     
37   Cl       33.4889   -6.1396    1.9767  Cl    
38   C        28.1815   -9.5688    1.9812  C     
39   C        29.6343   -9.5992    2.4151  C     
40   C        31.4696   -8.5714    7.0996  C     
41   C        31.0343  -10.0531    6.8876  C     
42   O        32.0908  -11.0085    6.6533  O     
43   C        33.0454  -10.7014    5.6254  C     
44   H        33.5900   -9.9580   -5.5786  H     
45   H        33.5066   -8.8913   -1.5088  H     
46   H        35.6291   -9.4416   -2.4839  H     
47   H        35.7207   -8.9529   -4.1809  H     
48   H        35.4769  -10.6600   -3.7578  H     
49   H        29.4763   -7.0220   -2.9555  H     
50   H        29.3506   -7.0089   -4.7203  H     
51   H        27.1272   -7.7700   -4.7054  H     
52   H        27.2195   -8.4373   -3.0872  H     
53   H        27.3462   -4.7165    0.8473  H     
54   H        24.5743   -7.8407    0.2688  H     
55   H        25.1190   -7.8421   -2.0701  H     
56   H        25.6805   -7.5976    2.4523  H     
57   H        23.5407   -6.6417    2.2923  H     
58   H        24.1509   -4.9901    2.3619  H     
59   H        24.2886   -4.9896    4.6845  H     
60   H        23.0621   -6.2449    4.5295  H     
61   H        24.7894   -6.9446    5.9731  H     
62   H        24.7892   -7.8729    4.6105  H     
63   H        26.8531   -6.0954    5.5610  H     
64   H        26.9296   -7.6863    4.8169  H     
65   H        26.5412   -4.9859    3.5206  H     
66   H        28.4090   -8.7631    4.0237  H     
67   H        30.5495   -5.8914    2.0199  H     
68   H        30.8807   -7.5655    1.7248  H     
69   H        30.0536   -7.7301    5.0067  H     
70   H        34.0000   -7.7767    6.4095  H     
71   H        34.7481   -6.8076    4.3500  H     
72   H        27.6164  -10.4135    2.3746  H     
73   H        28.0976   -9.3272    0.9243  H     
74   H        30.3045   -9.3322    1.5966  H     
75   H        29.9091  -10.4267    3.0743  H     
76   H        32.2283   -8.5566    7.8862  H     
77   H        30.6085   -8.0132    7.4763  H     
78   H        30.5371  -10.3795    7.8040  H     
79   H        30.2897  -10.1330    6.0921  H     
80   H        32.5859  -10.2385    4.7512  H     
81   H        33.5234  -11.6318    5.3133  H     
82   H        33.8180  -10.0398    6.0187  H     
@<TRIPOS>BOND
     1    3   10 1
     2    2    3 1
     3   10   11 1
     4    5    6 2
     5   11   12 1
     6   20   25 1
     7   21   22 1
     8   22   23 1
     9   23   24 1
    10   24   25 1
    11    6    1 1
    12   25   26 1
    13   12   13 1
    14   26   27 am
    15    1    2 2
    16   26   28 2
    17   13   14 1
    18   27   29 1
    19    6    7 1
    20   27   30 1
    21   14   15 2
    22   30   31 1
    23    3    4 2
    24   31   32 2
    25   15   16 1
    26   32   33 1
    27    4    8 1
    28   33   34 2
    29   16   17 2
    30   34   35 1
    31   35   36 2
    32   36   31 1
    33   17   18 1
    34   36   37 1
    35   38   29 1
    36   39   38 1
    37   29   39 1
    38    2    9 1
    39   18   19 2
    40   19   14 1
    41   33   40 1
    42    4    5 1
    43   40   41 1
    44   20   17 1
    45   41   42 1
    46   20   21 1
    47   42   43 1
    48    1   44 1
    49    5   45 1
    50    7   46 1
    51    7   47 1
    52    7   48 1
    53   11   49 1
    54   11   50 1
    55   12   51 1
    56   12   52 1
    57   16   53 1
    58   18   54 1
    59   19   55 1
    60   20   56 1
    61   21   57 1
    62   21   58 1
    63   22   59 1
    64   22   60 1
    65   23   61 1
    66   23   62 1
    67   24   63 1
    68   24   64 1
    69   25   65 1
    70   29   66 1
    71   30   67 1
    72   30   68 1
    73   32   69 1
    74   34   70 1
    75   35   71 1
    76   38   72 1
    77   38   73 1
    78   39   74 1
    79   39   75 1
    80   40   76 1
    81   40   77 1
    82   41   78 1
    83   41   79 1
    84   43   80 1
    85   43   81 1
    86   43   82 1
@<TRIPOS>PROPERTY_DATA
  Total_Score	| 14.3364
  Crash		| -3.8340
  Polar		| 5.1317
  FragIndex	| 1
  FragRMSD	| 0.890

