@<TRIPOS>MOLECULE
BindingDB_50328909
 84 88 0 0 0
SMALL
NO_CHARGES


@<TRIPOS>ATOM
1    C        32.9461   -9.6646   -4.6642  C     
2    C        31.5546   -9.5675   -4.8427  C     
3    C        30.7134   -9.2353   -3.7502  C     
4    C        31.2952   -9.0818   -2.4710  C     
5    C        32.6883   -9.1851   -2.2971  C     
6    C        33.5305   -9.4667   -3.3933  C     
7    C        34.9953   -9.6211   -3.2411  C     
8    Cl       30.3174   -8.8472   -1.1083  Cl    
9    Cl       30.9241   -9.9506   -6.3707  Cl    
10   O        29.3495   -9.1565   -3.8821  O     
11   C        28.8007   -7.9340   -4.4119  C     
12   C        28.9156   -6.6767   -3.5033  C     
13   O        27.6272   -6.0899   -3.2288  O     
14   C        27.1558   -6.2409   -1.9576  C     
15   N        26.7060   -7.4403   -1.5055  N     
16   C        26.2206   -7.6256   -0.2508  C     
17   C        26.1584   -6.5501    0.6701  C     
18   C        26.6124   -5.2886    0.2037  C     
19   C        27.1073   -5.1279   -1.0991  C     
20   C        25.6148   -6.7571    2.0598  C     
21   C        24.4987   -5.7441    2.4557  C     
22   C        23.8279   -6.1333    3.8062  C     
23   N        24.7056   -6.8698    4.7520  N     
24   C        26.1438   -6.5433    4.6270  C     
25   C        26.6857   -6.9457    3.2132  C     
26   C        28.0185   -6.3414    3.0049  C     
27   N        29.2148   -6.9812    2.9781  N     
28   O        28.0062   -5.1152    2.9409  O     
29   C        29.2658   -8.4373    2.9982  C     
30   C        30.4562   -6.2057    3.0717  C     
31   C        31.6930   -6.8567    3.6053  C     
32   C        31.5501   -7.6658    4.7584  C     
33   C        32.6271   -8.4454    5.2264  C     
34   N        33.8452   -8.2552    4.6600  N     
35   C        34.0725   -7.4023    3.6343  C     
36   C        32.9955   -6.7093    3.0433  C     
37   Cl       33.3382   -5.7531    1.6839  Cl    
38   C        28.7825   -9.1562    1.7156  C     
39   C        30.2452   -9.2590    2.1397  C     
40   C        32.4748   -9.5450    6.2168  C     
41   C        31.0285  -10.0075    6.5475  C     
42   C        30.9587  -11.4049    7.2150  C     
43   O        31.7357  -11.5332    8.4207  O     
44   C        31.3849  -10.6470    9.4978  C     
45   H        33.5459   -9.8897   -5.4629  H     
46   H        33.0888   -9.0663   -1.3654  H     
47   H        35.2873  -10.6390   -3.5117  H     
48   H        35.3287   -9.4305   -2.2181  H     
49   H        35.5067   -8.9189   -3.9045  H     
50   H        29.2357   -7.7133   -5.3875  H     
51   H        27.7422   -8.1467   -4.5951  H     
52   H        29.4860   -6.8989   -2.5888  H     
53   H        29.4892   -5.9165   -4.0392  H     
54   H        25.9129   -8.5582    0.0168  H     
55   H        26.5870   -4.4703    0.8187  H     
56   H        27.4270   -4.2172   -1.4213  H     
57   H        25.0629   -7.7042    2.0174  H     
58   H        24.9301   -4.7471    2.5586  H     
59   H        23.7364   -5.6994    1.6728  H     
60   H        23.4531   -5.2320    4.2991  H     
61   H        22.9690   -6.7815    3.6059  H     
62   H        24.3994   -6.6917    5.7161  H     
63   H        24.6119   -7.8679    4.5608  H     
64   H        26.2682   -5.4744    4.8259  H     
65   H        26.6908   -7.0875    5.4019  H     
66   H        26.8037   -8.0294    3.2932  H     
67   H        28.9258   -8.9255    3.9118  H     
68   H        30.6514   -5.7745    2.0856  H     
69   H        30.2956   -5.3594    3.7491  H     
70   H        30.6300   -7.7436    5.2039  H     
71   H        35.0255   -7.3176    3.2668  H     
72   H        28.1868  -10.0625    1.8556  H     
73   H        28.5978   -8.5362    0.8386  H     
74   H        30.5504  -10.2122    2.5689  H     
75   H        30.9500   -8.7034    1.5286  H     
76   H        33.0136  -10.4094    5.8170  H     
77   H        32.9749   -9.2423    7.1388  H     
78   H        30.5510   -9.2677    7.1980  H     
79   H        30.4443  -10.0644    5.6271  H     
80   H        29.9141  -11.6676    7.4137  H     
81   H        31.3452  -12.1362    6.5031  H     
82   H        30.3470  -10.7902    9.8019  H     
83   H        31.5463   -9.6076    9.2122  H     
84   H        32.0273  -10.8675   10.3500  H     
@<TRIPOS>BOND
     1    2    3 1
     2   10   11 1
     3    5    6 2
     4   11   12 1
     5   20   25 1
     6   21   22 1
     7   22   23 1
     8   23   24 1
     9   24   25 1
    10    6    1 1
    11   25   26 1
    12   12   13 1
    13   26   27 am
    14    1    2 2
    15   26   28 2
    16   13   14 1
    17   27   29 1
    18    6    7 1
    19   27   30 1
    20   14   15 2
    21   30   31 1
    22    3    4 2
    23   31   32 2
    24   15   16 1
    25   32   33 1
    26    4    8 1
    27   33   34 2
    28   16   17 2
    29   34   35 1
    30   35   36 2
    31   36   31 1
    32   17   18 1
    33   36   37 1
    34   38   29 1
    35   39   38 1
    36   29   39 1
    37    2    9 1
    38   18   19 2
    39   19   14 1
    40   33   40 1
    41    4    5 1
    42   40   41 1
    43   20   17 1
    44   41   42 1
    45   20   21 1
    46   42   43 1
    47    3   10 1
    48   43   44 1
    49    1   45 1
    50    5   46 1
    51    7   47 1
    52    7   48 1
    53    7   49 1
    54   11   50 1
    55   11   51 1
    56   12   52 1
    57   12   53 1
    58   16   54 1
    59   18   55 1
    60   19   56 1
    61   20   57 1
    62   21   58 1
    63   21   59 1
    64   22   60 1
    65   22   61 1
    66   23   62 1
    67   23   63 1
    68   24   64 1
    69   24   65 1
    70   25   66 1
    71   29   67 1
    72   30   68 1
    73   30   69 1
    74   32   70 1
    75   35   71 1
    76   38   72 1
    77   38   73 1
    78   39   74 1
    79   39   75 1
    80   40   76 1
    81   40   77 1
    82   41   78 1
    83   41   79 1
    84   42   80 1
    85   42   81 1
    86   44   82 1
    87   44   83 1
    88   44   84 1
@<TRIPOS>PROPERTY_DATA
  Total_Score	| 17.1299
  Crash		| -2.5757
  Polar		| 5.1244
  FragIndex	| 1
  FragRMSD	| 0.664

