@<TRIPOS>MOLECULE
BindingDB_50328924
 83 87 0 0 0
SMALL
NO_CHARGES


@<TRIPOS>ATOM
1    C        24.4341   -6.1134    2.6741  C     
2    C        24.0579   -6.1009    4.1761  C     
3    N        24.9124   -7.0363    4.9303  N     
4    C        26.3619   -6.7507    4.8213  C     
5    C        26.8452   -6.7423    3.3317  C     
6    C        25.9471   -5.8007    2.4314  C     
7    C        28.2778   -6.4353    3.2513  C     
8    N        29.2748   -7.2485    2.8342  N     
9    O        26.1398   -4.4442    2.8773  O     
10   C        26.2886   -5.9607    0.9618  C     
11   C        26.3848   -7.2403    0.3531  C     
12   N        26.8535   -7.3869   -0.9102  N     
13   C        27.2115   -6.3369   -1.6953  C     
14   C        27.0622   -5.0303   -1.1904  C     
15   C        26.6099   -4.8555    0.1322  C     
16   O        27.8903   -6.5398   -2.8663  O     
17   C        27.4119   -7.5921   -3.7286  C     
18   C        28.5951   -8.0886   -4.5902  C     
19   O        29.1947   -9.2485   -3.9733  O     
20   C        30.5598   -9.2667   -3.8104  C     
21   C        31.4295   -9.6369   -4.8646  C     
22   C        32.8194   -9.7150   -4.6429  C     
23   C        33.3654   -9.4776   -3.3611  C     
24   C        32.4937   -9.1213   -2.3103  C     
25   C        31.1036   -9.0222   -2.5296  C     
26   Cl       30.1054   -8.6631   -1.2093  Cl    
27   Cl       30.8366  -10.0615   -6.3943  Cl    
28   C        34.8141   -9.6327   -3.0919  C     
29   O        28.5480   -5.2640    3.5585  O     
30   C        30.6563   -6.7571    2.6536  C     
31   C        28.9970   -8.5479    2.2388  C     
32   C        31.5962   -7.0120    3.7943  C     
33   C        31.0920   -7.6290    4.9605  C     
34   C        31.9245   -7.9615    6.0568  C     
35   C        33.2733   -7.5382    6.0206  C     
36   C        33.8024   -6.9574    4.8692  C     
37   C        32.9724   -6.6509    3.7584  C     
38   C        30.0362   -9.6991    2.3956  C     
39   C        28.6598   -9.8223    3.0505  C     
40   Cl       33.6951   -5.8893    2.4388  Cl    
41   C        31.4139   -8.7705    7.1940  C     
42   C        30.8816  -10.1776    6.7956  C     
43   O        31.9404  -11.1472    6.5584  O     
44   C        32.9985  -10.7308    5.6766  C     
45   H        24.1842   -7.1048    2.2888  H     
46   H        23.8144   -5.3836    2.1340  H     
47   H        24.1486   -5.0917    4.5848  H     
48   H        23.0218   -6.4204    4.2776  H     
49   H        24.6425   -7.0265    5.9210  H     
50   H        24.7490   -7.9730    4.5606  H     
51   H        26.5770   -5.7960    5.3124  H     
52   H        26.8882   -7.5328    5.3785  H     
53   H        26.6516   -7.7574    2.9947  H     
54   H        25.5147   -3.8972    2.3603  H     
55   H        26.1549   -8.0872    0.8691  H     
56   H        27.3374   -4.2183   -1.7511  H     
57   H        26.5528   -3.8988    0.4956  H     
58   H        27.0197   -8.4470   -3.1663  H     
59   H        26.6158   -7.2041   -4.3765  H     
60   H        28.2072   -8.4014   -5.5580  H     
61   H        29.2942   -7.2647   -4.7605  H     
62   H        33.4343   -9.9817   -5.4145  H     
63   H        32.8703   -8.9550   -1.3724  H     
64   H        35.3763   -9.9068   -3.9873  H     
65   H        34.9573  -10.4199   -2.3505  H     
66   H        35.2224   -8.6984   -2.7006  H     
67   H        31.0314   -7.1808    1.7056  H     
68   H        30.7062   -5.6728    2.4978  H     
69   H        28.5882   -8.5314    1.2231  H     
70   H        30.0901   -7.8607    5.0173  H     
71   H        33.8985   -7.8200    6.7856  H     
72   H        34.7983   -6.6987    4.8533  H     
73   H        30.1636  -10.3789    1.5418  H     
74   H        30.8105   -9.6572    3.1587  H     
75   H        28.6517   -9.7154    4.1440  H     
76   H        27.9884  -10.5313    2.5732  H     
77   H        32.1846   -8.9217    7.9456  H     
78   H        30.5943   -8.2176    7.6678  H     
79   H        30.3249  -10.5596    7.6587  H     
80   H        30.1804  -10.1173    5.9611  H     
81   H        33.6189  -11.5974    5.4335  H     
82   H        33.6424   -9.9481    6.0674  H     
83   H        32.5848  -10.3667    4.7370  H     
@<TRIPOS>BOND
     1    1    2 1
     2    1    6 1
     3    2    3 1
     4    3    4 1
     5    4    5 1
     6    5    6 1
     7    5    7 1
     8    6    9 1
     9    6   10 1
    10    7    8 am
    11    7   29 2
    12    8   30 1
    13    8   31 1
    14   10   11 2
    15   10   15 1
    16   11   12 1
    17   12   13 2
    18   13   14 1
    19   13   16 1
    20   14   15 2
    21   16   17 1
    22   17   18 1
    23   18   19 1
    24   19   20 1
    25   20   21 2
    26   20   25 1
    27   21   22 1
    28   21   27 1
    29   22   23 2
    30   23   24 1
    31   23   28 1
    32   24   25 2
    33   25   26 1
    34   30   32 1
    35   31   38 1
    36   31   39 1
    37   32   33 2
    38   32   37 1
    39   33   34 1
    40   34   35 2
    41   34   41 1
    42   35   36 1
    43   36   37 2
    44   37   40 1
    45   38   39 1
    46   41   42 1
    47   42   43 1
    48   43   44 1
    49    1   45 1
    50    1   46 1
    51    2   47 1
    52    2   48 1
    53    3   49 1
    54    3   50 1
    55    4   51 1
    56    4   52 1
    57    5   53 1
    58    9   54 1
    59   11   55 1
    60   14   56 1
    61   15   57 1
    62   17   58 1
    63   17   59 1
    64   18   60 1
    65   18   61 1
    66   22   62 1
    67   24   63 1
    68   28   64 1
    69   28   65 1
    70   28   66 1
    71   30   67 1
    72   30   68 1
    73   31   69 1
    74   33   70 1
    75   35   71 1
    76   36   72 1
    77   38   73 1
    78   38   74 1
    79   39   75 1
    80   39   76 1
    81   41   77 1
    82   41   78 1
    83   42   79 1
    84   42   80 1
    85   44   81 1
    86   44   82 1
    87   44   83 1
@<TRIPOS>PROPERTY_DATA
  Total_Score	| 15.9010
  Crash		| -3.2406
  Polar		| 5.1970
  FragIndex	| 1
  FragRMSD	| 0.299

