@<TRIPOS>MOLECULE
BindingDB_50328865
 84 88 0 0 0
SMALL
NO_CHARGES


@<TRIPOS>ATOM
1    C        32.8743   -9.6866   -4.7739  C     
2    C        31.4696   -9.5889   -4.8479  C     
3    C        30.7219   -9.1833   -3.7149  C     
4    C        31.3998   -8.9736   -2.4922  C     
5    C        32.8030   -9.0834   -2.4243  C     
6    C        33.5540   -9.4356   -3.5626  C     
7    C        35.0246   -9.5873   -3.4491  C     
8    Cl       30.5653   -8.6899   -1.0489  Cl    
9    Cl       30.7260  -10.0813   -6.2889  Cl    
10   O        29.3473   -9.1585   -3.7315  O     
11   C        28.6721   -8.0085   -4.2892  C     
12   C        28.8139   -6.6730   -3.4981  C     
13   O        27.5218   -6.1015   -3.1804  O     
14   C        27.1856   -6.0337   -1.8530  C     
15   C        26.7764   -7.1761   -1.1411  C     
16   C        26.3714   -7.0606    0.2052  C     
17   C        26.3288   -5.8089    0.8827  C     
18   C        26.7749   -4.6872    0.1400  C     
19   C        27.1848   -4.7871   -1.2047  C     
20   C        25.8316   -5.6621    2.3191  C     
21   C        24.3936   -6.2692    2.5037  C     
22   C        23.8990   -6.2108    3.9697  C     
23   N        24.8753   -6.8397    4.8823  N     
24   C        26.2174   -6.1981    4.8390  C     
25   C        26.8615   -6.1941    3.4038  C     
26   O        25.6606   -4.2687    2.6230  O     
27   C        27.4056   -7.5136    3.0603  C     
28   N        28.6727   -7.8315    2.6915  N     
29   O        26.5462   -8.3870    3.0353  O     
30   C        28.9100   -9.1522    2.1313  C     
31   C        29.7955   -6.8876    2.5427  C     
32   C        29.9146  -10.0750    2.8570  C     
33   C        28.4402  -10.4816    2.7825  C     
34   C        31.0447   -7.1541    3.3546  C     
35   C        30.9803   -7.8297    4.5946  C     
36   C        32.1308   -8.1247    5.3632  C     
37   C        33.3853   -7.6853    4.8887  C     
38   C        33.4735   -7.0009    3.6670  C     
39   C        32.3251   -6.7261    2.9060  C     
40   Cl       32.5786   -5.8584    1.4755  Cl    
41   C        32.0095   -8.9056    6.6305  C     
42   C        31.8833  -10.4425    6.3730  C     
43   O        31.9200  -11.2622    7.5696  O     
44   C        30.6540  -11.4721    8.2255  C     
45   H        33.4024   -9.9784   -5.5990  H     
46   H        33.2813   -8.9334   -1.5329  H     
47   H        35.4740   -8.6424   -3.1334  H     
48   H        35.4856   -9.8887   -4.3930  H     
49   H        35.2483  -10.3517   -2.7027  H     
50   H        28.9501   -7.8505   -5.3369  H     
51   H        27.6219   -8.2974   -4.3067  H     
52   H        29.4538   -6.8025   -2.6232  H     
53   H        29.3279   -5.9554   -4.1421  H     
54   H        26.7559   -8.0876   -1.6048  H     
55   H        26.0871   -7.9154    0.6761  H     
56   H        26.7926   -3.7651    0.5651  H     
57   H        27.4675   -3.9454   -1.7145  H     
58   H        23.6821   -5.7383    1.8638  H     
59   H        24.3771   -7.3157    2.2063  H     
60   H        23.7102   -5.1740    4.2761  H     
61   H        22.9629   -6.7581    4.0506  H     
62   H        24.5224   -6.7795    5.8456  H     
63   H        24.9590   -7.8288    4.6170  H     
64   H        26.1291   -5.1708    5.1976  H     
65   H        26.8735   -6.7272    5.5379  H     
66   H        27.6918   -5.4802    3.4688  H     
67   H        25.0024   -3.9312    1.9796  H     
68   H        28.9140   -9.2331    1.0288  H     
69   H        30.0585   -6.8965    1.4773  H     
70   H        29.5028   -5.8504    2.7419  H     
71   H        30.6003  -10.6360    2.2251  H     
72   H        30.1842   -9.7898    3.8870  H     
73   H        27.9146  -10.4193    3.7394  H     
74   H        28.2288  -11.2985    2.0921  H     
75   H        30.0645   -8.0241    5.0042  H     
76   H        34.2370   -7.8912    5.4065  H     
77   H        34.3915   -6.6851    3.3589  H     
78   H        32.8900   -8.7434    7.2559  H     
79   H        31.1379   -8.5547    7.1979  H     
80   H        30.9835  -10.6602    5.7817  H     
81   H        32.7480  -10.7661    5.7817  H     
82   H        30.2707  -10.5401    8.6453  H     
83   H        30.8117  -12.1803    9.0405  H     
84   H        29.9153  -11.8967    7.5365  H     
@<TRIPOS>BOND
     1    2    3 1
     2   10   11 1
     3    5    6 2
     4   11   12 1
     5   20   25 1
     6   21   22 1
     7   22   23 1
     8   23   24 1
     9   24   25 1
    10    6    1 1
    11   20   26 1
    12   12   13 1
    13   25   27 1
    14    1    2 2
    15   27   28 am
    16   13   14 1
    17   27   29 2
    18    6    7 1
    19   28   30 1
    20   14   15 2
    21   28   31 1
    22   32   30 1
    23   33   32 1
    24   30   33 1
    25    3    4 2
    26   15   16 1
    27    4    8 1
    28   31   34 1
    29   16   17 2
    30   34   35 2
    31   35   36 1
    32   17   18 1
    33   36   37 2
    34    2    9 1
    35   37   38 1
    36   18   19 2
    37   38   39 2
    38   39   34 1
    39   19   14 1
    40   39   40 1
    41    4    5 1
    42   36   41 1
    43   17   20 1
    44   41   42 1
    45   20   21 1
    46   42   43 1
    47    3   10 1
    48   43   44 1
    49    1   45 1
    50    5   46 1
    51    7   47 1
    52    7   48 1
    53    7   49 1
    54   11   50 1
    55   11   51 1
    56   12   52 1
    57   12   53 1
    58   15   54 1
    59   16   55 1
    60   18   56 1
    61   19   57 1
    62   21   58 1
    63   21   59 1
    64   22   60 1
    65   22   61 1
    66   23   62 1
    67   23   63 1
    68   24   64 1
    69   24   65 1
    70   25   66 1
    71   26   67 1
    72   30   68 1
    73   31   69 1
    74   31   70 1
    75   32   71 1
    76   32   72 1
    77   33   73 1
    78   33   74 1
    79   35   75 1
    80   37   76 1
    81   38   77 1
    82   41   78 1
    83   41   79 1
    84   42   80 1
    85   42   81 1
    86   44   82 1
    87   44   83 1
    88   44   84 1
@<TRIPOS>PROPERTY_DATA
  Total_Score	| 13.9775
  Crash		| -4.4538
  Polar		| 5.2581
  FragIndex	| 1
  FragRMSD	| 0.814

