@<TRIPOS>MOLECULE
BindingDB_50328846
 88 92 0 0 0
SMALL
NO_CHARGES


@<TRIPOS>ATOM
1    C        32.3405   -9.0620   -2.2437  C     
2    C        30.9445   -9.0064   -2.4391  C     
3    C        30.3895   -9.2729   -3.7152  C     
4    C        31.2542   -9.6611   -4.7685  C     
5    C        32.6489   -9.7046   -4.5622  C     
6    C        33.2118   -9.3964   -3.3034  C     
7    C        34.6726   -9.4194   -3.0768  C     
8    Cl       30.6627  -10.1090   -6.2973  Cl    
9    Cl       29.9595   -8.6453   -1.1041  Cl    
10   O        29.0274   -9.1962   -3.8809  O     
11   C        28.4914   -7.9592   -4.3947  C     
12   C        27.2800   -7.5237   -3.5449  C     
13   O        27.7250   -6.5050   -2.6239  O     
14   C        27.1315   -6.3730   -1.3867  C     
15   C        26.8725   -7.4585   -0.5165  C     
16   C        26.4407   -7.2300    0.7972  C     
17   C        26.3506   -5.9103    1.3270  C     
18   C        26.5610   -4.8413    0.4300  C     
19   C        26.9606   -5.0566   -0.9031  C     
20   C        26.0270   -5.6081    2.7668  C     
21   C        24.4889   -5.3554    2.9673  C     
22   C        23.7682   -6.5133    3.6876  C     
23   N        24.4279   -6.9549    4.9347  N     
24   C        25.8510   -6.5859    5.1268  C     
25   C        26.6655   -6.6112    3.8066  C     
26   C        28.1315   -6.4206    3.9184  C     
27   N        28.7561   -5.4573    4.6253  N     
28   O        28.8164   -7.0904    3.1424  O     
29   C        28.5122   -5.3706    6.0606  C     
30   C        29.7312   -4.5919    3.9663  C     
31   C        31.0085   -5.2322    3.5294  C     
32   C        27.9673   -4.0367    6.6082  C     
33   C        29.3128   -4.5703    7.1037  C     
34   C        31.7378   -5.9959    4.4686  C     
35   C        32.9147   -6.6995    4.1062  C     
36   C        33.3963   -6.5810    2.7865  C     
37   C        32.7141   -5.7886    1.8513  C     
38   C        31.5294   -5.1122    2.2154  C     
39   Cl       30.8219   -4.1398    1.0254  Cl    
40   C        33.5941   -7.5689    5.1056  C     
41   C        32.6757   -8.7154    5.6349  C     
42   N        32.5328   -8.6594    7.1124  N     
43   C        31.2956   -9.2131    7.7035  C     
44   C        30.7467  -10.4676    6.9916  C     
45   F        30.0121  -11.2295    7.8677  F     
46   F        31.7744  -11.2397    6.5166  F     
47   H        32.7214   -8.8584   -1.3137  H     
48   H        33.2590   -9.9686   -5.3387  H     
49   H        34.9166  -10.1435   -2.2958  H     
50   H        35.0146   -8.4306   -2.7574  H     
51   H        35.2248   -9.6940   -3.9789  H     
52   H        29.2202   -7.1413   -4.4149  H     
53   H        28.1595   -8.1334   -5.4239  H     
54   H        26.5157   -7.0826   -4.1893  H     
55   H        26.8257   -8.3955   -3.0542  H     
56   H        27.0366   -8.4147   -0.8480  H     
57   H        26.2570   -8.0444    1.3857  H     
58   H        26.4364   -3.8820    0.7362  H     
59   H        27.1383   -4.2647   -1.5159  H     
60   H        26.4803   -4.6355    2.9922  H     
61   H        23.9864   -5.1511    2.0161  H     
62   H        24.3583   -4.4715    3.5911  H     
63   H        22.7452   -6.2144    3.9214  H     
64   H        23.7189   -7.3713    3.0148  H     
65   H        24.3757   -7.9665    4.9473  H     
66   H        23.9112   -6.6211    5.7426  H     
67   H        25.8522   -5.5916    5.5770  H     
68   H        26.2717   -7.3028    5.8444  H     
69   H        26.5080   -7.6275    3.4429  H     
70   H        28.0980   -6.2597    6.5384  H     
71   H        30.0108   -3.7369    4.5742  H     
72   H        29.1963   -4.1508    3.1298  H     
73   H        27.1508   -4.0940    7.3295  H     
74   H        28.0500   -3.1440    5.9804  H     
75   H        30.1979   -4.0211    6.7830  H     
76   H        29.3033   -4.9926    8.1144  H     
77   H        31.3931   -6.0761    5.4290  H     
78   H        34.2480   -7.0727    2.4992  H     
79   H        33.0885   -5.7089    0.9017  H     
80   H        34.5008   -8.0167    4.6838  H     
81   H        33.9251   -6.9251    5.9263  H     
82   H        31.6871   -8.6715    5.1651  H     
83   H        33.1176   -9.6814    5.3629  H     
84   H        33.3324   -9.1304    7.5328  H     
85   H        32.5808   -7.6828    7.4096  H     
86   H        31.5336   -9.4737    8.7338  H     
87   H        30.5326   -8.4357    7.7258  H     
88   H        30.0988  -10.1841    6.1603  H     
@<TRIPOS>BOND
     1    5    6 2
     2   11   12 1
     3   20   25 1
     4   21   22 1
     5   22   23 1
     6   23   24 1
     7   24   25 1
     8    6    1 1
     9   25   26 1
    10   12   13 1
    11   26   27 am
    12    1    2 2
    13   26   28 2
    14   13   14 1
    15   27   29 1
    16    6    7 1
    17   27   30 1
    18   14   15 2
    19   30   31 1
    20   32   29 1
    21   33   32 1
    22   29   33 1
    23    3    4 2
    24   15   16 1
    25    4    8 1
    26   31   34 2
    27   16   17 2
    28   34   35 1
    29   35   36 2
    30   17   18 1
    31   36   37 1
    32    2    9 1
    33   37   38 2
    34   38   31 1
    35   18   19 2
    36   38   39 1
    37   19   14 1
    38   35   40 1
    39    4    5 1
    40   40   41 1
    41   20   17 1
    42   41   42 1
    43   20   21 1
    44   42   43 1
    45    3   10 1
    46   43   44 1
    47    2    3 1
    48   44   45 1
    49   10   11 1
    50   44   46 1
    51    1   47 1
    52    5   48 1
    53    7   49 1
    54    7   50 1
    55    7   51 1
    56   11   52 1
    57   11   53 1
    58   12   54 1
    59   12   55 1
    60   15   56 1
    61   16   57 1
    62   18   58 1
    63   19   59 1
    64   20   60 1
    65   21   61 1
    66   21   62 1
    67   22   63 1
    68   22   64 1
    69   23   65 1
    70   23   66 1
    71   24   67 1
    72   24   68 1
    73   25   69 1
    74   29   70 1
    75   30   71 1
    76   30   72 1
    77   32   73 1
    78   32   74 1
    79   33   75 1
    80   33   76 1
    81   34   77 1
    82   36   78 1
    83   37   79 1
    84   40   80 1
    85   40   81 1
    86   41   82 1
    87   41   83 1
    88   42   84 1
    89   42   85 1
    90   43   86 1
    91   43   87 1
    92   44   88 1
@<TRIPOS>PROPERTY_DATA
  Total_Score	| 14.1526
  Crash		| -4.0884
  Polar		| 5.5271
  FragIndex	| 1
  FragRMSD	| 0.485

