@<TRIPOS>MOLECULE
BindingDB_14690
 78 81 0 0 0
SMALL
NO_CHARGES


@<TRIPOS>ATOM
1    C        20.1388   14.2455   22.4489  C     
2    C        20.8911   13.1813   21.8857  C     
3    C        20.2750   11.9634   21.5462  C     
4    C        18.8981   11.7858   21.7632  C     
5    C        18.1350   12.8313   22.3118  C     
6    C        18.7501   14.0489   22.6537  C     
7    C        20.7635   15.4755   22.7889  C     
8    C        22.0524   17.9541   23.4121  C     
9    C        22.5628   16.7281   23.8988  C     
10   C        21.9328   15.5102   23.5894  C     
11   C        20.2469   16.7072   22.3173  C     
12   C        20.8814   17.9203   22.6152  C     
13   C        22.7171   19.2528   23.7023  C     
14   C        20.2408   19.3471   26.2418  C     
15   C        21.6830   19.8000   25.8941  C     
16   C        21.2507   21.2167   23.9418  C     
17   C        19.0386   21.3756   25.1244  C     
18   C        19.2302   20.5072   26.3911  C     
19   N        21.8578   20.1408   24.4891  N     
20   O        21.4235   21.4590   22.7474  O     
21   C        20.3279   22.1192   24.6553  C     
22   N        19.9102   23.2516   23.8635  N     
23   C        20.6074   24.3574   23.6326  C     
24   O        21.7080   24.5153   24.1446  O     
25   C        20.0429   25.3675   22.7410  C     
26   N        20.8384   26.5709   22.7334  N     
27   C        20.4619   27.7953   23.0857  C     
28   C        21.3851   28.9021   22.9752  C     
29   O        19.3392   28.0269   23.5170  O     
30   C        19.9299   24.8148   21.2848  C     
31   C        19.2069   25.7520   20.3823  C     
32   C        17.1229   26.5782   19.4083  C     
33   C        17.8122   25.6536   20.2083  C     
34   C        19.8897   26.7892   19.7144  C     
35   C        19.2072   27.7325   18.9126  C     
36   C        19.9814   28.7356   18.2902  C     
37   O        20.9941   28.3947   17.4580  O     
38   C        17.7903   27.6495   18.7566  C     
39   C        17.0410   28.5756   17.8334  C     
40   C        17.2502   28.1166   16.4406  C     
41   O        17.3239   29.0139   15.4348  O     
42   C        15.5913   28.7578   18.0988  C     
43   O        15.1922   29.0705   19.3491  O     
44   O        14.7404   29.1197   17.1103  O     
45   O        17.0040   26.8361   16.0843  O     
46   O        20.0259   29.9691   18.8469  O     
47   H        21.8919   13.2933   21.7029  H     
48   H        20.8287   11.2065   21.1397  H     
49   H        18.4548   10.8979   21.5192  H     
50   H        17.1319   12.7010   22.4673  H     
51   H        18.1792   14.7896   23.0662  H     
52   H        23.4045   16.7149   24.4805  H     
53   H        22.3276   14.6417   23.9601  H     
54   H        19.4091   16.7233   21.7275  H     
55   H        20.4905   18.7904   22.2420  H     
56   H        23.6580   19.1064   24.2444  H     
57   H        23.0173   19.6815   22.7440  H     
58   H        19.8900   18.6484   25.4808  H     
59   H        20.2653   18.8062   27.1926  H     
60   H        21.9770   20.6441   26.5240  H     
61   H        22.3418   18.9774   26.1889  H     
62   H        18.6440   20.7576   24.3099  H     
63   H        18.2659   22.1112   25.3706  H     
64   H        18.2609   20.0815   26.6639  H     
65   H        19.5457   21.1478   27.2202  H     
66   H        20.8333   22.5143   25.5390  H     
67   H        19.0377   23.1896   23.4365  H     
68   H        19.0295   25.5808   23.1021  H     
69   H        21.7537   26.4734   22.4265  H     
70   H        22.3387   28.5947   22.5428  H     
71   H        21.5751   29.3232   23.9641  H     
72   H        20.9552   29.6768   22.3396  H     
73   H        20.9331   24.6159   20.8933  H     
74   H        19.4065   23.8523   21.2856  H     
75   H        16.1160   26.4437   19.2985  H     
76   H        17.2874   24.9000   20.6591  H     
77   H        20.9060   26.8681   19.8431  H     
78   H        17.4544   29.5822   17.9273  H     
@<TRIPOS>BOND
     1    1    2 2
     2    1    6 1
     3    1    7 1
     4    2    3 1
     5    3    4 2
     6    4    5 1
     7    5    6 2
     8    7   10 1
     9    7   11 2
    10    8    9 1
    11    8   12 2
    12    8   13 1
    13    9   10 2
    14   11   12 1
    15   13   19 1
    16   14   15 1
    17   14   18 1
    18   15   19 1
    19   16   19 1
    20   16   20 2
    21   16   21 1
    22   17   18 1
    23   17   21 1
    24   21   22 1
    25   22   23 am
    26   23   24 2
    27   23   25 1
    28   25   26 1
    29   25   30 1
    30   26   27 am
    31   27   28 1
    32   27   29 2
    33   30   31 1
    34   31   33 1
    35   31   34 2
    36   32   33 2
    37   32   38 1
    38   34   35 1
    39   35   36 1
    40   35   38 2
    41   36   37 1
    42   36   46 2
    43   38   39 1
    44   39   40 1
    45   39   42 1
    46   40   41 2
    47   40   45 1
    48   42   43 2
    49   42   44 1
    50    2   47 1
    51    3   48 1
    52    4   49 1
    53    5   50 1
    54    6   51 1
    55    9   52 1
    56   10   53 1
    57   11   54 1
    58   12   55 1
    59   13   56 1
    60   13   57 1
    61   14   58 1
    62   14   59 1
    63   15   60 1
    64   15   61 1
    65   17   62 1
    66   17   63 1
    67   18   64 1
    68   18   65 1
    69   21   66 1
    70   22   67 1
    71   25   68 1
    72   26   69 1
    73   28   70 1
    74   28   71 1
    75   28   72 1
    76   30   73 1
    77   30   74 1
    78   32   75 1
    79   33   76 1
    80   34   77 1
    81   39   78 1
@<TRIPOS>PROPERTY_DATA
  Total_Score	| 16.5581
  Crash		| -2.1465
  Polar		| 14.4453
  FragIndex	| 1
  FragRMSD	| 0.819

