@<TRIPOS>MOLECULE
BindingDB_14696
 73 76 0 0 0
SMALL
NO_CHARGES


@<TRIPOS>ATOM
1    C        20.2126   14.3246   22.3687  C     
2    C        20.9068   13.2403   21.7754  C     
3    C        20.2491   12.0378   21.4714  C     
4    C        18.8803   11.8925   21.7448  C     
5    C        18.1704   12.9565   22.3381  C     
6    C        18.8319   14.1549   22.6483  C     
7    C        20.8798   15.5450   22.6774  C     
8    C        22.2234   17.9953   23.2848  C     
9    C        22.7652   16.7560   23.6893  C     
10   C        22.1061   15.5501   23.3896  C     
11   C        20.3472   16.7895   22.2665  C     
12   C        21.0070   17.9916   22.5583  C     
13   C        22.8830   19.2825   23.6218  C     
14   C        20.4006   19.2934   26.1463  C     
15   C        21.8140   19.8315   25.7987  C     
16   C        21.2790   21.1326   23.7888  C     
17   C        19.0780   21.2244   24.9853  C     
18   C        19.3265   20.3944   26.2733  C     
19   N        21.9694   20.1358   24.3828  N     
20   O        21.4055   21.3094   22.5755  O     
21   C        20.3211   22.0162   24.4730  C     
22   N        19.8583   23.1244   23.6594  N     
23   C        20.5930   24.1302   23.1787  C     
24   O        21.8135   24.1238   23.3397  O     
25   C        19.9628   25.2016   22.4132  C     
26   N        20.6336   26.4429   22.7003  N     
27   C        20.0662   27.5904   23.0322  C     
28   C        20.9219   28.7117   23.3786  C     
29   O        18.8454   27.7352   23.0341  O     
30   C        19.9548   24.8747   20.8815  C     
31   C        19.0606   25.7478   20.0719  C     
32   C        16.7916   26.4433   19.4490  C     
33   C        17.6643   25.5695   20.1169  C     
34   C        19.5590   26.7743   19.2304  C     
35   C        18.7020   27.6553   18.5109  C     
36   C        17.2937   27.5104   18.6685  C     
37   C        16.3428   28.3642   18.0461  C     
38   O        15.2790   28.8269   18.7561  O     
39   O        16.2494   28.3854   16.6883  O     
40   C        19.2569   28.6867   17.7495  C     
41   O        20.3029   28.5668   17.1283  O     
42   H        21.8996   13.3232   21.5433  H     
43   H        20.7673   11.2660   21.0404  H     
44   H        18.4028   11.0174   21.5219  H     
45   H        17.1732   12.8500   22.5424  H     
46   H        18.2946   14.9042   23.0922  H     
47   H        23.6416   16.7236   24.2190  H     
48   H        22.5246   14.6779   23.7177  H     
49   H        19.4761   16.8359   21.7351  H     
50   H        20.5865   18.8694   22.2442  H     
51   H        23.7956   19.1214   24.2039  H     
52   H        23.2238   19.7344   22.6874  H     
53   H        20.0952   18.5631   25.3902  H     
54   H        20.4535   18.7649   27.1044  H     
55   H        22.0447   20.7150   26.4005  H     
56   H        22.5275   19.0667   26.1262  H     
57   H        18.7018   20.5711   24.1948  H     
58   H        18.2748   21.9275   25.2240  H     
59   H        18.3821   19.9224   26.5613  H     
60   H        19.6065   21.0734   27.0834  H     
61   H        20.8251   22.4664   25.3394  H     
62   H        18.9097   23.1305   23.4365  H     
63   H        18.9267   25.2805   22.7691  H     
64   H        21.6065   26.4034   22.7620  H     
65   H        21.5009   28.4493   24.2790  H     
66   H        20.3264   29.6079   23.5939  H     
67   H        21.6106   28.9369   22.5484  H     
68   H        20.9834   24.9294   20.5128  H     
69   H        19.6199   23.8474   20.7168  H     
70   H        15.7824   26.2762   19.5170  H     
71   H        17.2618   24.8095   20.6666  H     
72   H        20.5693   26.9155   19.1747  H     
73   H        18.8774   29.6067   17.8016  H     
@<TRIPOS>BOND
     1    1    2 2
     2    1    6 1
     3    1    7 1
     4    2    3 1
     5    3    4 2
     6    4    5 1
     7    5    6 2
     8    7   10 1
     9    7   11 2
    10    8    9 1
    11    8   12 2
    12    8   13 1
    13    9   10 2
    14   11   12 1
    15   13   19 1
    16   14   15 1
    17   14   18 1
    18   15   19 1
    19   16   19 1
    20   16   20 2
    21   16   21 1
    22   17   18 1
    23   17   21 1
    24   21   22 1
    25   22   23 am
    26   23   24 2
    27   23   25 1
    28   25   26 1
    29   25   30 1
    30   26   27 am
    31   27   28 1
    32   27   29 2
    33   30   31 1
    34   31   33 1
    35   31   34 2
    36   32   33 2
    37   32   36 1
    38   34   35 1
    39   35   36 2
    40   35   40 1
    41   36   37 1
    42   37   38 2
    43   37   39 1
    44   40   41 2
    45    2   42 1
    46    3   43 1
    47    4   44 1
    48    5   45 1
    49    6   46 1
    50    9   47 1
    51   10   48 1
    52   11   49 1
    53   12   50 1
    54   13   51 1
    55   13   52 1
    56   14   53 1
    57   14   54 1
    58   15   55 1
    59   15   56 1
    60   17   57 1
    61   17   58 1
    62   18   59 1
    63   18   60 1
    64   21   61 1
    65   22   62 1
    66   25   63 1
    67   26   64 1
    68   28   65 1
    69   28   66 1
    70   28   67 1
    71   30   68 1
    72   30   69 1
    73   32   70 1
    74   33   71 1
    75   34   72 1
    76   40   73 1
@<TRIPOS>PROPERTY_DATA
  Total_Score	| 10.4445
  Crash		| -1.3286
  Polar		| 7.1745
  FragIndex	| 1
  FragRMSD	| 0.444

