@<TRIPOS>MOLECULE
BindingDB_14691
 75 78 0 0 0
SMALL
NO_CHARGES


@<TRIPOS>ATOM
1    C        20.2211   14.3370   22.3984  C     
2    C        20.9110   13.2292   21.8471  C     
3    C        20.2287   12.0352   21.5470  C     
4    C        18.8478   11.9354   21.7758  C     
5    C        18.1442   13.0300   22.3095  C     
6    C        18.8289   14.2169   22.6277  C     
7    C        20.9138   15.5360   22.7221  C     
8    C        22.2545   17.9712   23.4113  C     
9    C        22.7627   16.7210   23.8286  C     
10   C        22.1086   15.5211   23.4834  C     
11   C        20.4201   16.7897   22.2932  C     
12   C        21.0890   17.9851   22.6103  C     
13   C        22.9299   19.2514   23.7675  C     
14   C        20.4456   19.2911   26.2829  C     
15   C        21.8695   19.8125   25.9509  C     
16   C        21.3767   21.1390   23.9431  C     
17   C        19.1604   21.2339   25.0942  C     
18   C        19.3702   20.4009   26.3834  C     
19   N        22.0469   20.1282   24.5402  N     
20   O        21.5027   21.3066   22.7340  O     
21   C        20.4087   22.0323   24.6053  C     
22   N        19.9268   23.1069   23.7670  N     
23   C        20.6246   24.1476   23.3248  C     
24   O        21.8357   24.2101   23.5062  O     
25   C        19.9677   25.1673   22.5139  C     
26   N        20.5783   26.4505   22.7685  N     
27   C        19.9608   27.5904   23.0232  C     
28   C        20.7372   28.7971   23.1705  C     
29   O        18.7381   27.6668   23.0185  O     
30   C        20.0346   24.8272   20.9935  C     
31   C        19.2932   25.8284   20.1664  C     
32   C        17.8644   27.8947   18.8432  C     
33   C        17.1763   26.8816   19.5428  C     
34   C        17.8837   25.8535   20.1851  C     
35   C        19.9805   26.8308   19.4478  C     
36   C        19.2785   27.8692   18.7907  C     
37   O        17.1634   28.8574   18.1791  O     
38   P        16.5316   28.4162   16.8169  P     
39   O        16.7974   27.0826   16.3466  O     
40   O        15.0004   28.6020   16.9348  O     
41   O        17.0038   29.3521   15.6839  O     
42   C        19.9723   28.8764   18.1427  C     
43   O        20.7983   28.6199   17.2696  O     
44   H        21.9126   13.2838   21.6440  H     
45   H        20.7400   11.2359   21.1600  H     
46   H        18.3553   11.0649   21.5525  H     
47   H        17.1387   12.9547   22.4741  H     
48   H        18.3004   14.9864   23.0374  H     
49   H        23.6257   16.6753   24.3885  H     
50   H        22.5048   14.6430   23.8098  H     
51   H        19.5710   16.8480   21.7183  H     
52   H        20.7018   18.8653   22.2659  H     
53   H        23.8519   19.0790   24.3310  H     
54   H        23.2645   19.6999   22.8310  H     
55   H        20.1445   18.5545   25.5329  H     
56   H        20.4736   18.7718   27.2479  H     
57   H        22.1005   20.6807   26.5688  H     
58   H        22.5620   19.0319   26.2745  H     
59   H        18.8076   20.5778   24.2907  H     
60   H        18.3457   21.9331   25.3131  H     
61   H        18.4182   19.9268   26.6373  H     
62   H        19.6242   21.0730   27.2070  H     
63   H        20.8868   22.5033   25.4681  H     
64   H        18.9956   23.0689   23.4890  H     
65   H        18.9139   25.1943   22.7990  H     
66   H        21.5492   26.4924   22.7102  H     
67   H        21.4091   28.7117   24.0272  H     
68   H        20.0980   29.6727   23.3202  H     
69   H        21.3318   28.9584   22.2702  H     
70   H        21.0911   24.7709   20.6893  H     
71   H        19.6010   23.8364   20.8185  H     
72   H        16.1540   26.9053   19.5963  H     
73   H        17.3551   25.1268   20.6775  H     
74   H        21.0040   26.8216   19.4422  H     
75   H        19.7477   29.8373   18.3152  H     
@<TRIPOS>BOND
     1    1    2 2
     2    1    6 1
     3    1    7 1
     4    2    3 1
     5    3    4 2
     6    4    5 1
     7    5    6 2
     8    7   10 1
     9    7   11 2
    10    8    9 1
    11    8   12 2
    12    8   13 1
    13    9   10 2
    14   11   12 1
    15   13   19 1
    16   14   15 1
    17   14   18 1
    18   15   19 1
    19   16   19 1
    20   16   20 2
    21   16   21 1
    22   17   18 1
    23   17   21 1
    24   21   22 1
    25   22   23 am
    26   23   24 2
    27   23   25 1
    28   25   26 1
    29   25   30 1
    30   26   27 am
    31   27   28 1
    32   27   29 2
    33   30   31 1
    34   31   34 1
    35   31   35 2
    36   32   33 1
    37   32   36 2
    38   32   37 1
    39   33   34 2
    40   35   36 1
    41   36   42 1
    42   37   38 1
    43   38   39 2
    44   38   40 1
    45   38   41 1
    46   42   43 2
    47    2   44 1
    48    3   45 1
    49    4   46 1
    50    5   47 1
    51    6   48 1
    52    9   49 1
    53   10   50 1
    54   11   51 1
    55   12   52 1
    56   13   53 1
    57   13   54 1
    58   14   55 1
    59   14   56 1
    60   15   57 1
    61   15   58 1
    62   17   59 1
    63   17   60 1
    64   18   61 1
    65   18   62 1
    66   21   63 1
    67   22   64 1
    68   25   65 1
    69   26   66 1
    70   28   67 1
    71   28   68 1
    72   28   69 1
    73   30   70 1
    74   30   71 1
    75   33   72 1
    76   34   73 1
    77   35   74 1
    78   42   75 1
@<TRIPOS>PROPERTY_DATA
  Total_Score	| 10.0554
  Crash		| -1.9904
  Polar		| 7.6935
  FragIndex	| 1
  FragRMSD	| 0.502

