@<TRIPOS>MOLECULE
BindingDB_14698
 74 77 0 0 0
SMALL
NO_CHARGES


@<TRIPOS>ATOM
1    C        20.1581   14.2931   22.4383  C     
2    C        20.8956   13.2147   21.8861  C     
3    C        20.2625   12.0062   21.5453  C     
4    C        18.8795   11.8543   21.7504  C     
5    C        18.1316   12.9124   22.2933  C     
6    C        18.7656   14.1202   22.6380  C     
7    C        20.8066   15.5152   22.7747  C     
8    C        22.1802   17.9558   23.3235  C     
9    C        22.6901   16.7226   23.7866  C     
10   C        22.0124   15.5201   23.5181  C     
11   C        20.2884   16.7520   22.3321  C     
12   C        20.9737   17.9539   22.5914  C     
13   C        22.8917   19.2376   23.5842  C     
14   C        20.5661   19.3601   26.2573  C     
15   C        21.9941   19.7980   25.8326  C     
16   C        21.4280   21.1828   23.8940  C     
17   C        19.3259   21.4262   25.2318  C     
18   C        19.5775   20.5322   26.4754  C     
19   N        22.0854   20.1269   24.4162  N     
20   O        21.4541   21.3595   22.6794  O     
21   C        20.6022   22.1256   24.6694  C     
22   N        20.1836   23.2762   23.9054  N     
23   C        20.9727   24.2177   23.3932  C     
24   O        22.1853   24.2073   23.5757  O     
25   C        20.4215   25.2128   22.6519  C     
26   N        20.7144   26.4573   23.0788  N     
27   C        19.9118   27.5042   23.2427  C     
28   C        20.4710   28.7220   23.7756  C     
29   O        18.7126   27.4589   22.9971  O     
30   C        19.6404   24.8984   21.5898  C     
31   C        19.0858   25.7653   20.6544  C     
32   C        19.8000   26.8577   20.1131  C     
33   C        17.7641   25.5292   20.2140  C     
34   C        17.1590   26.4008   19.2922  C     
35   C        19.2018   27.7302   19.1779  C     
36   C        19.9889   28.7276   18.6510  C     
37   O        20.6759   28.4890   17.6694  O     
38   C        17.8397   27.5369   18.7833  C     
39   C        17.1481   28.4496   17.8182  C     
40   C        15.7060   28.6560   18.0400  C     
41   O        15.2501   29.0888   19.2383  O     
42   O        14.8600   28.6437   16.9885  O     
43   H        21.8999   13.3037   21.7107  H     
44   H        20.8051   11.2361   21.1481  H     
45   H        18.4215   10.9739   21.5052  H     
46   H        17.1257   12.8009   22.4453  H     
47   H        18.2053   14.8723   23.0470  H     
48   H        23.5615   16.6901   24.3226  H     
49   H        22.4052   14.6435   23.8738  H     
50   H        19.4249   16.7897   21.7842  H     
51   H        20.5780   18.8280   22.2382  H     
52   H        23.8569   19.0703   24.0723  H     
53   H        23.1503   19.6691   22.6142  H     
54   H        20.1598   18.6686   25.5160  H     
55   H        20.6422   18.8134   27.2047  H     
56   H        22.3258   20.6456   26.4357  H     
57   H        22.6648   18.9755   26.0927  H     
58   H        18.8469   20.8344   24.4463  H     
59   H        18.6053   22.1902   25.5439  H     
60   H        18.6170   20.1125   26.7920  H     
61   H        19.9448   21.1590   27.2939  H     
62   H        21.1861   22.5163   25.5056  H     
63   H        19.2330   23.3508   23.7129  H     
64   H        21.6087   26.5729   23.4341  H     
65   H        20.9060   28.5235   24.7583  H     
66   H        19.7114   29.5030   23.8832  H     
67   H        21.2503   29.0952   23.1093  H     
68   H        19.4239   23.9305   21.4471  H     
69   H        20.7795   26.9972   20.3772  H     
70   H        17.2280   24.7264   20.5671  H     
71   H        16.1904   26.1982   19.0248  H     
72   H        20.2239   29.5180   19.2324  H     
73   H        17.5881   29.4451   17.8482  H     
74   H        17.3028   28.0529   16.8115  H     
@<TRIPOS>BOND
     1    1    2 2
     2    1    6 1
     3    1    7 1
     4    2    3 1
     5    3    4 2
     6    4    5 1
     7    5    6 2
     8    7   10 1
     9    7   11 2
    10    8    9 1
    11    8   12 2
    12    8   13 1
    13    9   10 2
    14   11   12 1
    15   13   19 1
    16   14   15 1
    17   14   18 1
    18   15   19 1
    19   16   19 1
    20   16   20 2
    21   16   21 1
    22   17   18 1
    23   17   21 1
    24   21   22 1
    25   22   23 am
    26   23   24 2
    27   23   25 1
    28   25   26 1
    29   25   30 2
    30   26   27 am
    31   27   28 1
    32   27   29 2
    33   30   31 1
    34   31   32 1
    35   31   33 2
    36   32   35 2
    37   33   34 1
    38   34   38 2
    39   35   36 1
    40   35   38 1
    41   36   37 2
    42   38   39 1
    43   39   40 1
    44   40   41 2
    45   40   42 1
    46    2   43 1
    47    3   44 1
    48    4   45 1
    49    5   46 1
    50    6   47 1
    51    9   48 1
    52   10   49 1
    53   11   50 1
    54   12   51 1
    55   13   52 1
    56   13   53 1
    57   14   54 1
    58   14   55 1
    59   15   56 1
    60   15   57 1
    61   17   58 1
    62   17   59 1
    63   18   60 1
    64   18   61 1
    65   21   62 1
    66   22   63 1
    67   26   64 1
    68   28   65 1
    69   28   66 1
    70   28   67 1
    71   30   68 1
    72   32   69 1
    73   33   70 1
    74   34   71 1
    75   36   72 1
    76   39   73 1
    77   39   74 1
@<TRIPOS>PROPERTY_DATA
  Total_Score	| 12.1158
  Crash		| -1.5643
  Polar		| 9.5779
  FragIndex	| 1
  FragRMSD	| 0.145

