@<TRIPOS>MOLECULE
BindingDB_50243665
 49 52 0 0 0
SMALL
NO_CHARGES


@<TRIPOS>ATOM
1    C         1.9860   74.6965   12.0363  C     
2    C         2.9606   74.4474   11.0372  C     
3    C         2.6152   73.3423   10.2101  C     
4    S         1.1167   72.7098   10.7863  S     
5    C         0.8909   73.8374   12.0578  C     
6    C         4.1231   75.2354   10.9267  C     
7    O         4.9609   74.9815   10.0682  O     
8    N         4.3382   76.2658   11.7445  N     
9    N         3.3248   72.8550    9.1412  N     
10   C         3.0760   71.7863    8.3880  C     
11   N         3.8649   71.5366    7.3672  N     
12   O         2.1550   70.9987    8.5757  O     
13   C        -0.1558   73.8435   12.9880  C     
14   C        -0.0049   73.1615   14.2140  C     
15   C        -1.0521   73.1520   15.1513  C     
16   C        -2.2459   73.8463   14.8812  C     
17   C        -2.3884   74.5528   13.6713  C     
18   C        -1.3471   74.5532   12.7274  C     
19   C         7.9130   77.7021   11.6721  C     
20   C         6.8550   76.5557   11.8204  C     
21   C         7.7020   78.7565   12.8115  C     
22   C         7.0299   75.9232   13.2437  C     
23   C         5.4300   77.2092   11.7172  C     
24   N         6.5560   78.3520   13.6954  N     
25   C         6.8445   77.0265   14.3392  C     
26   C         5.2909   78.2633   12.8861  C     
27   H         2.0524   75.4590   12.7193  H     
28   H         3.6673   76.4337   12.4193  H     
29   H         4.1028   73.3699    8.8855  H     
30   H         3.7156   70.7586    6.8031  H     
31   H         4.5949   72.1405    7.1642  H     
32   H         0.8714   72.6758   14.4329  H     
33   H        -0.9379   72.6541   16.0346  H     
34   H        -3.0062   73.8380   15.5626  H     
35   H        -3.2504   75.0664   13.4807  H     
36   H        -1.4678   75.0649   11.8470  H     
37   H         8.9231   77.2884   11.7323  H     
38   H         7.8041   78.1791   10.6951  H     
39   H         7.0011   75.7971   11.0418  H     
40   H         8.6157   78.8460   13.4084  H     
41   H         7.5029   79.7406   12.3760  H     
42   H         6.2969   75.1232   13.3886  H     
43   H         8.0263   75.4798   13.3364  H     
44   H         5.3599   77.7489   10.7677  H     
45   H         6.4348   79.0582   14.4284  H     
46   H         6.0258   76.7524   15.0078  H     
47   H         7.7450   77.1016   14.9547  H     
48   H         5.0554   79.2503   12.4756  H     
49   H         4.4659   78.0122   13.5625  H     
@<TRIPOS>BOND
     1    1    2 1
     2    1    5 2
     3    2    3 2
     4    2    6 1
     5    3    4 1
     6    3    9 1
     7    4    5 1
     8    5   13 1
     9    6    7 2
    10    6    8 am
    11   23    8 1
    12    9   10 am
    13   10   11 am
    14   10   12 2
    15   13   14 2
    16   13   18 1
    17   14   15 1
    18   15   16 2
    19   16   17 1
    20   17   18 2
    21   19   20 1
    22   19   21 1
    23   20   22 1
    24   20   23 1
    25   21   24 1
    26   22   25 1
    27   23   26 1
    28   24   25 1
    29   24   26 1
    30    1   27 1
    31    8   28 1
    32    9   29 1
    33   11   30 1
    34   11   31 1
    35   14   32 1
    36   15   33 1
    37   16   34 1
    38   17   35 1
    39   18   36 1
    40   19   37 1
    41   19   38 1
    42   20   39 1
    43   21   40 1
    44   21   41 1
    45   22   42 1
    46   22   43 1
    47   23   44 1
    48   24   45 1
    49   25   46 1
    50   25   47 1
    51   26   48 1
    52   26   49 1
@<TRIPOS>PROPERTY_DATA
  Total_Score	| 6.0880
  Crash		| -1.4627
  Polar		| 2.0619
  FragIndex	| 1
  FragRMSD	| 1.209

