@<TRIPOS>MOLECULE
BindingDB_50243259
 45 47 0 0 0
SMALL
NO_CHARGES


@<TRIPOS>ATOM
1    C         1.8770   74.1535   12.3863  C     
2    C         2.8968   74.0481   11.4074  C     
3    C         2.5838   73.1203   10.3864  C     
4    S         1.0311   72.4817   10.7701  S     
5    C         0.7362   73.3532   12.2232  C     
6    C         4.0634   74.8149   11.4850  C     
7    O         4.6995   75.0245   10.4629  O     
8    N         4.4690   75.3210   12.6486  N     
9    N         3.3605   72.7782    9.3115  N     
10   C         3.1655   71.8074    8.4267  C     
11   N         4.0421   71.6422    7.4650  N     
12   O         2.2307   71.0212    8.4527  O     
13   C        -0.4206   73.2598   13.0561  C     
14   C        -1.4901   72.3903   12.7188  C     
15   C        -2.6296   72.2812   13.5366  C     
16   C        -2.7289   73.0430   14.7117  C     
17   C        -1.6852   73.9122   15.0680  C     
18   C        -0.5448   74.0172   14.2508  C     
19   C         5.5839   76.1634   12.9946  C     
20   C         6.9214   75.9636   12.2223  C     
21   N         7.0085   76.7285   10.9548  N     
22   C         6.6812   78.1658   11.0692  C     
23   C         5.2723   78.3623   11.6762  C     
24   C         5.1757   77.6646   13.0542  C     
25   H         1.9581   74.8029   13.1688  H     
26   H         3.9226   75.0851   13.4156  H     
27   H         4.1678   73.2984    9.1876  H     
28   H         3.9299   70.9206    6.8205  H     
29   H         4.8085   72.2325    7.3993  H     
30   H        -1.4585   71.8213   11.8701  H     
31   H        -3.3882   71.6477   13.2747  H     
32   H        -3.5581   72.9649   15.3049  H     
33   H        -1.7533   74.4663   15.9249  H     
34   H         0.1904   74.6569   14.5529  H     
35   H         5.7999   75.8717   14.0277  H     
36   H         7.7538   76.2757   12.8590  H     
37   H         7.0547   74.9038   12.0040  H     
38   H         7.9524   76.6378   10.5812  H     
39   H         6.3745   76.3115   10.2732  H     
40   H         7.4321   78.6689   11.6837  H     
41   H         6.7091   78.6092   10.0725  H     
42   H         5.0704   79.4289   11.7920  H     
43   H         4.5194   77.9465   11.0015  H     
44   H         4.1590   77.7657   13.4455  H     
45   H         5.8415   78.1868   13.7494  H     
@<TRIPOS>BOND
     1    1    2 1
     2    1    5 2
     3    2    3 2
     4    2    6 1
     5    3    4 1
     6    3    9 1
     7    4    5 1
     8    5   13 1
     9    6    7 2
    10    6    8 am
    11   19    8 1
    12    9   10 am
    13   10   11 am
    14   10   12 2
    15   13   14 2
    16   13   18 1
    17   14   15 1
    18   15   16 2
    19   16   17 1
    20   17   18 2
    21   19   20 1
    22   19   24 1
    23   20   21 1
    24   21   22 1
    25   22   23 1
    26   23   24 1
    27    1   25 1
    28    8   26 1
    29    9   27 1
    30   11   28 1
    31   11   29 1
    32   14   30 1
    33   15   31 1
    34   16   32 1
    35   17   33 1
    36   18   34 1
    37   19   35 1
    38   20   36 1
    39   20   37 1
    40   21   38 1
    41   21   39 1
    42   22   40 1
    43   22   41 1
    44   23   42 1
    45   23   43 1
    46   24   44 1
    47   24   45 1
@<TRIPOS>PROPERTY_DATA
  Total_Score	| 5.9771
  Crash		| -0.8220
  Polar		| 3.6754
  FragIndex	| 1
  FragRMSD	| 1.012

