@<TRIPOS>MOLECULE
BindingDB_50243047
 49 51 0 0 0
SMALL
NO_CHARGES


@<TRIPOS>ATOM
1    C         2.3464   74.1691   11.9375  C     
2    C         3.2865   74.0083   10.8832  C     
3    C         2.8661   73.0573    9.9285  C     
4    S         1.3243   72.4837   10.4407  S     
5    C         1.1688   73.4021   11.8858  C     
6    C         4.4925   74.7235   10.8212  C     
7    O         5.2162   74.6228    9.8356  O     
8    N         4.8722   75.5318   11.8062  N     
9    N         3.5590   72.6464    8.8225  N     
10   C         3.3151   71.6140    8.0348  C     
11   N         4.1706   71.3553    7.0753  N     
12   O         2.3642   70.8557    8.1596  O     
13   C         0.0742   73.3421   12.8078  C     
14   C        -0.9796   72.4049   12.6336  C     
15   C        -2.0654   72.2825   13.5450  C     
16   C        -2.0818   73.1640   14.6549  C     
17   C        -1.0609   74.1106   14.8456  C     
18   C         0.0023   74.1962   13.9329  C     
19   C         6.0483   76.3554   11.8712  C     
20   C         5.6263   77.8414   12.0559  C     
21   C         6.8633   78.7521   12.2721  C     
22   C         7.7697   78.2224   13.4115  C     
23   N         8.1199   76.7970   13.2014  N     
24   C         6.9498   75.9031   13.0523  C     
25   C        -3.0833   71.3350   13.3753  C     
26   N        -3.0740   70.4135   12.4330  N     
27   O        -4.0594   71.3022   14.1137  O     
28   H         2.5150   74.8117   12.7079  H     
29   H         4.2963   75.5733   12.5784  H     
30   H         4.3693   73.1356    8.6155  H     
31   H         4.0472   70.5766    6.5086  H     
32   H         4.9516   71.9178    6.9542  H     
33   H        -0.9599   71.7890   11.8207  H     
34   H        -2.8351   73.1289   15.3465  H     
35   H        -1.0889   74.7389   15.6548  H     
36   H         0.7212   74.9006   14.1049  H     
37   H         6.6401   76.2881   10.9531  H     
38   H         5.0868   78.1815   11.1697  H     
39   H         4.9561   77.9403   12.9141  H     
40   H         7.4433   78.7978   11.3449  H     
41   H         6.5345   79.7638   12.5127  H     
42   H         8.6931   78.8064   13.4422  H     
43   H         7.2670   78.3394   14.3755  H     
44   H         8.6825   76.7286   12.3537  H     
45   H         8.6863   76.4620   13.9803  H     
46   H         6.3784   75.8913   13.9871  H     
47   H         7.3091   74.8862   12.8694  H     
48   H        -3.8054   69.7806   12.3722  H     
49   H        -2.3364   70.3501   11.8070  H     
@<TRIPOS>BOND
     1    1    2 1
     2    1    5 2
     3    2    3 2
     4    2    6 1
     5    3    4 1
     6    3    9 1
     7    4    5 1
     8    5   13 1
     9    6    7 2
    10    6    8 am
    11   19    8 1
    12    9   10 am
    13   10   11 am
    14   10   12 2
    15   13   14 2
    16   13   18 1
    17   14   15 1
    18   15   16 2
    19   15   25 1
    20   16   17 1
    21   17   18 2
    22   19   20 1
    23   19   24 1
    24   20   21 1
    25   21   22 1
    26   22   23 1
    27   23   24 1
    28   25   26 am
    29   25   27 2
    30    1   28 1
    31    8   29 1
    32    9   30 1
    33   11   31 1
    34   11   32 1
    35   14   33 1
    36   16   34 1
    37   17   35 1
    38   18   36 1
    39   19   37 1
    40   20   38 1
    41   20   39 1
    42   21   40 1
    43   21   41 1
    44   22   42 1
    45   22   43 1
    46   23   44 1
    47   23   45 1
    48   24   46 1
    49   24   47 1
    50   26   48 1
    51   26   49 1
@<TRIPOS>PROPERTY_DATA
  Total_Score	| 6.6230
  Crash		| -0.4887
  Polar		| 3.7156
  FragIndex	| 1
  FragRMSD	| 0.285

