@<TRIPOS>MOLECULE
BindingDB_50242824
 45 47 0 0 0
SMALL
NO_CHARGES


@<TRIPOS>ATOM
1    C         2.2202   74.2765   12.0603  C     
2    C         3.1586   74.0506   11.0173  C     
3    C         2.7287   73.0593   10.1041  C     
4    S         1.1768   72.5387   10.6351  S     
5    C         1.0276   73.5327   12.0294  C     
6    C         4.3720   74.7507   10.9227  C     
7    O         5.0965   74.5791    9.9490  O     
8    N         4.7573   75.6080   11.8633  N     
9    N         3.4151   72.5789    9.0205  N     
10   C         3.1027   71.5718    8.2204  C     
11   N         3.9601   71.2421    7.2830  N     
12   O         2.0762   70.9135    8.3006  O     
13   C        -0.0873   73.5547   12.9250  C     
14   C        -0.1629   74.4565   14.0191  C     
15   C        -1.2749   74.4722   14.8818  C     
16   C        -2.3413   73.5864   14.6760  C     
17   C        -2.2891   72.6781   13.6049  C     
18   C        -1.1778   72.6673   12.7431  C     
19   C         5.9661   76.3833   11.8978  C     
20   C         5.6279   77.8968   12.0090  C     
21   C         6.9185   78.7433   12.1792  C     
22   C         7.7992   78.2058   13.3371  C     
23   N         8.0584   76.7578   13.1699  N     
24   C         6.8302   75.9357   13.1055  C     
25   F        -3.3776   73.6002   15.4701  F     
26   H         2.3945   74.9504   12.8042  H     
27   H         4.1747   75.7103   12.6289  H     
28   H         4.2684   73.0000    8.8337  H     
29   H         3.7724   70.4952    6.6924  H     
30   H         4.7953   71.7303    7.1927  H     
31   H         0.5890   75.1183   14.2038  H     
32   H        -1.3052   75.1331   15.6593  H     
33   H        -3.0610   72.0229   13.4474  H     
34   H        -1.1855   71.9877   11.9786  H     
35   H         6.5641   76.2403   10.9908  H     
36   H         5.0989   78.2231   11.1073  H     
37   H         4.9694   78.0724   12.8661  H     
38   H         7.4922   78.7143   11.2490  H     
39   H         6.6527   79.7828   12.3756  H     
40   H         8.7540   78.7338   13.3439  H     
41   H         7.3054   78.3835   14.2970  H     
42   H         8.5705   76.6262   12.2955  H     
43   H         8.6494   76.4232   13.9330  H     
44   H         6.2706   76.0306   14.0416  H     
45   H         7.1168   74.8874   12.9899  H     
@<TRIPOS>BOND
     1    1    2 1
     2    1    5 2
     3    2    3 2
     4    2    6 1
     5    3    4 1
     6    3    9 1
     7    4    5 1
     8    5   13 1
     9    6    7 2
    10    6    8 am
    11   19    8 1
    12    9   10 am
    13   10   11 am
    14   10   12 2
    15   13   14 2
    16   13   18 1
    17   14   15 1
    18   15   16 2
    19   16   17 1
    20   16   25 1
    21   17   18 2
    22   19   20 1
    23   19   24 1
    24   20   21 1
    25   21   22 1
    26   22   23 1
    27   23   24 1
    28    1   26 1
    29    8   27 1
    30    9   28 1
    31   11   29 1
    32   11   30 1
    33   14   31 1
    34   15   32 1
    35   17   33 1
    36   18   34 1
    37   19   35 1
    38   20   36 1
    39   20   37 1
    40   21   38 1
    41   21   39 1
    42   22   40 1
    43   22   41 1
    44   23   42 1
    45   23   43 1
    46   24   44 1
    47   24   45 1
@<TRIPOS>PROPERTY_DATA
  Total_Score	| 6.1453
  Crash		| -0.2702
  Polar		| 3.6220
  FragIndex	| 1
  FragRMSD	| 0.108

