@<TRIPOS>MOLECULE
BindingDB_50243260
 48 50 0 0 0
SMALL
NO_CHARGES


@<TRIPOS>ATOM
1    C         2.1871   74.3039   12.0931  C     
2    C         3.1475   74.0670   11.0696  C     
3    C         2.7214   73.0809   10.1516  C     
4    S         1.1601   72.5678   10.6603  S     
5    C         0.9921   73.5633   12.0498  C     
6    C         4.3783   74.7374   10.9914  C     
7    O         5.1451   74.5143   10.0616  O     
8    N         4.7437   75.6276   11.9075  N     
9    N         3.4185   72.6127    9.0744  N     
10   C         3.1016   71.6338    8.2424  C     
11   N         3.9674   71.3236    7.3018  N     
12   O         2.0706   70.9841    8.2927  O     
13   C        -0.1376   73.5835   12.9285  C     
14   C        -0.2008   74.4351   14.0617  C     
15   C        -1.3224   74.4464   14.9138  C     
16   C        -2.4134   73.6010   14.6571  C     
17   C        -2.3777   72.7456   13.5480  C     
18   C        -1.2560   72.7390   12.6962  C     
19   C         5.9689   76.3758   11.9682  C     
20   C         5.6630   77.8981   11.8825  C     
21   N         6.8876   78.7519   12.0184  N     
22   C         7.6491   78.4568   13.2723  C     
23   C         7.9658   76.9525   13.4812  C     
24   C         6.7034   76.0710   13.2995  C     
25   C         7.7317   78.8029   10.7830  C     
26   H         2.3523   74.9832   12.8340  H     
27   H         4.1216   75.7990   12.6279  H     
28   H         4.2750   73.0284    8.9065  H     
29   H         3.7770   70.5961    6.6812  H     
30   H         4.8107   71.8056    7.2340  H     
31   H         0.5691   75.0678   14.2880  H     
32   H        -1.3482   75.0732   15.7231  H     
33   H        -3.2297   73.6087   15.2728  H     
34   H        -3.1694   72.1249   13.3540  H     
35   H        -1.2766   72.1007   11.8986  H     
36   H         6.6393   76.1127   11.1446  H     
37   H         5.1528   78.1170   10.9389  H     
38   H         4.9666   78.1728   12.6807  H     
39   H         6.5438   79.7107   12.1322  H     
40   H         8.5788   79.0293   13.2999  H     
41   H         7.0435   78.8018   14.1166  H     
42   H         8.7385   76.6417   12.7739  H     
43   H         8.3615   76.8080   14.4924  H     
44   H         6.0267   76.2418   14.1411  H     
45   H         7.0006   75.0175   13.3163  H     
46   H         8.1481   77.8275   10.5278  H     
47   H         8.5570   79.5028   10.9196  H     
48   H         7.1348   79.1603    9.9391  H     
@<TRIPOS>BOND
     1    1    2 1
     2    1    5 2
     3    2    3 2
     4    2    6 1
     5    3    4 1
     6    3    9 1
     7    4    5 1
     8    5   13 1
     9    6    7 2
    10    6    8 am
    11   19    8 1
    12    9   10 am
    13   10   11 am
    14   10   12 2
    15   13   14 2
    16   13   18 1
    17   14   15 1
    18   15   16 2
    19   16   17 1
    20   17   18 2
    21   19   20 1
    22   19   24 1
    23   20   21 1
    24   21   22 1
    25   21   25 1
    26   22   23 1
    27   23   24 1
    28    1   26 1
    29    8   27 1
    30    9   28 1
    31   11   29 1
    32   11   30 1
    33   14   31 1
    34   15   32 1
    35   16   33 1
    36   17   34 1
    37   18   35 1
    38   19   36 1
    39   20   37 1
    40   20   38 1
    41   21   39 1
    42   22   40 1
    43   22   41 1
    44   23   42 1
    45   23   43 1
    46   24   44 1
    47   24   45 1
    48   25   46 1
    49   25   47 1
    50   25   48 1
@<TRIPOS>PROPERTY_DATA
  Total_Score	| 6.1117
  Crash		| -0.2252
  Polar		| 2.2444
  FragIndex	| 1
  FragRMSD	| 1.044

