@<TRIPOS>MOLECULE
BindingDB_50243098
 47 49 0 0 0
SMALL
NO_CHARGES


@<TRIPOS>ATOM
1    C         2.2004   74.2872   12.0622  C     
2    C         3.1440   74.0554   11.0251  C     
3    C         2.7264   73.0553   10.1212  C     
4    S         1.1774   72.5280   10.6486  S     
5    C         1.0157   73.5315   12.0339  C     
6    C         4.3557   74.7505   10.9360  C     
7    O         5.1227   74.5135   10.0073  O     
8    N         4.7183   75.6445   11.8483  N     
9    N         3.4188   72.5822    9.0392  N     
10   C         3.1080   71.5875    8.2218  C     
11   N         3.9666   71.2800    7.2760  N     
12   O         2.0816   70.9311    8.2974  O     
13   C        -0.1008   73.5530   12.9261  C     
14   C        -1.1873   72.6634   12.7313  C     
15   C        -2.3041   72.6691   13.5853  C     
16   C        -2.3655   73.5719   14.6598  C     
17   C        -1.2970   74.4614   14.8803  C     
18   C        -0.1805   74.4496   14.0248  C     
19   C         5.9376   76.4043   11.8853  C     
20   C         5.6184   77.9221   11.9991  C     
21   C         6.9235   78.7481   12.1426  C     
22   C         7.8063   78.2050   13.2984  C     
23   N         8.0493   76.7518   13.1396  N     
24   C         6.8052   75.9480   13.0906  C     
25   N        -3.4460   73.5785   15.4631  N     
26   H         2.3666   74.9635   12.8044  H     
27   H         4.1080   75.7992   12.5841  H     
28   H         4.2694   73.0065    8.8609  H     
29   H         3.7831   70.5461    6.6674  H     
30   H         4.7954   71.7772    7.1928  H     
31   H        -1.1899   71.9958   11.9603  H     
32   H        -3.0713   72.0162   13.4103  H     
33   H        -1.3304   75.1196   15.6635  H     
34   H         0.5734   75.1127   14.2196  H     
35   H         6.5251   76.2537   10.9766  H     
36   H         5.0727   78.2506   11.1134  H     
37   H         4.9821   78.1011   12.8690  H     
38   H         7.4866   78.7062   11.2057  H     
39   H         6.6758   79.7922   12.3357  H     
40   H         8.7692   78.7229   13.2921  H     
41   H         7.3254   78.3944   14.2591  H     
42   H         8.5472   76.6130   12.2595  H     
43   H         8.6425   76.4123   13.9000  H     
44   H         6.2547   76.0545   14.0307  H     
45   H         7.0759   74.8952   12.9750  H     
46   H        -3.4997   74.2006   16.2057  H     
47   H        -4.1769   72.9617   15.2959  H     
@<TRIPOS>BOND
     1    1    2 1
     2    1    5 2
     3    2    3 2
     4    2    6 1
     5    3    4 1
     6    3    9 1
     7    4    5 1
     8    5   13 1
     9    6    7 2
    10    6    8 am
    11   19    8 1
    12    9   10 am
    13   10   11 am
    14   10   12 2
    15   13   14 2
    16   13   18 1
    17   14   15 1
    18   15   16 2
    19   16   17 1
    20   16   25 1
    21   17   18 2
    22   19   20 1
    23   19   24 1
    24   20   21 1
    25   21   22 1
    26   22   23 1
    27   23   24 1
    28    1   26 1
    29    8   27 1
    30    9   28 1
    31   11   29 1
    32   11   30 1
    33   14   31 1
    34   15   32 1
    35   17   33 1
    36   18   34 1
    37   19   35 1
    38   20   36 1
    39   20   37 1
    40   21   38 1
    41   21   39 1
    42   22   40 1
    43   22   41 1
    44   23   42 1
    45   23   43 1
    46   24   44 1
    47   24   45 1
    48   25   46 1
    49   25   47 1
@<TRIPOS>PROPERTY_DATA
  Total_Score	| 6.1467
  Crash		| -0.2803
  Polar		| 3.6286
  FragIndex	| 1
  FragRMSD	| 0.124

