@<TRIPOS>MOLECULE
BindingDB_50243099
 53 55 0 0 0
SMALL
NO_CHARGES


@<TRIPOS>ATOM
1    C         2.1818   74.4803   12.0379  C     
2    C         3.1139   74.1834   11.0073  C     
3    C         2.6492   73.1631   10.1396  C     
4    S         1.0872   72.6758   10.6872  S     
5    C         0.9905   73.7530   12.0171  C     
6    C         4.3426   74.8468   10.8968  C     
7    O         5.0258   74.7099    9.8876  O     
8    N         4.7907   75.6354   11.8688  N     
9    N         3.3328   72.6309    9.0825  N     
10   C         3.0219   71.5981    8.3180  C     
11   N         3.8678   71.2529    7.3765  N     
12   O         2.0063   70.9255    8.4394  O     
13   C        -0.0526   73.7951   12.9531  C     
14   C         0.0634   73.0849   14.1636  C     
15   C        -0.9880   73.0909   15.0951  C     
16   C        -2.1954   73.8265   14.8859  C     
17   C        -2.2600   74.5583   13.6626  C     
18   C        -1.2228   74.5373   12.7100  C     
19   C         6.0082   76.3927   11.9053  C     
20   C         5.6701   77.9033   12.0578  C     
21   C         6.9541   78.7501   12.2561  C     
22   C         7.8195   78.1911   13.4129  C     
23   N         8.1051   76.7534   13.2133  N     
24   C         6.8949   75.9107   13.0880  C     
25   N        -3.2245   73.8393   15.8210  N     
26   C        -4.4429   74.5977   15.5916  C     
27   C        -3.1372   73.0823   17.0640  C     
28   H         2.3398   75.1898   12.7568  H     
29   H         4.2369   75.7054   12.6611  H     
30   H         4.1841   73.0412    8.8816  H     
31   H         3.6826   70.4865    6.8119  H     
32   H         4.6912   71.7525    7.2554  H     
33   H         0.9110   72.5483   14.3678  H     
34   H        -0.8326   72.5492   15.9503  H     
35   H        -3.0794   75.1215   13.4228  H     
36   H        -1.3208   75.0913   11.8555  H     
37   H         6.5878   76.2647   10.9844  H     
38   H         5.1391   78.2492   11.1659  H     
39   H         5.0095   78.0539   12.9170  H     
40   H         7.5346   78.7520   11.3303  H     
41   H         6.6798   79.7806   12.4786  H     
42   H         8.7674   78.7312   13.4476  H     
43   H         7.3124   78.3390   14.3698  H     
44   H         8.6569   76.6543   12.3594  H     
45   H         8.6694   76.4079   13.9919  H     
46   H         6.3313   75.9334   14.0262  H     
47   H         7.2150   74.8801   12.9156  H     
48   H        -4.1965   75.6488   15.4150  H     
49   H        -5.1440   74.5871   16.4291  H     
50   H        -4.9767   74.2017   14.7194  H     
51   H        -2.9546   72.0262   16.8379  H     
52   H        -4.0427   73.1080   17.6719  H     
53   H        -2.3199   73.4611   17.6923  H     
@<TRIPOS>BOND
     1    1    2 1
     2    1    5 2
     3    2    3 2
     4    2    6 1
     5    3    4 1
     6    3    9 1
     7    4    5 1
     8    5   13 1
     9    6    7 2
    10    6    8 am
    11   19    8 1
    12    9   10 am
    13   10   11 am
    14   10   12 2
    15   13   14 2
    16   13   18 1
    17   14   15 1
    18   15   16 2
    19   16   17 1
    20   16   25 1
    21   17   18 2
    22   19   20 1
    23   19   24 1
    24   20   21 1
    25   21   22 1
    26   22   23 1
    27   23   24 1
    28   25   26 1
    29   25   27 1
    30    1   28 1
    31    8   29 1
    32    9   30 1
    33   11   31 1
    34   11   32 1
    35   14   33 1
    36   15   34 1
    37   17   35 1
    38   18   36 1
    39   19   37 1
    40   20   38 1
    41   20   39 1
    42   21   40 1
    43   21   41 1
    44   22   42 1
    45   22   43 1
    46   23   44 1
    47   23   45 1
    48   24   46 1
    49   24   47 1
    50   26   48 1
    51   26   49 1
    52   26   50 1
    53   27   51 1
    54   27   52 1
    55   27   53 1
@<TRIPOS>PROPERTY_DATA
  Total_Score	| 6.7513
  Crash		| -0.8994
  Polar		| 3.6070
  FragIndex	| 1
  FragRMSD	| 0.703

