@<TRIPOS>MOLECULE
BindingDB_50243048
 48 50 0 0 0
SMALL
NO_CHARGES


@<TRIPOS>ATOM
1    C         2.2246   74.2849   12.0311  C     
2    C         3.1723   74.0528   10.9982  C     
3    C         2.7523   73.0498   10.0933  C     
4    S         1.2039   72.5197   10.6272  S     
5    C         1.0394   73.5346   12.0057  C     
6    C         4.3792   74.7630   10.9097  C     
7    O         5.0878   74.6264    9.9214  O     
8    N         4.7760   75.5898   11.8704  N     
9    N         3.4513   72.5701    9.0193  N     
10   C         3.1306   71.5903    8.1904  C     
11   N         3.9846   71.2810    7.2419  N     
12   O         2.0964   70.9442    8.2607  O     
13   C        -0.0789   73.5664   12.8956  C     
14   C        -1.1638   72.6709   12.7275  C     
15   C        -2.2741   72.6942   13.5896  C     
16   C        -2.3409   73.6186   14.6505  C     
17   C        -1.2668   74.5144   14.8343  C     
18   C        -0.1524   74.4874   13.9719  C     
19   C         5.9755   76.3803   11.9182  C     
20   C         5.6156   77.8841   12.0852  C     
21   C         6.8849   78.7489   12.3085  C     
22   C         7.7608   78.1751   13.4540  C     
23   N         8.0611   76.7450   13.2113  N     
24   C         6.8536   75.8981   13.1043  C     
25   C        -3.5261   73.6320   15.5411  C     
26   H         2.3896   74.9772   12.7617  H     
27   H         4.2132   75.6499   12.6562  H     
28   H         4.3052   72.9879    8.8476  H     
29   H         3.7905   70.5533    6.6305  H     
30   H         4.8152   71.7741    7.1527  H     
31   H        -1.1682   71.9863   11.9686  H     
32   H        -3.0406   72.0336   13.4316  H     
33   H        -1.2858   75.1948   15.5970  H     
34   H         0.5973   75.1551   14.1476  H     
35   H         6.5641   76.2767   10.9982  H     
36   H         5.0926   78.2363   11.1898  H     
37   H         4.9365   78.0094   12.9362  H     
38   H         7.4737   78.7794   11.3864  H     
39   H         6.5955   79.7713   12.5517  H     
40   H         8.7016   78.7256   13.5041  H     
41   H         7.2494   78.2849   14.4137  H     
42   H         8.5803   76.6764   12.3305  H     
43   H         8.6518   76.3858   13.9660  H     
44   H         6.2917   75.9302   14.0421  H     
45   H         7.1665   74.8674   12.9343  H     
46   H        -4.4238   73.8362   14.9544  H     
47   H        -3.4468   74.3930   16.3194  H     
48   H        -3.6336   72.6591   16.0242  H     
@<TRIPOS>BOND
     1    1    2 1
     2    1    5 2
     3    2    3 2
     4    2    6 1
     5    3    4 1
     6    3    9 1
     7    4    5 1
     8    5   13 1
     9    6    7 2
    10    6    8 am
    11   19    8 1
    12    9   10 am
    13   10   11 am
    14   10   12 2
    15   13   14 2
    16   13   18 1
    17   14   15 1
    18   15   16 2
    19   16   17 1
    20   16   25 1
    21   17   18 2
    22   19   20 1
    23   19   24 1
    24   20   21 1
    25   21   22 1
    26   22   23 1
    27   23   24 1
    28    1   26 1
    29    8   27 1
    30    9   28 1
    31   11   29 1
    32   11   30 1
    33   14   31 1
    34   15   32 1
    35   17   33 1
    36   18   34 1
    37   19   35 1
    38   20   36 1
    39   20   37 1
    40   21   38 1
    41   21   39 1
    42   22   40 1
    43   22   41 1
    44   23   42 1
    45   23   43 1
    46   24   44 1
    47   24   45 1
    48   25   46 1
    49   25   47 1
    50   25   48 1
@<TRIPOS>PROPERTY_DATA
  Total_Score	| 6.1363
  Crash		| -0.2956
  Polar		| 3.5919
  FragIndex	| 1
  FragRMSD	| 0.095

