@<TRIPOS>MOLECULE
BindingDB_50242821
 46 48 0 0 0
SMALL
NO_CHARGES


@<TRIPOS>ATOM
1    C         2.1916   74.3326   12.0216  C     
2    C         3.1412   74.0820   10.9932  C     
3    C         2.7317   73.0492   10.1215  C     
4    S         1.1935   72.5064   10.6780  S     
5    C         1.0212   73.5558   12.0273  C     
6    C         4.3349   74.7961   10.8797  C     
7    O         4.9869   74.7263    9.8476  O     
8    N         4.7748   75.5645   11.8704  N     
9    N         3.4405   72.5444    9.0630  N     
10   C         3.1168   71.5552    8.2447  C     
11   N         3.9868   71.2057    7.3270  N     
12   O         2.0642   70.9345    8.2929  O     
13   C        -0.0803   73.5923   12.9326  C     
14   C        -1.2731   72.8765   12.6443  C     
15   C        -2.3717   72.8935   13.5206  C     
16   C        -2.3002   73.6189   14.7181  C     
17   C        -1.1278   74.3323   15.0285  C     
18   C        -0.0314   74.3184   14.1469  C     
19   C         5.9700   76.3574   11.9089  C     
20   C         5.5965   77.8594   12.0743  C     
21   C         6.8619   78.7345   12.2698  C     
22   C         7.7553   78.1848   13.4113  C     
23   N         8.0634   76.7521   13.1935  N     
24   C         6.8639   75.8898   13.0903  C     
25   O        -3.3599   73.6409   15.5593  O     
26   H         2.3350   75.0698   12.7190  H     
27   H         4.2360   75.5859   12.6771  H     
28   H         4.3048   72.9455    8.9024  H     
29   H         3.7890   70.4744    6.7218  H     
30   H         4.8378   71.6673    7.2626  H     
31   H        -1.3697   72.3353   11.7741  H     
32   H        -3.2182   72.3746   13.2838  H     
33   H        -1.0743   74.8666   15.9046  H     
34   H         0.7980   74.8378   14.4152  H     
35   H         6.5529   76.2548   10.9857  H     
36   H         5.0509   78.2008   11.1900  H     
37   H         4.9384   77.9835   12.9418  H     
38   H         7.4347   78.7543   11.3390  H     
39   H         6.5647   79.7572   12.5022  H     
40   H         8.6937   78.7441   13.4383  H     
41   H         7.2561   78.3122   14.3747  H     
42   H         8.5890   76.6732   12.3165  H     
43   H         8.6582   76.4100   13.9505  H     
44   H         6.3086   75.9198   14.0307  H     
45   H         7.1883   74.8613   12.9232  H     
46   H        -3.0315   73.2173   16.3901  H     
@<TRIPOS>BOND
     1    1    2 1
     2    1    5 2
     3    2    3 2
     4    2    6 1
     5    3    4 1
     6    3    9 1
     7    4    5 1
     8    5   13 1
     9    6    7 2
    10    6    8 am
    11   19    8 1
    12    9   10 am
    13   10   11 am
    14   10   12 2
    15   13   14 2
    16   13   18 1
    17   14   15 1
    18   15   16 2
    19   16   17 1
    20   16   25 1
    21   17   18 2
    22   19   20 1
    23   19   24 1
    24   20   21 1
    25   21   22 1
    26   22   23 1
    27   23   24 1
    28    1   26 1
    29    8   27 1
    30    9   28 1
    31   11   29 1
    32   11   30 1
    33   14   31 1
    34   15   32 1
    35   17   33 1
    36   18   34 1
    37   19   35 1
    38   20   36 1
    39   20   37 1
    40   21   38 1
    41   21   39 1
    42   22   40 1
    43   22   41 1
    44   23   42 1
    45   23   43 1
    46   24   44 1
    47   24   45 1
    48   25   46 1
@<TRIPOS>PROPERTY_DATA
  Total_Score	| 5.9943
  Crash		| -0.3370
  Polar		| 3.6335
  FragIndex	| 1
  FragRMSD	| 0.175

