@<TRIPOS>MOLECULE
BindingDB_50243664
 49 52 0 0 0
SMALL
NO_CHARGES


@<TRIPOS>ATOM
1    C         2.1914   74.3894   12.1466  C     
2    C         3.0800   74.1448   11.0677  C     
3    C         2.5753   73.1825   10.1588  C     
4    S         0.9919   72.7510   10.6847  S     
5    C         0.9627   73.7235   12.0995  C     
6    C         4.3045   74.8162   10.9280  C     
7    O         4.9452   74.6866    9.8974  O     
8    N         4.7673   75.6505   11.8565  N     
9    N         3.2356   72.6760    9.0717  N     
10   C         2.9222   71.6317    8.3222  C     
11   N         3.7476   71.2858    7.3589  N     
12   O         1.9330   70.9383    8.4846  O     
13   C        -0.0941   73.7946   13.0287  C     
14   C        -0.0163   73.1009   14.2555  C     
15   C        -1.0872   73.1394   15.1682  C     
16   C        -2.2419   73.8837   14.8679  C     
17   C        -2.3223   74.5915   13.6562  C     
18   C        -1.2546   74.5473   12.7402  C     
19   C         5.3810   77.9424   13.8047  C     
20   C         5.7705   77.8849   12.2861  C     
21   C         6.5320   77.3159   14.6626  C     
22   C         7.1342   78.6415   12.1319  C     
23   C         6.0033   76.3944   11.8500  C     
24   N         7.6147   76.7763   13.7682  N     
25   C         8.2273   77.8996   12.9753  C     
26   C         7.0407   75.7452   12.8389  C     
27   H         2.3999   75.0422   12.9084  H     
28   H         4.2286   75.7584   12.6517  H     
29   H         4.0756   73.0981    8.8487  H     
30   H         3.5551   70.5051    6.8145  H     
31   H         4.5590   71.7946    7.1984  H     
32   H         0.8113   72.5452   14.4789  H     
33   H        -1.0280   72.6220   16.0473  H     
34   H        -3.0205   73.9127   15.5304  H     
35   H        -3.1599   75.1339   13.4337  H     
36   H        -1.3237   75.0737   11.8715  H     
37   H         5.2103   78.9795   14.1072  H     
38   H         4.4482   77.3977   13.9696  H     
39   H         5.0003   78.3654   11.6706  H     
40   H         6.9515   78.0710   15.3325  H     
41   H         6.1401   76.5185   15.2974  H     
42   H         7.4272   78.6716   11.0767  H     
43   H         7.0309   79.6782   12.4705  H     
44   H         6.4509   76.4039   10.8515  H     
45   H         8.3430   76.3333   14.3356  H     
46   H         8.9962   77.4965   12.3108  H     
47   H         8.7240   78.6006   13.6499  H     
48   H         6.5686   74.9513   13.4271  H     
49   H         7.8549   75.2736   12.2861  H     
@<TRIPOS>BOND
     1    1    2 1
     2    1    5 2
     3    2    3 2
     4    2    6 1
     5    3    4 1
     6    3    9 1
     7    4    5 1
     8    5   13 1
     9    6    7 2
    10    6    8 am
    11   23    8 1
    12    9   10 am
    13   10   11 am
    14   10   12 2
    15   13   14 2
    16   13   18 1
    17   14   15 1
    18   15   16 2
    19   16   17 1
    20   17   18 2
    21   19   20 1
    22   19   21 1
    23   20   22 1
    24   20   23 1
    25   21   24 1
    26   22   25 1
    27   23   26 1
    28   24   25 1
    29   24   26 1
    30    1   27 1
    31    8   28 1
    32    9   29 1
    33   11   30 1
    34   11   31 1
    35   14   32 1
    36   15   33 1
    37   16   34 1
    38   17   35 1
    39   18   36 1
    40   19   37 1
    41   19   38 1
    42   20   39 1
    43   21   40 1
    44   21   41 1
    45   22   42 1
    46   22   43 1
    47   23   44 1
    48   24   45 1
    49   25   46 1
    50   25   47 1
    51   26   48 1
    52   26   49 1
@<TRIPOS>PROPERTY_DATA
  Total_Score	| 6.1378
  Crash		| -1.8935
  Polar		| 3.7231
  FragIndex	| 1
  FragRMSD	| 0.751

