@<TRIPOS>MOLECULE
BindingDB_50243259
 45 47 0 0 0
SMALL
NO_CHARGES


@<TRIPOS>ATOM
1    C         2.3178   74.1607   12.0509  C     
2    C         3.2457   73.9904   10.9880  C     
3    C         2.8121   73.0448   10.0313  C     
4    S         1.2639   72.5013   10.5485  S     
5    C         1.1222   73.4301   11.9880  C     
6    C         4.4561   74.6931   10.9301  C     
7    O         5.2140   74.5223    9.9828  O     
8    N         4.8027   75.5724   11.8689  N     
9    N         3.4978   72.6068    8.9283  N     
10   C         3.1879   71.6135    8.1072  C     
11   N         4.0331   71.3115    7.1499  N     
12   O         2.1736   70.9412    8.1869  O     
13   C         0.0174   73.4227   12.8940  C     
14   C        -1.0989   72.5785   12.6656  C     
15   C        -2.1970   72.5611   13.5458  C     
16   C        -2.2050   73.3953   14.6741  C     
17   C        -1.1151   74.2444   14.9223  C     
18   C        -0.0150   74.2569   14.0426  C     
19   C         5.9863   76.3854   11.9296  C     
20   C         6.8686   75.9216   13.1217  C     
21   N         8.0635   76.7918   13.2372  N     
22   C         7.7375   78.2170   13.4706  C     
23   C         6.8793   78.7601   12.3017  C     
24   C         5.6114   77.8884   12.0923  C     
25   H         2.5147   74.7686   12.8433  H     
26   H         4.1889   75.6886   12.6094  H     
27   H         4.3441   73.0379    8.7460  H     
28   H         3.8398   70.5775    6.5440  H     
29   H         4.8589   71.8097    7.0529  H     
30   H        -1.1323   71.9620   11.8535  H     
31   H        -2.9890   71.9436   13.3626  H     
32   H        -3.0039   73.3859   15.3134  H     
33   H        -1.1197   74.8519   15.7462  H     
34   H         0.7553   74.8910   14.2610  H     
35   H         6.5864   76.2897   11.0183  H     
36   H         6.3010   75.9488   14.0583  H     
37   H         7.1986   74.8910   12.9620  H     
38   H         8.6574   76.4395   13.9907  H     
39   H         8.5900   76.7305   12.3641  H     
40   H         7.1990   78.3216   14.4151  H     
41   H         8.6650   78.7848   13.5446  H     
42   H         6.5845   79.7875   12.5138  H     
43   H         7.4790   78.7619   11.3864  H     
44   H         5.0792   78.2320   11.2013  H     
45   H         4.9427   78.0163   12.9486  H     
@<TRIPOS>BOND
     1    1    2 1
     2    1    5 2
     3    2    3 2
     4    2    6 1
     5    3    4 1
     6    3    9 1
     7    4    5 1
     8    5   13 1
     9    6    7 2
    10    6    8 am
    11   19    8 1
    12    9   10 am
    13   10   11 am
    14   10   12 2
    15   13   14 2
    16   13   18 1
    17   14   15 1
    18   15   16 2
    19   16   17 1
    20   17   18 2
    21   19   20 1
    22   19   24 1
    23   20   21 1
    24   21   22 1
    25   22   23 1
    26   23   24 1
    27    1   25 1
    28    8   26 1
    29    9   27 1
    30   11   28 1
    31   11   29 1
    32   14   30 1
    33   15   31 1
    34   16   32 1
    35   17   33 1
    36   18   34 1
    37   19   35 1
    38   20   36 1
    39   20   37 1
    40   21   38 1
    41   21   39 1
    42   22   40 1
    43   22   41 1
    44   23   42 1
    45   23   43 1
    46   24   44 1
    47   24   45 1
@<TRIPOS>PROPERTY_DATA
  Total_Score	| 6.2833
  Crash		| -0.2961
  Polar		| 3.5368
  FragIndex	| 1
  FragRMSD	| 0.202

