@<TRIPOS>MOLECULE
BindingDB_50243201
 49 51 0 0 0
SMALL
NO_CHARGES


@<TRIPOS>ATOM
1    C         2.2592   74.1922   12.1183  C     
2    C         3.1956   73.9940   11.0682  C     
3    C         2.7554   73.0396   10.1207  C     
4    S         1.1932   72.5274   10.6265  S     
5    C         1.0533   73.4665   12.0574  C     
6    C         4.4084   74.6935   10.9825  C     
7    O         5.1482   74.4949   10.0263  O     
8    N         4.7747   75.5847   11.9018  N     
9    N         3.4250   72.5942    9.0148  N     
10   C         3.0978   71.6204    8.1757  C     
11   N         3.9203   71.3458    7.1934  N     
12   O         2.0841   70.9436    8.2619  O     
13   C        -0.0745   73.4651   12.9433  C     
14   C        -0.1387   74.2912   14.0871  C     
15   C        -1.2530   74.2752   14.9516  C     
16   C        -2.3568   73.4204   14.7231  C     
17   C        -2.2895   72.5847   13.5825  C     
18   C        -1.1839   72.6130   12.7147  C     
19   C         5.9808   76.3671   11.9240  C     
20   C         5.6394   77.8798   12.0287  C     
21   C         6.9300   78.7329   12.1633  C     
22   C         7.8402   78.2161   13.3091  C     
23   N         8.0955   76.7645   13.1652  N     
24   C         6.8673   75.9372   13.1249  C     
25   C        -3.4698   73.3916   15.5775  C     
26   N        -3.5967   74.1597   16.6390  N     
27   O        -4.4083   72.6321   15.3789  O     
28   H         2.4374   74.8329   12.8917  H     
29   H         4.1751   75.7239   12.6521  H     
30   H         4.2775   73.0143    8.8383  H     
31   H         3.7469   70.5919    6.6053  H     
32   H         4.7231   71.8741    7.0732  H     
33   H         0.6261   74.9243   14.3174  H     
34   H        -1.2340   74.8945   15.7626  H     
35   H        -3.0479   71.9316   13.3711  H     
36   H        -1.1986   71.9755   11.9195  H     
37   H         6.5744   76.2256   11.0134  H     
38   H         5.0929   78.1946   11.1360  H     
39   H         4.9989   78.0589   12.9000  H     
40   H         7.4852   78.7045   11.2201  H     
41   H         6.6620   79.7715   12.3518  H     
42   H         8.7966   78.7475   13.2742  H     
43   H         7.3727   78.4169   14.2770  H     
44   H         8.6007   76.6198   12.2905  H     
45   H         8.6915   76.4485   13.9313  H     
46   H         6.3223   76.0398   14.0677  H     
47   H         7.1613   74.8925   13.0135  H     
48   H        -4.3943   74.0932   17.1884  H     
49   H        -2.9050   74.7945   16.8790  H     
@<TRIPOS>BOND
     1    1    2 1
     2    1    5 2
     3    2    3 2
     4    2    6 1
     5    3    4 1
     6    3    9 1
     7    4    5 1
     8    5   13 1
     9    6    7 2
    10    6    8 am
    11   19    8 1
    12    9   10 am
    13   10   11 am
    14   10   12 2
    15   13   14 2
    16   13   18 1
    17   14   15 1
    18   15   16 2
    19   16   17 1
    20   16   25 1
    21   17   18 2
    22   19   20 1
    23   19   24 1
    24   20   21 1
    25   21   22 1
    26   22   23 1
    27   23   24 1
    28   25   26 am
    29   25   27 2
    30    1   28 1
    31    8   29 1
    32    9   30 1
    33   11   31 1
    34   11   32 1
    35   14   33 1
    36   15   34 1
    37   17   35 1
    38   18   36 1
    39   19   37 1
    40   20   38 1
    41   20   39 1
    42   21   40 1
    43   21   41 1
    44   22   42 1
    45   22   43 1
    46   23   44 1
    47   23   45 1
    48   24   46 1
    49   24   47 1
    50   26   48 1
    51   26   49 1
@<TRIPOS>PROPERTY_DATA
  Total_Score	| 5.7051
  Crash		| -0.2701
  Polar		| 3.5563
  FragIndex	| 1
  FragRMSD	| 0.173

