@<TRIPOS>MOLECULE
BindingDB_50243624
 48 50 0 0 0
SMALL
NO_CHARGES


@<TRIPOS>ATOM
1    C         1.9393   74.1389   12.2184  C     
2    C         2.9695   74.0278   11.2435  C     
3    C         2.6689   73.0761   10.2406  C     
4    S         1.1020   72.4603   10.6085  S     
5    C         0.7921   73.3529   12.0444  C     
6    C         4.1496   74.7780   11.3188  C     
7    O         5.0493   74.5774   10.5129  O     
8    N         4.3146   75.7144   12.2534  N     
9    N         3.4392   72.7156    9.1690  N     
10   C         3.2329   71.7385    8.2935  C     
11   N         4.1169   71.5399    7.3427  N     
12   O         2.2825   70.9725    8.3258  O     
13   C        -0.3858   73.2742   12.8518  C     
14   C        -1.4247   72.3656   12.5286  C     
15   C        -2.5851   72.2704   13.3143  C     
16   C        -2.7406   73.0892   14.4432  C     
17   C        -1.7316   74.0069   14.7841  C     
18   C        -0.5690   74.0984   13.9957  C     
19   C         5.4448   76.5648   12.5089  C     
20   C         6.6802   75.7241   12.9436  C     
21   N         7.7095   76.4539   13.7171  N     
22   C         5.7138   77.5150   11.3041  C     
23   C         6.6596   78.7376   11.5074  C     
24   C         7.4918   78.8128   12.8131  C     
25   C         8.4011   77.5853   13.0666  C     
26   H         2.0255   74.7572   13.0271  H     
27   H         3.5722   75.8511   12.8585  H     
28   H         4.2526   73.2243    9.0363  H     
29   H         3.9900   70.8127    6.7074  H     
30   H         4.8979   72.1112    7.2750  H     
31   H        -1.3530   71.7541   11.7160  H     
32   H        -3.3207   71.6065   13.0602  H     
33   H        -3.5850   73.0205   15.0149  H     
34   H        -1.8466   74.6071   15.6031  H     
35   H         0.1383   74.7799   14.2775  H     
36   H         5.1505   77.1846   13.3565  H     
37   H         6.3378   74.9211   13.5991  H     
38   H         7.1448   75.2510   12.0773  H     
39   H         7.2825   76.7913   14.5844  H     
40   H         8.4360   75.7771   13.9702  H     
41   H         6.1156   76.9199   10.4776  H     
42   H         4.7463   77.9045   10.9665  H     
43   H         7.3553   78.7800   10.6644  H     
44   H         6.0607   79.6501   11.4540  H     
45   H         8.1299   79.6975   12.7424  H     
46   H         6.8287   78.9679   13.6676  H     
47   H         9.1951   77.8900   13.7499  H     
48   H         8.8752   77.2573   12.1386  H     
@<TRIPOS>BOND
     1    1    2 1
     2    1    5 2
     3    2    3 2
     4    2    6 1
     5    3    4 1
     6    3    9 1
     7    4    5 1
     8    5   13 1
     9    6    7 2
    10    6    8 am
    11   19    8 1
    12    9   10 am
    13   10   11 am
    14   10   12 2
    15   13   14 2
    16   13   18 1
    17   14   15 1
    18   15   16 2
    19   16   17 1
    20   17   18 2
    21   19   20 1
    22   19   22 1
    23   20   21 1
    24   21   25 1
    25   22   23 1
    26   23   24 1
    27   24   25 1
    28    1   26 1
    29    8   27 1
    30    9   28 1
    31   11   29 1
    32   11   30 1
    33   14   31 1
    34   15   32 1
    35   16   33 1
    36   17   34 1
    37   18   35 1
    38   19   36 1
    39   20   37 1
    40   20   38 1
    41   21   39 1
    42   21   40 1
    43   22   41 1
    44   22   42 1
    45   23   43 1
    46   23   44 1
    47   24   45 1
    48   24   46 1
    49   25   47 1
    50   25   48 1
@<TRIPOS>PROPERTY_DATA
  Total_Score	| 5.8535
  Crash		| -0.7778
  Polar		| 3.4107
  FragIndex	| 1
  FragRMSD	| 0.526

