@<TRIPOS>MOLECULE
BindingDB_50243050
 48 50 0 0 0
SMALL
NO_CHARGES


@<TRIPOS>ATOM
1    C         2.2742   74.2390   12.0419  C     
2    C         3.2253   74.0373   11.0064  C     
3    C         2.8276   73.0367   10.0921  C     
4    S         1.2935   72.4657   10.6204  S     
5    C         1.1079   73.4535   12.0161  C     
6    C         4.4189   74.7709   10.9286  C     
7    O         5.2089   74.5581   10.0192  O     
8    N         4.7448   75.6865   11.8404  N     
9    N         3.5286   72.5889    9.0014  N     
10   C         3.2374   71.5923    8.1792  C     
11   N         4.0981   71.3001    7.2301  N     
12   O         2.2198   70.9217    8.2380  O     
13   C        -0.0033   73.4468   12.9114  C     
14   C        -1.1035   72.5739   12.7085  C     
15   C        -2.2058   72.5726   13.5803  C     
16   C        -2.2621   73.4469   14.6885  C     
17   C        -1.1641   74.3109   14.9044  C     
18   C        -0.0615   74.3112   14.0326  C     
19   C         5.9465   76.4699   11.8965  C     
20   C         5.6062   77.9813   12.0682  C     
21   C         6.8936   78.8259   12.2613  C     
22   C         7.7977   78.2436   13.3779  C     
23   N         8.0621   76.8047   13.1486  N     
24   C         6.8362   75.9786   13.0703  C     
25   C        -3.4620   73.4369   15.5723  C     
26   F        -3.4086   74.3261   16.6200  F     
27   F        -4.5832   73.7498   14.8408  F     
28   F        -3.6293   72.1864   16.1166  F     
29   H         2.4348   74.9123   12.7881  H     
30   H         4.1446   75.7946   12.5898  H     
31   H         4.3699   73.0305    8.8267  H     
32   H         3.9178   70.5704    6.6161  H     
33   H         4.9306   71.7923    7.1607  H     
34   H        -1.1217   71.9248   11.9203  H     
35   H        -2.9809   71.9280   13.3968  H     
36   H        -1.1573   74.9547   15.6986  H     
37   H         0.6995   74.9589   14.2377  H     
38   H         6.5161   76.3739   10.9646  H     
39   H         5.0670   78.3420   11.1846  H     
40   H         4.9543   78.1151   12.9397  H     
41   H         7.4454   78.8525   11.3181  H     
42   H         6.6196   79.8488   12.5201  H     
43   H         8.7492   78.7764   13.3853  H     
44   H         7.3226   78.3775   14.3550  H     
45   H         8.5605   76.7127   12.2608  H     
46   H         8.6623   76.4479   13.8934  H     
47   H         6.2896   76.0274   14.0169  H     
48   H         7.1247   74.9381   12.9056  H     
@<TRIPOS>BOND
     1    1    2 1
     2    1    5 2
     3    2    3 2
     4    2    6 1
     5    3    4 1
     6    3    9 1
     7    4    5 1
     8    5   13 1
     9    6    7 2
    10    6    8 am
    11   19    8 1
    12    9   10 am
    13   10   11 am
    14   10   12 2
    15   13   14 2
    16   13   18 1
    17   14   15 1
    18   15   16 2
    19   16   17 1
    20   16   25 1
    21   17   18 2
    22   19   20 1
    23   19   24 1
    24   20   21 1
    25   21   22 1
    26   22   23 1
    27   23   24 1
    28   25   26 1
    29   25   27 1
    30   25   28 1
    31    1   29 1
    32    8   30 1
    33    9   31 1
    34   11   32 1
    35   11   33 1
    36   14   34 1
    37   15   35 1
    38   17   36 1
    39   18   37 1
    40   19   38 1
    41   20   39 1
    42   20   40 1
    43   21   41 1
    44   21   42 1
    45   22   43 1
    46   22   44 1
    47   23   45 1
    48   23   46 1
    49   24   47 1
    50   24   48 1
@<TRIPOS>PROPERTY_DATA
  Total_Score	| 6.1114
  Crash		| -0.3856
  Polar		| 3.6393
  FragIndex	| 1
  FragRMSD	| 0.180

