@<TRIPOS>MOLECULE
BindingDB_50219582
 41 43 0 0 0
SMALL
NO_CHARGES


@<TRIPOS>ATOM
1    S        44.4769   13.5681    0.0870  S     
2    C        44.7580   14.9631    1.0562  C     
3    C        45.5630   14.5547    2.1337  C     
4    C        45.8865   13.1902    2.1259  C     
5    C        45.3589   12.4473    1.0464  C     
6    C        44.1862   16.2175    0.8049  C     
7    O        44.1670   17.1831    1.7454  O     
8    O        43.4256   16.4288   -0.2896  O     
9    C        45.5311   11.0880    0.6926  C     
10   C        46.8267   10.5404    0.5482  C     
11   C        47.0131    9.2421    0.0340  C     
12   C        45.8788    8.5080   -0.4194  C     
13   C        44.5896    8.9954   -0.2001  C     
14   C        44.4057   10.2711    0.3705  C     
15   Br       46.8425   12.4176    3.5217  Br    
16   O        45.8709   15.3785    3.1970  O     
17   C        47.0657   16.1727    3.0492  C     
18   C        47.4547   16.7574    4.3462  C     
19   O        48.5801   17.4983    4.4427  O     
20   O        46.9313   16.3036    5.5055  O     
21   O        48.2833    8.7429   -0.0895  O     
22   C        48.4988    7.3894    0.3867  C     
23   C        48.4238    7.2597    1.8603  C     
24   C        49.5821    7.3232    2.6737  C     
25   C        49.4833    7.1054    4.0606  C     
26   C        48.2370    6.8231    4.6473  C     
27   C        47.0852    6.7398    3.8430  C     
28   C        47.1759    6.9735    2.4670  C     
29   H        47.6473   11.1133    0.7528  H     
30   H        46.0212    7.6246   -0.9234  H     
31   H        43.7829    8.4254   -0.4976  H     
32   H        43.4526   10.5941    0.5223  H     
33   H        47.9040   15.5650    2.6964  H     
34   H        46.8971   16.9902    2.3426  H     
35   H        47.7675    6.7044   -0.0704  H     
36   H        49.4833    7.0566    0.0296  H     
37   H        50.4977    7.4850    2.2540  H     
38   H        50.3275    7.1378    4.6426  H     
39   H        48.1654    6.6846    5.6622  H     
40   H        46.1856    6.5014    4.2636  H     
41   H        46.3335    6.8944    1.8976  H     
@<TRIPOS>BOND
     1    1    2 1
     2    1    5 1
     3    2    3 2
     4    2    6 1
     5    3    4 1
     6    3   16 1
     7    4    5 2
     8    4   15 1
     9    5    9 1
    10    6    7 2
    11    6    8 1
    12    9   10 2
    13    9   14 1
    14   10   11 1
    15   11   12 2
    16   11   21 1
    17   12   13 1
    18   13   14 2
    19   16   17 1
    20   17   18 1
    21   18   19 1
    22   18   20 2
    23   21   22 1
    24   22   23 1
    25   23   24 2
    26   23   28 1
    27   24   25 1
    28   25   26 2
    29   26   27 1
    30   27   28 2
    31   10   29 1
    32   12   30 1
    33   13   31 1
    34   14   32 1
    35   17   33 1
    36   17   34 1
    37   22   35 1
    38   22   36 1
    39   24   37 1
    40   25   38 1
    41   26   39 1
    42   27   40 1
    43   28   41 1
@<TRIPOS>PROPERTY_DATA
  Total_Score	| 10.1059
  Crash		| -1.1470
  Polar		| 6.4786
  FragIndex	| 1
  FragRMSD	| 1.043

