@<TRIPOS>MOLECULE
BindingDB_50219603
 29 30 0 0 0
SMALL
NO_CHARGES


@<TRIPOS>ATOM
1    S        44.4263   13.5461    0.0606  S     
2    C        44.7573   14.9345    1.0166  C     
3    C        45.6479   14.5274    2.0218  C     
4    C        45.9904   13.1568    1.9758  C     
5    C        45.4066   12.4294    0.9221  C     
6    C        44.1976   16.2053    0.7876  C     
7    O        43.3427   16.4042   -0.2394  O     
8    O        44.4154   17.2421    1.6259  O     
9    C        45.5919   11.0763    0.5378  C     
10   C        44.5256   10.3336   -0.0213  C     
11   C        44.7213    9.0134   -0.4760  C     
12   C        45.9901    8.4097   -0.3546  C     
13   C        47.0572    9.1355    0.1978  C     
14   C        46.8663   10.4596    0.6317  C     
15   Br       47.0454   12.3726    3.2939  Br    
16   O        46.1824   15.4121    2.9196  O     
17   C        45.7646   15.2367    4.2891  C     
18   C        45.6254   16.5704    4.8970  C     
19   O        46.6097   17.0831    5.6755  O     
20   O        44.3893   17.0917    5.0428  O     
21   N        43.7134    8.3347   -1.0533  N     
22   H        43.5922   10.7516   -0.1148  H     
23   H        46.1494    7.4553   -0.6870  H     
24   H        47.9844    8.7030    0.2691  H     
25   H        47.6731   10.9786    0.9842  H     
26   H        44.8061   14.7087    4.3672  H     
27   H        46.5139   14.6693    4.8426  H     
28   H        43.8590    7.4408   -1.3979  H     
29   H        42.8476    8.7569   -1.1750  H     
@<TRIPOS>BOND
     1    1    2 1
     2    1    5 1
     3    2    3 2
     4    2    6 1
     5    3    4 1
     6    3   16 1
     7    4    5 2
     8    4   15 1
     9    5    9 1
    10    6    7 2
    11    6    8 1
    12    9   10 2
    13    9   14 1
    14   10   11 1
    15   11   12 2
    16   11   21 1
    17   12   13 1
    18   13   14 2
    19   16   17 1
    20   17   18 1
    21   18   19 1
    22   18   20 2
    23   10   22 1
    24   12   23 1
    25   13   24 1
    26   14   25 1
    27   17   26 1
    28   17   27 1
    29   21   28 1
    30   21   29 1
@<TRIPOS>PROPERTY_DATA
  Total_Score	| 8.0216
  Crash		| -1.3976
  Polar		| 7.6665
  FragIndex	| 1
  FragRMSD	| 1.169

