@<TRIPOS>MOLECULE
BindingDB_14245
 27 28 0 0 0
SMALL
NO_CHARGES


@<TRIPOS>ATOM
1    C        44.7237   14.9008    1.0255  C     
2    C        45.6595   14.5175    2.0049  C     
3    C        46.0269   13.1606    1.9378  C     
4    C        45.3952   12.4185    0.9312  C     
5    S        44.3584   13.4982    0.0945  S     
6    O        46.2006   15.4054    2.9035  O     
7    C        45.7424   15.2386    4.2614  C     
8    C        45.5924   16.5715    4.8635  C     
9    O        46.5997   17.1064    5.5949  O     
10   O        44.3469   17.0400    5.0918  O     
11   C        44.1568   16.1662    0.7962  C     
12   O        43.2314   16.3592   -0.1691  O     
13   O        44.4587   17.2331    1.5631  O     
14   Br       47.1894   12.3836    3.1569  Br    
15   C        45.6029   11.0807    0.5736  C     
16   C        46.9124   10.6184    0.2778  C     
17   C        47.1281    9.2902   -0.1145  C     
18   C        46.0469    8.3909   -0.2075  C     
19   C        44.7399    8.8412    0.0902  C     
20   C        44.5176   10.1751    0.4597  C     
21   H        44.7773   14.7140    4.3212  H     
22   H        46.4788   14.6632    4.8261  H     
23   H        47.7077   11.2578    0.3279  H     
24   H        48.0747    8.9696   -0.3410  H     
25   H        46.2068    7.4266   -0.4891  H     
26   H        43.9521    8.1937    0.0045  H     
27   H        43.5627   10.4846    0.6616  H     
@<TRIPOS>BOND
     1    1    2 2
     2    1    5 1
     3    1   11 1
     4    2    3 1
     5    2    6 1
     6    3    4 2
     7    3   14 1
     8    4    5 1
     9    4   15 1
    10    6    7 1
    11    7    8 1
    12    8    9 2
    13    8   10 1
    14   11   12 2
    15   11   13 1
    16   15   16 2
    17   15   20 1
    18   16   17 1
    19   17   18 2
    20   18   19 1
    21   19   20 2
    22    7   21 1
    23    7   22 1
    24   16   23 1
    25   17   24 1
    26   18   25 1
    27   19   26 1
    28   20   27 1
@<TRIPOS>PROPERTY_DATA
  Total_Score	| 8.4435
  Crash		| -1.2027
  Polar		| 7.7996
  FragIndex	| 1
  FragRMSD	| 1.036

