@<TRIPOS>MOLECULE
BindingDB_14251
 31 32 0 0 0
SMALL
NO_CHARGES


@<TRIPOS>ATOM
1    C        44.7193   14.9378    1.0192  C     
2    C        45.6520   14.5643    1.9953  C     
3    C        46.0660   13.2181    1.9126  C     
4    C        45.4911   12.4833    0.8627  C     
5    S        44.4179   13.5514    0.0469  S     
6    O        46.1461   15.4486    2.9122  O     
7    C        45.6843   15.2545    4.2626  C     
8    C        45.5431   16.5847    4.8728  C     
9    O        46.5713   17.1018    5.5874  O     
10   O        44.3065   17.0526    5.1296  O     
11   C        44.1208   16.1923    0.8197  C     
12   O        43.2331   16.3881   -0.1798  O     
13   O        44.3981   17.2538    1.6053  O     
14   Br       47.2171   12.4436    3.1539  Br    
15   C        45.7818   11.1564    0.4872  C     
16   C        47.4213    9.4583   -0.1721  C     
17   C        47.1135   10.7820    0.1770  C     
18   C        44.7659   10.1769    0.4242  C     
19   C        45.0833    8.8435    0.0896  C     
20   C        46.4146    8.4758   -0.1865  C     
21   O        46.7112    7.1866   -0.5332  O     
22   C        47.4189    6.4509    0.4832  C     
23   H        44.7112   14.7448    4.3042  H     
24   H        46.4097   14.6695    4.8257  H     
25   H        48.3794    9.2086   -0.4107  H     
26   H        47.8616   11.4781    0.1924  H     
27   H        43.7947   10.4195    0.6484  H     
28   H        44.3357    8.1469    0.0532  H     
29   H        48.4041    6.8863    0.6763  H     
30   H        47.5651    5.4331    0.1251  H     
31   H        46.8519    6.4052    1.4171  H     
@<TRIPOS>BOND
     1    1    2 2
     2    1    5 1
     3    1   11 1
     4    2    3 1
     5    2    6 1
     6    3    4 2
     7    3   14 1
     8    4    5 1
     9    4   15 1
    10    6    7 1
    11    7    8 1
    12    8    9 2
    13    8   10 1
    14   11   12 2
    15   11   13 1
    16   15   17 1
    17   15   18 2
    18   16   17 2
    19   16   20 1
    20   18   19 1
    21   19   20 2
    22   20   21 1
    23   21   22 1
    24    7   23 1
    25    7   24 1
    26   16   25 1
    27   17   26 1
    28   18   27 1
    29   19   28 1
    30   22   29 1
    31   22   30 1
    32   22   31 1
@<TRIPOS>PROPERTY_DATA
  Total_Score	| 8.4898
  Crash		| -1.3086
  Polar		| 7.8068
  FragIndex	| 1
  FragRMSD	| 1.055

