@<TRIPOS>MOLECULE
BindingDB_17985
 58 60 0 0 0
SMALL
NO_CHARGES


@<TRIPOS>ATOM
1    C        78.4532   25.5193   73.3890  C     
2    C        78.5803   24.4503   71.2888  C     
3    C        79.7445   23.7381   71.6912  C     
4    C        80.2001   23.9486   73.0240  C     
5    N        79.5353   24.8317   73.8221  N     
6    N        77.9759   25.3210   72.1390  N     
7    N        77.8865   26.3967   74.2391  N     
8    N        78.0242   24.3253   70.0628  N     
9    C        81.3541   23.2648   73.6813  C     
10   C        82.5467   24.2192   73.9477  C     
11   C        80.4661   22.9300   70.7869  C     
12   C        81.7432   23.3450   70.3738  C     
13   C        79.9833   21.6622   70.3701  C     
14   C        80.7668   20.8413   69.5467  C     
15   C        82.5976   22.4900   69.6300  C     
16   C        82.0666   21.2530   69.1952  C     
17   O        82.8527   20.3961   68.4712  O     
18   N        83.9267   22.8029   69.3094  N     
19   C        84.6855   23.7258   70.1549  C     
20   C        84.6736   25.2053   69.6700  C     
21   C        85.2076   28.6169   71.2174  C     
22   C        84.8589   19.8387   67.3534  C     
23   C        84.5313   22.1290   68.3020  C     
24   O        85.6480   22.4678   67.9195  O     
25   C        85.1109   26.2229   70.7719  C     
26   O        84.9213   27.5619   70.2762  O     
27   C        83.8558   21.0021   67.6024  C     
28   C        83.1039   21.4656   66.2974  C     
29   C        83.8896   21.3225   64.9708  C     
30   H        77.1196   26.9209   73.9854  H     
31   H        78.2726   26.5408   75.1021  H     
32   H        77.2217   24.8315   69.8409  H     
33   H        78.3964   23.7034   69.4220  H     
34   H        81.0145   22.8455   74.6387  H     
35   H        81.7225   22.4085   73.0915  H     
36   H        82.8955   24.6793   73.0170  H     
37   H        83.3590   23.6481   74.3904  H     
38   H        82.2516   24.9941   74.6494  H     
39   H        82.0710   24.2700   70.6321  H     
40   H        79.0619   21.3361   70.6651  H     
41   H        80.4247   19.9226   69.2343  H     
42   H        84.3247   23.6420   71.1878  H     
43   H        85.7250   23.3896   70.2276  H     
44   H        85.3333   25.3002   68.8008  H     
45   H        83.6715   25.4688   69.3304  H     
46   H        84.5978   28.5170   72.1157  H     
47   H        84.9724   29.5788   70.7618  H     
48   H        86.2653   28.6170   71.4804  H     
49   H        85.2454   19.4553   68.3074  H     
50   H        85.6949   20.1595   66.7246  H     
51   H        84.3703   19.0053   66.8502  H     
52   H        84.4807   26.0740   71.6549  H     
53   H        86.1583   26.0426   71.0735  H     
54   H        82.1995   20.8696   66.1972  H     
55   H        82.7900   22.5087   66.4178  H     
56   H        84.8546   21.8576   65.0103  H     
57   H        83.2720   21.7655   64.1721  H     
58   H        84.0815   20.2625   64.7399  H     
@<TRIPOS>BOND
     1    1    5 2
     2    1    6 1
     3    1    7 1
     4    2    3 1
     5    2    6 2
     6    2    8 1
     7    3    4 2
     8    3   11 1
     9    4    5 1
    10    4    9 1
    11    9   10 1
    12   11   12 1
    13   11   13 2
    14   12   15 2
    15   13   14 1
    16   14   16 2
    17   15   16 1
    18   15   18 1
    19   16   17 1
    20   17   27 1
    21   18   19 1
    22   18   23 1
    23   19   20 1
    24   20   25 1
    25   21   26 1
    26   22   27 1
    27   23   24 2
    28   23   27 1
    29   25   26 1
    30   27   28 1
    31   28   29 1
    32    7   30 1
    33    7   31 1
    34    8   32 1
    35    8   33 1
    36    9   34 1
    37    9   35 1
    38   10   36 1
    39   10   37 1
    40   10   38 1
    41   12   39 1
    42   13   40 1
    43   14   41 1
    44   19   42 1
    45   19   43 1
    46   20   44 1
    47   20   45 1
    48   21   46 1
    49   21   47 1
    50   21   48 1
    51   22   49 1
    52   22   50 1
    53   22   51 1
    54   25   52 1
    55   25   53 1
    56   28   54 1
    57   28   55 1
    58   29   56 1
    59   29   57 1
    60   29   58 1
@<TRIPOS>PROPERTY_DATA
  Total_Score	| 10.9952
  Crash		| -1.3753
  Polar		| 5.1119
  FragIndex	| 1
  FragRMSD	| 0.401

