@<TRIPOS>MOLECULE
BindingDB_17973
 52 54 0 0 0
SMALL
NO_CHARGES


@<TRIPOS>ATOM
1    C        78.5417   25.4710   73.2958  C     
2    C        78.6462   24.4700   71.1526  C     
3    C        79.8335   23.7773   71.5000  C     
4    C        80.3524   23.9957   72.8072  C     
5    N        79.6728   24.8213   73.6460  N     
6    N        78.0334   25.2854   72.0533  N     
7    N        77.9607   26.3073   74.1722  N     
8    N        78.0431   24.3286   69.9577  N     
9    C        81.5707   23.3383   73.3605  C     
10   C        82.2732   24.0878   74.5158  C     
11   C        80.5183   22.9637   70.5719  C     
12   C        81.6444   23.4598   69.9041  C     
13   C        80.1628   21.6036   70.4091  C     
14   C        80.9431   20.7660   69.5924  C     
15   C        82.5115   22.6116   69.1687  C     
16   C        82.1168   21.2551   69.0050  C     
17   C        84.2945   20.6201   68.2592  C     
18   C        84.6528   22.0352   68.2503  C     
19   O        82.8721   20.4063   68.2339  O     
20   N        83.7761   22.9776   68.6661  N     
21   C        84.2050   24.3910   68.6384  C     
22   C        84.9869   24.8688   69.9223  C     
23   C        84.3089   26.1101   70.6022  C     
24   O        84.7599   27.4236   70.1621  O     
25   C        85.4181   28.2242   71.1724  C     
26   C        84.8969   19.8047   67.0915  C     
27   O        85.8389   22.2974   68.0319  O     
28   H        77.1530   26.7880   73.9116  H     
29   H        78.3759   26.4536   75.0456  H     
30   H        77.2239   24.8047   69.7678  H     
31   H        78.4152   23.7496   69.2812  H     
32   H        81.2702   22.3595   73.7308  H     
33   H        82.3193   23.1965   72.5846  H     
34   H        82.4902   25.1202   74.2276  H     
35   H        83.2079   23.5820   74.7695  H     
36   H        81.6367   24.0957   75.4051  H     
37   H        81.8847   24.4619   70.0683  H     
38   H        79.3385   21.2113   70.8829  H     
39   H        80.6836   19.7786   69.4807  H     
40   H        84.6764   20.1748   69.1841  H     
41   H        84.8594   24.5868   67.7747  H     
42   H        83.3413   25.0311   68.4326  H     
43   H        85.0603   24.0523   70.6654  H     
44   H        86.0241   25.1155   69.6430  H     
45   H        83.2390   26.0746   70.3771  H     
46   H        84.4056   25.9874   71.7154  H     
47   H        84.8013   28.3326   72.0726  H     
48   H        85.5806   29.2159   70.7349  H     
49   H        86.3955   27.8073   71.4395  H     
50   H        84.6004   20.2226   66.1341  H     
51   H        84.5537   18.7827   67.1370  H     
52   H        85.9785   19.7919   67.1451  H     
@<TRIPOS>BOND
     1    1    5 2
     2    1    6 1
     3    1    7 1
     4    2    3 1
     5    2    6 2
     6    2    8 1
     7    3    4 2
     8    3   11 1
     9    4    5 1
    10    4    9 1
    11    9   10 1
    12   11   12 1
    13   11   13 2
    14   12   15 2
    15   13   14 1
    16   14   16 2
    17   15   16 1
    18   15   20 1
    19   16   19 1
    20   17   18 1
    21   17   19 1
    22   17   26 1
    23   18   20 1
    24   18   27 2
    25   20   21 1
    26   21   22 1
    27   22   23 1
    28   23   24 1
    29   24   25 1
    30    7   28 1
    31    7   29 1
    32    8   30 1
    33    8   31 1
    34    9   32 1
    35    9   33 1
    36   10   34 1
    37   10   35 1
    38   10   36 1
    39   12   37 1
    40   13   38 1
    41   14   39 1
    42   17   40 1
    43   21   41 1
    44   21   42 1
    45   22   43 1
    46   22   44 1
    47   23   45 1
    48   23   46 1
    49   25   47 1
    50   25   48 1
    51   25   49 1
    52   26   50 1
    53   26   51 1
    54   26   52 1
@<TRIPOS>PROPERTY_DATA
  Total_Score	| 11.2584
  Crash		| -1.1439
  Polar		| 5.0887
  FragIndex	| 1
  FragRMSD	| 0.457

