@<TRIPOS>MOLECULE
BindingDB_18001
 63 66 0 0 0
SMALL
NO_CHARGES


@<TRIPOS>ATOM
1    C        78.4628   25.5138   73.3452  C     
2    C        80.3390   24.0896   72.9487  C     
3    C        79.8559   23.8177   71.6374  C     
4    C        78.6550   24.4535   71.2350  C     
5    N        77.9894   25.2747   72.0931  N     
6    N        79.6163   24.9197   73.7512  N     
7    N        77.8154   26.3237   74.2024  N     
8    C        80.5841   22.9967   70.7311  C     
9    C        81.7778   23.4802   70.1601  C     
10   C        80.1747   21.6776   70.4559  C     
11   C        80.9735   20.8523   69.6431  C     
12   C        82.6329   22.6565   69.3765  C     
13   C        82.1843   21.3392   69.1168  C     
14   O        82.9658   20.4814   68.3908  O     
15   N        83.8934   23.0393   68.8814  N     
16   C        84.5345   24.2566   69.3909  C     
17   C        84.9090   24.1621   70.9011  C     
18   C        84.5221   22.2652   67.9695  C     
19   O        85.6313   22.5708   67.5376  O     
20   C        83.2800   21.2967   66.0793  C     
21   C        82.1489   21.6803   63.4841  C     
22   C        81.3271   21.3193   64.5641  C     
23   C        81.8870   21.1417   65.8440  C     
24   C        84.0794   21.6802   64.9682  C     
25   C        83.5267   21.8654   63.6872  C     
26   C        83.9063   21.0344   67.4323  C     
27   C        84.9482   19.8704   67.3283  C     
28   F        80.0511   21.1270   64.3732  F     
29   F        84.2926   22.1931   62.6811  F     
30   N        78.1141   24.3096   70.0062  N     
31   C        81.5543   23.4542   73.5244  C     
32   C        82.2461   24.1433   74.7318  C     
33   C        85.8783   26.1548   72.0124  C     
34   N        84.8691   25.4627   71.5033  N     
35   O        87.0119   25.6926   72.0883  O     
36   C        85.6469   27.5391   72.3723  C     
37   O        86.6522   28.1161   73.2081  O     
38   H        78.2095   26.4631   75.0786  H     
39   H        76.9951   26.7644   73.9407  H     
40   H        82.0392   24.4433   70.3630  H     
41   H        79.3165   21.3005   70.8684  H     
42   H        80.6818   19.8910   69.4625  H     
43   H        85.4495   24.5263   68.8524  H     
44   H        83.8773   25.1114   69.2004  H     
45   H        84.2052   23.5268   71.4358  H     
46   H        85.8941   23.6950   70.9950  H     
47   H        81.7462   21.8010   62.5513  H     
48   H        81.2561   20.8785   66.6024  H     
49   H        85.0849   21.8142   65.0797  H     
50   H        85.3882   19.6715   68.3087  H     
51   H        85.7662   20.1043   66.6420  H     
52   H        84.4711   18.9508   66.9783  H     
53   H        77.2993   24.7825   69.7666  H     
54   H        78.5344   23.7334   69.3481  H     
55   H        81.2882   22.4332   73.8266  H     
56   H        82.3187   23.3810   72.7532  H     
57   H        82.5605   25.1528   74.4762  H     
58   H        83.1441   23.5680   75.0160  H     
59   H        81.5865   24.1733   75.5947  H     
60   H        84.0083   25.9079   71.4831  H     
61   H        85.5989   28.1279   71.4544  H     
62   H        84.6908   27.6264   72.8932  H     
63   H        87.1998   27.3582   73.5231  H     
@<TRIPOS>BOND
     1    1    5 2
     2    1    6 1
     3    1    7 1
     4    2    3 1
     5    2    6 2
     6    2   31 1
     7    3    4 2
     8    3    8 1
     9    4    5 1
    10    4   30 1
    11    8    9 1
    12    8   10 2
    13    9   12 2
    14   10   11 1
    15   11   13 2
    16   12   13 1
    17   12   15 1
    18   13   14 1
    19   14   26 1
    20   15   16 1
    21   15   18 1
    22   16   17 1
    23   17   34 1
    24   18   19 2
    25   18   26 1
    26   20   23 1
    27   20   24 2
    28   20   26 1
    29   21   22 1
    30   21   25 2
    31   22   23 2
    32   22   28 1
    33   24   25 1
    34   25   29 1
    35   26   27 1
    36   31   32 1
    37   33   34 am
    38   33   35 2
    39   33   36 1
    40   36   37 1
    41    7   38 1
    42    7   39 1
    43    9   40 1
    44   10   41 1
    45   11   42 1
    46   16   43 1
    47   16   44 1
    48   17   45 1
    49   17   46 1
    50   21   47 1
    51   23   48 1
    52   24   49 1
    53   27   50 1
    54   27   51 1
    55   27   52 1
    56   30   53 1
    57   30   54 1
    58   31   55 1
    59   31   56 1
    60   32   57 1
    61   32   58 1
    62   32   59 1
    63   34   60 1
    64   36   61 1
    65   36   62 1
    66   37   63 1
@<TRIPOS>PROPERTY_DATA
  Total_Score	| 12.9268
  Crash		| -1.6872
  Polar		| 7.2120
  FragIndex	| 1
  FragRMSD	| 0.229

