@<TRIPOS>MOLECULE
BindingDB_17975
 52 54 0 0 0
SMALL
NO_CHARGES


@<TRIPOS>ATOM
1    C        78.5579   25.5802   73.3012  C     
2    C        78.6497   24.4472   71.2224  C     
3    C        79.8331   23.7797   71.6159  C     
4    C        80.3567   24.0694   72.9122  C     
5    N        79.6824   24.9542   73.6998  N     
6    N        78.0501   25.3192   72.0727  N     
7    N        77.9612   26.4552   74.1332  N     
8    N        78.0776   24.2777   70.0188  N     
9    C        81.5832   23.4218   73.4534  C     
10   C        82.2454   24.0698   74.6983  C     
11   C        80.5373   22.9526   70.7062  C     
12   C        81.6937   23.4595   70.0804  C     
13   C        80.1335   21.6348   70.4238  C     
14   C        80.9078   20.8222   69.5769  C     
15   C        82.5145   22.6580   69.2448  C     
16   C        82.0949   21.3223   69.0150  C     
17   C        84.2528   20.7133   68.2214  C     
18   C        84.6005   22.1424   68.2145  C     
19   O        82.8262   20.5083   68.1864  O     
20   N        83.7437   23.0674   68.7106  N     
21   C        84.1693   24.4760   68.7865  C     
22   C        85.1979   24.7217   69.9473  C     
23   C        84.8367   25.8313   70.9673  C     
24   O        84.7324   27.1295   70.3270  O     
25   C        85.1203   28.2379   71.1601  C     
26   C        84.8355   19.8891   67.0467  C     
27   O        85.7479   22.4397   67.8801  O     
28   H        77.1628   26.9368   73.8565  H     
29   H        78.3418   26.6072   75.0116  H     
30   H        77.2884   24.7827   69.7738  H     
31   H        78.4625   23.6635   69.3793  H     
32   H        81.3425   22.3827   73.7057  H     
33   H        82.3568   23.4034   72.6772  H     
34   H        83.1068   23.4719   75.0008  H     
35   H        81.5427   24.1170   75.5333  H     
36   H        82.5937   25.0820   74.4677  H     
37   H        81.9663   24.4192   70.2953  H     
38   H        79.2866   21.2510   70.8559  H     
39   H        80.6211   19.8603   69.3814  H     
40   H        84.6413   20.2820   69.1495  H     
41   H        84.6180   24.7869   67.8333  H     
42   H        83.3060   25.1482   68.8795  H     
43   H        85.3443   23.7845   70.5112  H     
44   H        86.1648   24.9816   69.4992  H     
45   H        83.8786   25.5699   71.4317  H     
46   H        85.6063   25.7978   71.7541  H     
47   H        84.9419   29.1495   70.5962  H     
48   H        84.5261   28.2802   72.0767  H     
49   H        86.1849   28.1946   71.4154  H     
50   H        84.4572   20.2574   66.0927  H     
51   H        84.5476   18.8425   67.1494  H     
52   H        85.9269   19.9349   67.0356  H     
@<TRIPOS>BOND
     1    1    5 2
     2    1    6 1
     3    1    7 1
     4    2    3 1
     5    2    6 2
     6    2    8 1
     7    3    4 2
     8    3   11 1
     9    4    5 1
    10    4    9 1
    11    9   10 1
    12   11   12 1
    13   11   13 2
    14   12   15 2
    15   13   14 1
    16   14   16 2
    17   15   16 1
    18   15   20 1
    19   16   19 1
    20   17   18 1
    21   17   19 1
    22   17   26 1
    23   18   20 1
    24   18   27 2
    25   20   21 1
    26   21   22 1
    27   22   23 1
    28   23   24 1
    29   24   25 1
    30    7   28 1
    31    7   29 1
    32    8   30 1
    33    8   31 1
    34    9   32 1
    35    9   33 1
    36   10   34 1
    37   10   35 1
    38   10   36 1
    39   12   37 1
    40   13   38 1
    41   14   39 1
    42   17   40 1
    43   21   41 1
    44   21   42 1
    45   22   43 1
    46   22   44 1
    47   23   45 1
    48   23   46 1
    49   25   47 1
    50   25   48 1
    51   25   49 1
    52   26   50 1
    53   26   51 1
    54   26   52 1
@<TRIPOS>PROPERTY_DATA
  Total_Score	| 11.1925
  Crash		| -1.1431
  Polar		| 4.9762
  FragIndex	| 1
  FragRMSD	| 0.424

