@<TRIPOS>MOLECULE
BindingDB_17996
 62 65 0 0 0
SMALL
NO_CHARGES


@<TRIPOS>ATOM
1    C        78.4851   25.5056   73.3506  C     
2    C        78.6914   24.4284   71.2543  C     
3    C        79.8364   23.7215   71.7041  C     
4    C        80.2629   23.9492   73.0454  C     
5    N        79.5603   24.8281   73.8101  N     
6    N        78.0560   25.2955   72.0843  N     
7    N        77.8782   26.3842   74.1631  N     
8    N        78.1747   24.2877   70.0201  N     
9    C        81.4146   23.2746   73.7065  C     
10   C        82.6094   24.2240   73.9775  C     
11   C        80.5695   22.8879   70.8185  C     
12   C        81.7877   23.3506   70.2781  C     
13   C        80.1431   21.5768   70.5350  C     
14   C        80.9428   20.7437   69.7338  C     
15   C        82.6341   22.5280   69.4821  C     
16   C        82.1619   21.2180   69.2105  C     
17   O        82.8971   20.3575   68.4441  O     
18   N        83.8663   22.9356   68.9406  N     
19   C        84.4633   24.2077   69.3519  C     
20   C        84.8696   24.2352   70.8532  C     
21   C        85.4292   27.6492   72.3045  C     
22   C        84.4652   22.1749   67.9967  C     
23   O        85.4765   22.5536   67.4145  O     
24   C        83.2798   21.0438   66.1739  C     
25   C        81.9914   21.3599   63.6393  C     
26   C        81.2255   21.2404   64.8083  C     
27   C        81.8627   21.0994   66.0546  C     
28   C        84.0274   21.1529   64.9690  C     
29   C        83.3952   21.2932   63.7190  C     
30   C        85.7291   26.3066   71.8659  C     
31   N        84.7551   25.5613   71.3675  N     
32   O        86.8776   25.8907   71.9591  O     
33   C        83.9070   20.8850   67.5441  C     
34   C        85.0267   19.7925   67.6626  C     
35   H        77.1029   26.8904   73.8671  H     
36   H        78.2488   26.5393   75.0439  H     
37   H        77.3863   24.7923   69.7630  H     
38   H        78.5724   23.6674   69.3872  H     
39   H        81.0626   22.8660   74.6595  H     
40   H        81.7919   22.4384   73.1220  H     
41   H        82.9196   24.7201   73.0540  H     
42   H        83.4537   23.6582   74.3755  H     
43   H        82.3221   24.9834   74.7131  H     
44   H        82.0525   24.3130   70.4924  H     
45   H        79.2587   21.2191   70.9125  H     
46   H        80.6308   19.7869   69.5354  H     
47   H        85.3636   24.4770   68.7926  H     
48   H        83.7617   25.0149   69.1196  H     
49   H        84.2150   23.6113   71.4606  H     
50   H        85.8799   23.8295   70.9535  H     
51   H        85.0236   28.2259   71.4696  H     
52   H        86.3239   28.1570   72.6756  H     
53   H        84.6893   27.6207   73.1058  H     
54   H        81.5365   21.4935   62.7341  H     
55   H        80.2032   21.2768   64.7560  H     
56   H        81.2709   21.0607   66.8840  H     
57   H        85.0494   21.1378   64.9803  H     
58   H        83.9539   21.3704   62.8633  H     
59   H        83.8620   25.9510   71.3588  H     
60   H        85.4045   19.7463   68.6859  H     
61   H        85.8680   20.0123   67.0032  H     
62   H        84.6348   18.8101   67.3947  H     
@<TRIPOS>BOND
     1    1    5 2
     2    1    6 1
     3    1    7 1
     4    2    3 1
     5    2    6 2
     6    2    8 1
     7    3    4 2
     8    3   11 1
     9    4    5 1
    10    4    9 1
    11    9   10 1
    12   11   12 1
    13   11   13 2
    14   12   15 2
    15   13   14 1
    16   14   16 2
    17   15   16 1
    18   15   18 1
    19   16   17 1
    20   17   33 1
    21   18   19 1
    22   18   22 1
    23   19   20 1
    24   20   31 1
    25   21   30 1
    26   22   23 2
    27   22   33 1
    28   24   27 1
    29   24   28 2
    30   24   33 1
    31   25   26 1
    32   25   29 2
    33   26   27 2
    34   28   29 1
    35   30   31 am
    36   30   32 2
    37   33   34 1
    38    7   35 1
    39    7   36 1
    40    8   37 1
    41    8   38 1
    42    9   39 1
    43    9   40 1
    44   10   41 1
    45   10   42 1
    46   10   43 1
    47   12   44 1
    48   13   45 1
    49   14   46 1
    50   19   47 1
    51   19   48 1
    52   20   49 1
    53   20   50 1
    54   21   51 1
    55   21   52 1
    56   21   53 1
    57   25   54 1
    58   26   55 1
    59   27   56 1
    60   28   57 1
    61   29   58 1
    62   31   59 1
    63   34   60 1
    64   34   61 1
    65   34   62 1
@<TRIPOS>PROPERTY_DATA
  Total_Score	| 13.0612
  Crash		| -1.3770
  Polar		| 5.6602
  FragIndex	| 1
  FragRMSD	| 0.166

