@<TRIPOS>MOLECULE
BindingDB_17974
 52 54 0 0 0
SMALL
NO_CHARGES


@<TRIPOS>ATOM
1    C        78.5013   25.5302   73.3354  C     
2    C        78.6688   24.4518   71.2348  C     
3    C        79.8919   23.8413   71.6194  C     
4    C        80.3905   24.1432   72.9229  C     
5    N        79.6662   24.9667   73.7244  N     
6    N        78.0139   25.2661   72.0992  N     
7    N        77.8519   26.3279   74.1963  N     
8    N        78.1076   24.2726   70.0266  N     
9    C        81.6233   23.5198   73.4922  C     
10   C        82.1585   24.1158   74.8188  C     
11   C        80.6296   23.0172   70.7213  C     
12   C        81.8591   23.4735   70.1926  C     
13   C        80.1944   21.7143   70.4075  C     
14   C        81.0061   20.8713   69.6284  C     
15   C        82.7095   22.6495   69.4101  C     
16   C        82.2462   21.3321   69.1447  C     
17   C        83.9736   21.0105   67.5340  C     
18   C        84.6283   22.2096   68.0665  C     
19   O        83.0496   20.4409   68.4841  O     
20   N        83.9707   23.0321   68.9148  N     
21   C        84.5613   24.3193   69.2849  C     
22   C        85.0620   24.3744   70.7667  C     
23   C        84.8343   25.7490   71.4619  C     
24   O        86.0619   26.2225   72.0720  O     
25   C        85.9824   27.5722   72.5503  C     
26   C        84.9427   19.8772   67.1081  C     
27   O        85.7478   22.4748   67.6428  O     
28   H        77.0111   26.7461   73.9558  H     
29   H        78.2340   26.4803   75.0789  H     
30   H        77.2859   24.7346   69.7968  H     
31   H        78.5281   23.6989   69.3705  H     
32   H        81.4093   22.4562   73.6557  H     
33   H        82.4423   23.5932   72.7704  H     
34   H        82.4057   25.1748   74.6883  H     
35   H        83.0567   23.5852   75.1290  H     
36   H        81.4085   24.0215   75.6062  H     
37   H        82.1500   24.4169   70.4429  H     
38   H        79.3055   21.3613   70.7775  H     
39   H        80.7003   19.9108   69.4389  H     
40   H        83.4094   21.3146   66.6427  H     
41   H        85.4171   24.6047   68.6618  H     
42   H        83.8307   25.1038   69.0699  H     
43   H        84.5812   23.5907   71.3634  H     
44   H        86.1298   24.1367   70.7734  H     
45   H        84.4820   26.4965   70.7280  H     
46   H        84.0565   25.6305   72.2295  H     
47   H        85.8062   28.2720   71.7293  H     
48   H        86.9373   27.8184   73.0063  H     
49   H        85.1951   27.6862   73.2998  H     
50   H        85.5867   20.2021   66.2900  H     
51   H        84.3791   19.0041   66.7710  H     
52   H        85.5661   19.5836   67.9518  H     
@<TRIPOS>BOND
     1    1    5 2
     2    1    6 1
     3    1    7 1
     4    2    3 1
     5    2    6 2
     6    2    8 1
     7    3    4 2
     8    3   11 1
     9    4    5 1
    10    4    9 1
    11    9   10 1
    12   11   12 1
    13   11   13 2
    14   12   15 2
    15   13   14 1
    16   14   16 2
    17   15   16 1
    18   15   20 1
    19   16   19 1
    20   17   18 1
    21   17   19 1
    22   17   26 1
    23   18   20 1
    24   18   27 2
    25   20   21 1
    26   21   22 1
    27   22   23 1
    28   23   24 1
    29   24   25 1
    30    7   28 1
    31    7   29 1
    32    8   30 1
    33    8   31 1
    34    9   32 1
    35    9   33 1
    36   10   34 1
    37   10   35 1
    38   10   36 1
    39   12   37 1
    40   13   38 1
    41   14   39 1
    42   17   40 1
    43   21   41 1
    44   21   42 1
    45   22   43 1
    46   22   44 1
    47   23   45 1
    48   23   46 1
    49   25   47 1
    50   25   48 1
    51   25   49 1
    52   26   50 1
    53   26   51 1
    54   26   52 1
@<TRIPOS>PROPERTY_DATA
  Total_Score	| 11.3332
  Crash		| -0.9711
  Polar		| 4.1669
  FragIndex	| 1
  FragRMSD	| 0.270

