@<TRIPOS>MOLECULE
BindingDB_17984
 55 57 0 0 0
SMALL
NO_CHARGES


@<TRIPOS>ATOM
1    C        78.4614   25.5886   73.3985  C     
2    C        78.6785   24.4480   71.3378  C     
3    C        79.8012   23.7231   71.8224  C     
4    C        80.1950   23.9631   73.1733  C     
5    N        79.5035   24.8844   73.8939  N     
6    N        78.0403   25.3427   72.1333  N     
7    N        77.8556   26.5007   74.1730  N     
8    N        78.1772   24.3069   70.0901  N     
9    C        81.2753   23.2529   73.9084  C     
10   C        82.5030   24.1460   74.1936  C     
11   C        80.5652   22.9010   70.9566  C     
12   C        81.9171   23.2336   70.7085  C     
13   C        80.0154   21.7749   70.3127  C     
14   C        80.8042   21.0004   69.4453  C     
15   C        82.7422   22.4746   69.8406  C     
16   C        82.1459   21.3577   69.2092  C     
17   O        82.8878   20.5684   68.3745  O     
18   N        84.0759   22.7871   69.5308  N     
19   C        84.8177   23.7677   70.3314  C     
20   C        84.5464   25.2345   69.8774  C     
21   C        85.8735   27.7251   72.3979  C     
22   C        84.9138   20.0151   67.2923  C     
23   N        84.8338   26.3220   70.7689  N     
24   C        85.8507   26.5085   71.6087  C     
25   O        86.7434   25.6954   71.7733  O     
26   C        83.9596   21.2045   67.6278  C     
27   C        83.3636   21.8457   66.3294  C     
28   F        84.3361   22.2927   65.4706  F     
29   F        82.5932   20.9454   65.6346  F     
30   F        82.5483   22.9164   66.6091  F     
31   C        84.6582   22.2164   68.4513  C     
32   O        85.7486   22.6088   68.0430  O     
33   H        77.1093   27.0168   73.8345  H     
34   H        78.2099   26.6699   75.0608  H     
35   H        77.3947   24.8219   69.8165  H     
36   H        78.5737   23.6790   69.4682  H     
37   H        80.8588   22.9128   74.8611  H     
38   H        81.6079   22.3625   73.3729  H     
39   H        82.9749   24.4659   73.2642  H     
40   H        83.2304   23.5841   74.7787  H     
41   H        82.2108   25.0289   74.7663  H     
42   H        82.2910   24.0507   71.1788  H     
43   H        79.0378   21.5098   70.4772  H     
44   H        80.3923   20.1828   68.9895  H     
45   H        84.5677   23.6488   71.3905  H     
46   H        85.8967   23.6040   70.2790  H     
47   H        85.1163   25.4081   68.9567  H     
48   H        83.4869   25.3387   69.6012  H     
49   H        85.7434   28.6016   71.7501  H     
50   H        86.8289   27.8483   72.9332  H     
51   H        85.0640   27.6994   73.1399  H     
52   H        85.2918   19.5606   68.2124  H     
53   H        85.7715   20.3437   66.7005  H     
54   H        84.3884   19.2425   66.7236  H     
55   H        84.1887   27.0448   70.7389  H     
@<TRIPOS>BOND
     1    1    5 2
     2    1    6 1
     3    1    7 1
     4    2    3 1
     5    2    6 2
     6    2    8 1
     7    3    4 2
     8    3   11 1
     9    4    5 1
    10    4    9 1
    11    9   10 1
    12   11   12 1
    13   11   13 2
    14   12   15 2
    15   13   14 1
    16   14   16 2
    17   15   16 1
    18   15   18 1
    19   16   17 1
    20   17   26 1
    21   18   19 1
    22   18   31 1
    23   19   20 1
    24   20   23 1
    25   21   24 1
    26   22   26 1
    27   23   24 am
    28   24   25 2
    29   26   27 1
    30   26   31 1
    31   27   28 1
    32   27   29 1
    33   27   30 1
    34   31   32 2
    35    7   33 1
    36    7   34 1
    37    8   35 1
    38    8   36 1
    39    9   37 1
    40    9   38 1
    41   10   39 1
    42   10   40 1
    43   10   41 1
    44   12   42 1
    45   13   43 1
    46   14   44 1
    47   19   45 1
    48   19   46 1
    49   20   47 1
    50   20   48 1
    51   21   49 1
    52   21   50 1
    53   21   51 1
    54   22   52 1
    55   22   53 1
    56   22   54 1
    57   23   55 1
@<TRIPOS>PROPERTY_DATA
  Total_Score	| 10.3594
  Crash		| -1.3372
  Polar		| 4.6961
  FragIndex	| 1
  FragRMSD	| 0.273

