@<TRIPOS>MOLECULE
BindingDB_17983
 55 57 0 0 0
SMALL
NO_CHARGES


@<TRIPOS>ATOM
1    C        78.5937   25.7287   73.3051  C     
2    C        78.7018   24.5851   71.2328  C     
3    C        79.7767   23.7913   71.7062  C     
4    C        80.2026   23.9981   73.0487  C     
5    N        79.5973   24.9621   73.7905  N     
6    N        78.1559   25.5333   72.0369  N     
7    N        78.1101   26.7312   74.0579  N     
8    N        78.1964   24.4866   69.9893  N     
9    C        81.3241   23.2776   73.7169  C     
10   C        82.5593   24.1807   73.9483  C     
11   C        80.5055   22.9615   70.8220  C     
12   C        81.7676   23.3936   70.3697  C     
13   C        80.0262   21.6911   70.4487  C     
14   C        80.8233   20.8590   69.6465  C     
15   C        82.5781   22.5933   69.5239  C     
16   C        82.0764   21.3021   69.1949  C     
17   C        84.4483   22.2048   68.0876  C     
18   O        82.8575   20.4321   68.4792  O     
19   N        83.8300   22.9879   69.0002  N     
20   C        84.4258   24.2652   69.3871  C     
21   C        84.8730   24.2750   70.8780  C     
22   C        85.5792   27.5982   72.4842  C     
23   O        85.5395   22.5051   67.6041  O     
24   C        83.7819   21.0101   67.5274  C     
25   C        84.7822   19.8531   67.2265  C     
26   C        83.0123   21.4099   66.2331  C     
27   N        84.7912   25.5854   71.4548  N     
28   C        85.8177   26.2753   71.9383  C     
29   O        86.9571   25.8316   71.9012  O     
30   H        77.5194   27.3973   73.6649  H     
31   H        78.4656   26.8618   74.9482  H     
32   H        77.4793   25.0781   69.7020  H     
33   H        78.5416   23.8259   69.3664  H     
34   H        80.9727   22.9021   74.6861  H     
35   H        81.6443   22.4066   73.1398  H     
36   H        82.9088   24.6287   73.0089  H     
37   H        83.3716   23.5863   74.3678  H     
38   H        82.3171   24.9894   74.6461  H     
39   H        82.1009   24.3033   70.6889  H     
40   H        79.1217   21.3504   70.7855  H     
41   H        80.4979   19.9253   69.3996  H     
42   H        85.3174   24.5244   68.7983  H     
43   H        83.7402   25.0874   69.1737  H     
44   H        84.2694   23.5764   71.4919  H     
45   H        85.9190   23.9211   70.9208  H     
46   H        85.1440   28.2521   71.7211  H     
47   H        86.5055   28.0552   72.8448  H     
48   H        84.8829   27.5203   73.3202  H     
49   H        85.4805   20.1234   66.4264  H     
50   H        84.2354   18.9561   66.9105  H     
51   H        85.3601   19.6041   68.1216  H     
52   H        82.3531   22.2597   66.4233  H     
53   H        82.4000   20.5784   65.8795  H     
54   H        83.7095   21.6890   65.4354  H     
55   H        83.9262   26.0270   71.4569  H     
@<TRIPOS>BOND
     1    1    5 2
     2    1    6 1
     3    1    7 1
     4    2    3 1
     5    2    6 2
     6    2    8 1
     7    3    4 2
     8    3   11 1
     9    4    5 1
    10    4    9 1
    11    9   10 1
    12   11   12 1
    13   11   13 2
    14   12   15 2
    15   13   14 1
    16   14   16 2
    17   15   16 1
    18   15   19 1
    19   16   18 1
    20   17   19 1
    21   17   23 2
    22   17   24 1
    23   18   24 1
    24   19   20 1
    25   20   21 1
    26   21   27 1
    27   22   28 1
    28   24   25 1
    29   24   26 1
    30   27   28 am
    31   28   29 2
    32    7   30 1
    33    7   31 1
    34    8   32 1
    35    8   33 1
    36    9   34 1
    37    9   35 1
    38   10   36 1
    39   10   37 1
    40   10   38 1
    41   12   39 1
    42   13   40 1
    43   14   41 1
    44   20   42 1
    45   20   43 1
    46   21   44 1
    47   21   45 1
    48   22   46 1
    49   22   47 1
    50   22   48 1
    51   25   49 1
    52   25   50 1
    53   25   51 1
    54   26   52 1
    55   26   53 1
    56   26   54 1
    57   27   55 1
@<TRIPOS>PROPERTY_DATA
  Total_Score	| 12.2350
  Crash		| -1.0924
  Polar		| 6.1924
  FragIndex	| 1
  FragRMSD	| 0.147

