@<TRIPOS>MOLECULE
BindingDB_17987
 53 56 0 0 0
SMALL
NO_CHARGES


@<TRIPOS>ATOM
1    C        78.6760   25.8834   73.1707  C     
2    C        78.7724   24.6687   71.1456  C     
3    C        79.8401   23.8759   71.6381  C     
4    C        80.2855   24.1312   72.9612  C     
5    N        79.6786   25.1236   73.6688  N     
6    N        78.2323   25.6469   71.9177  N     
7    N        78.1941   26.8879   73.9131  N     
8    N        78.2679   24.5344   69.9058  N     
9    C        81.4013   23.3706   73.6000  C     
10   C        82.0469   24.0097   74.8520  C     
11   C        80.5556   23.0001   70.7809  C     
12   C        81.8174   23.4098   70.2936  C     
13   C        80.0719   21.7189   70.4517  C     
14   C        80.8583   20.8512   69.6734  C     
15   C        82.6392   22.5663   69.4998  C     
16   C        82.1248   21.2645   69.2091  C     
17   O        82.8719   20.3352   68.5271  O     
18   N        83.9147   22.9371   69.0116  N     
19   C        84.5442   24.1991   69.3986  C     
20   C        84.8605   24.2542   70.9216  C     
21   C        85.4919   27.6303   72.4297  C     
22   C        84.5737   22.1005   68.1822  C     
23   O        85.7338   22.2897   67.8255  O     
24   C        83.8862   20.9154   67.6830  C     
25   C        84.5452   19.9358   66.6943  C     
26   C        83.5062   20.9484   66.1901  C     
27   N        84.7568   25.5904   71.4375  N     
28   C        85.7656   26.3146   71.8964  C     
29   O        86.9133   25.8965   71.8827  O     
30   H        77.6152   27.5582   73.5189  H     
31   H        78.5630   27.0409   74.7956  H     
32   H        77.5534   25.1211   69.6093  H     
33   H        78.6216   23.8623   69.3007  H     
34   H        81.0240   22.3811   73.8764  H     
35   H        82.2063   23.2335   72.8737  H     
36   H        82.5304   24.9548   74.5878  H     
37   H        82.8017   23.3381   75.2629  H     
38   H        81.2951   24.1955   75.6236  H     
39   H        82.1432   24.3374   70.5648  H     
40   H        79.1656   21.3988   70.8053  H     
41   H        80.5131   19.9057   69.4721  H     
42   H        85.4857   24.3822   68.8596  H     
43   H        83.9218   25.0420   69.0900  H     
44   H        84.1924   23.5933   71.4934  H     
45   H        85.8878   23.8904   71.0581  H     
46   H        85.0203   28.2552   71.6664  H     
47   H        86.4091   28.1234   72.7678  H     
48   H        84.8114   27.5436   73.2784  H     
49   H        85.5773   20.1398   66.3922  H     
50   H        84.2010   18.8999   66.7403  H     
51   H        82.5189   20.5461   65.9496  H     
52   H        83.9081   21.7677   65.5860  H     
53   H        83.8817   26.0043   71.4367  H     
@<TRIPOS>BOND
     1    1    5 2
     2    1    6 1
     3    1    7 1
     4    2    3 1
     5    2    6 2
     6    2    8 1
     7    3    4 2
     8    3   11 1
     9    4    5 1
    10    4    9 1
    11    9   10 1
    12   11   12 1
    13   11   13 2
    14   12   15 2
    15   13   14 1
    16   14   16 2
    17   15   16 1
    18   15   18 1
    19   16   17 1
    20   17   24 1
    21   18   19 1
    22   18   22 1
    23   19   20 1
    24   20   27 1
    25   21   28 1
    26   22   23 2
    27   22   24 1
    28   24   25 1
    29   24   26 1
    30   25   26 1
    31   27   28 am
    32   28   29 2
    33    7   30 1
    34    7   31 1
    35    8   32 1
    36    8   33 1
    37    9   34 1
    38    9   35 1
    39   10   36 1
    40   10   37 1
    41   10   38 1
    42   12   39 1
    43   13   40 1
    44   14   41 1
    45   19   42 1
    46   19   43 1
    47   20   44 1
    48   20   45 1
    49   21   46 1
    50   21   47 1
    51   21   48 1
    52   25   49 1
    53   25   50 1
    54   26   51 1
    55   26   52 1
    56   27   53 1
@<TRIPOS>PROPERTY_DATA
  Total_Score	| 12.4342
  Crash		| -1.3105
  Polar		| 6.5040
  FragIndex	| 1
  FragRMSD	| 0.339

