@<TRIPOS>MOLECULE
BindingDB_17986
 61 63 0 0 0
SMALL
NO_CHARGES


@<TRIPOS>ATOM
1    C        78.4673   25.6922   73.4015  C     
2    C        78.6474   24.5469   71.3356  C     
3    C        79.7236   23.7738   71.8398  C     
4    C        80.0923   23.9666   73.2031  C     
5    N        79.4500   24.9225   73.9200  N     
6    N        78.0671   25.4880   72.1240  N     
7    N        77.9494   26.6754   74.1505  N     
8    N        78.1760   24.4265   70.0775  N     
9    C        81.1502   23.2108   73.9290  C     
10   C        82.4388   24.0411   74.1296  C     
11   C        80.5036   22.9743   70.9711  C     
12   C        81.8069   23.4022   70.6367  C     
13   C        80.0159   21.7630   70.4404  C     
14   C        80.8229   20.9949   69.5838  C     
15   C        82.6708   22.5982   69.8464  C     
16   C        82.1290   21.4190   69.2812  C     
17   O        82.8996   20.6771   68.4196  O     
18   N        84.0032   22.9009   69.5576  N     
19   C        84.7469   23.8184   70.4118  C     
20   C        84.6870   25.2504   69.8283  C     
21   C        85.3284   28.7274   71.1210  C     
22   C        84.5946   22.3529   68.4751  C     
23   O        85.7562   22.6197   68.2004  O     
24   C        85.1641   26.3298   70.8290  C     
25   O        84.9582   27.6345   70.2614  O     
26   C        83.8521   21.4145   67.5985  C     
27   C        84.7861   20.2991   66.9975  C     
28   C        85.7394   20.7137   65.8413  C     
29   C        83.0853   22.2333   66.4963  C     
30   C        82.2997   21.3953   65.4610  C     
31   H        77.3612   27.3373   73.7542  H     
32   H        78.2898   26.8087   75.0495  H     
33   H        77.4317   24.9743   69.7810  H     
34   H        78.5551   23.7690   69.4695  H     
35   H        80.7609   22.9181   74.9080  H     
36   H        81.4088   22.2865   73.4080  H     
37   H        82.8513   24.3519   73.1678  H     
38   H        83.1864   23.4395   74.6508  H     
39   H        82.2344   24.9322   74.7250  H     
40   H        82.1135   24.3204   70.9774  H     
41   H        79.0707   21.4401   70.6643  H     
42   H        80.4541   20.1347   69.1720  H     
43   H        84.3530   23.8037   71.4307  H     
44   H        85.7915   23.5231   70.5190  H     
45   H        85.2896   25.3004   68.9179  H     
46   H        83.6484   25.4517   69.5570  H     
47   H        86.4205   28.8134   71.1661  H     
48   H        84.9249   28.6142   72.1354  H     
49   H        84.9271   29.6518   70.6978  H     
50   H        84.5831   26.2475   71.7502  H     
51   H        86.2164   26.1631   71.0641  H     
52   H        85.3968   19.8841   67.8073  H     
53   H        84.1756   19.4712   66.6251  H     
54   H        85.1836   20.7959   64.9053  H     
55   H        86.5113   19.9567   65.7153  H     
56   H        86.2357   21.6632   66.0331  H     
57   H        82.3603   22.8988   66.9729  H     
58   H        83.7879   22.8761   65.9638  H     
59   H        82.9443   20.6590   64.9773  H     
60   H        81.8897   22.0536   64.6898  H     
61   H        81.4664   20.8756   65.9466  H     
@<TRIPOS>BOND
     1    1    5 2
     2    1    6 1
     3    1    7 1
     4    2    3 1
     5    2    6 2
     6    2    8 1
     7    3    4 2
     8    3   11 1
     9    4    5 1
    10    4    9 1
    11    9   10 1
    12   11   12 1
    13   11   13 2
    14   12   15 2
    15   13   14 1
    16   14   16 2
    17   15   16 1
    18   15   18 1
    19   16   17 1
    20   17   26 1
    21   18   19 1
    22   18   22 1
    23   19   20 1
    24   20   24 1
    25   21   25 1
    26   22   23 2
    27   22   26 1
    28   24   25 1
    29   26   27 1
    30   26   29 1
    31   27   28 1
    32   29   30 1
    33    7   31 1
    34    7   32 1
    35    8   33 1
    36    8   34 1
    37    9   35 1
    38    9   36 1
    39   10   37 1
    40   10   38 1
    41   10   39 1
    42   12   40 1
    43   13   41 1
    44   14   42 1
    45   19   43 1
    46   19   44 1
    47   20   45 1
    48   20   46 1
    49   21   47 1
    50   21   48 1
    51   21   49 1
    52   24   50 1
    53   24   51 1
    54   27   52 1
    55   27   53 1
    56   28   54 1
    57   28   55 1
    58   28   56 1
    59   29   57 1
    60   29   58 1
    61   30   59 1
    62   30   60 1
    63   30   61 1
@<TRIPOS>PROPERTY_DATA
  Total_Score	| 11.3372
  Crash		| -1.4686
  Polar		| 5.3294
  FragIndex	| 1
  FragRMSD	| 0.355

