@<TRIPOS>MOLECULE
BindingDB_15381
 51 53 0 0 0
SMALL
NO_CHARGES


@<TRIPOS>ATOM
1    C        -1.4197   11.2195   25.1430  C     
2    C        -0.9690    9.8890   27.0567  C     
3    N         0.3420    9.7762   26.7059  N     
4    N        -1.8304   10.5992   26.2802  N     
5    N        -2.3084   11.9032   24.3957  N     
6    C        -0.0696   11.1067   24.7708  C     
7    C         0.8004   10.3721   25.5714  C     
8    C         1.9111   11.2084   23.8949  C     
9    N         0.6302   11.5971   23.7428  N     
10   N         2.0253   10.4301   25.0122  N     
11   C         3.1994    9.8314   25.5792  C     
12   C         3.3326    8.3021   25.2826  C     
13   C         4.4419    7.9205   24.2655  C     
14   C         2.9462   11.6450   22.9240  C     
15   C         4.1142   12.3888   23.4915  C     
16   C         5.4415   11.9199   23.2053  C     
17   C         6.5829   12.5556   23.7209  C     
18   C         3.9924   13.5528   24.2854  C     
19   C         6.4331   13.7068   24.5223  C     
20   C         5.1400   14.2031   24.8104  C     
21   O         7.8832   12.1360   23.4708  O     
22   C         8.0876   10.8671   22.8390  C     
23   Cl        2.4593   14.1920   24.6611  Cl    
24   O         7.5158   14.3020   25.1139  O     
25   C         8.1489   15.3364   24.3357  C     
26   O         5.0161   15.2475   25.7007  O     
27   C         4.7675   16.5304   25.1074  C     
28   C         4.1152    8.1137   22.9575  C     
29   C         3.8648    8.2602   21.7897  C     
30   F        -1.4144    9.3036   28.1314  F     
31   H        -2.0218   12.3456   23.5834  H     
32   H        -3.2403   11.9328   24.6607  H     
33   H         4.0983   10.3388   25.2387  H     
34   H         3.1754    9.9866   26.6628  H     
35   H         3.5806    7.8003   26.2269  H     
36   H         2.3699    7.8839   24.9605  H     
37   H         5.3462    8.4899   24.4786  H     
38   H         4.6820    6.8622   24.3857  H     
39   H         3.2598   10.7520   22.3844  H     
40   H         2.4864   12.3013   22.1819  H     
41   H         5.5497   11.0950   22.6223  H     
42   H         7.7230   10.0462   23.4501  H     
43   H         9.1872   10.7016   22.7183  H     
44   H         7.6567   10.8194   21.8469  H     
45   H         8.6537   14.9153   23.4665  H     
46   H         8.8976   15.8293   24.9605  H     
47   H         7.4492   16.0985   23.9885  H     
48   H         5.6466   16.9002   24.5868  H     
49   H         4.5269   17.2193   25.9141  H     
50   H         3.9294   16.5145   24.4107  H     
51   H         3.6789    8.3678   20.8941  H     
@<TRIPOS>BOND
     1    1    4 1
     2    1    5 1
     3    1    6 2
     4    2    3 1
     5    2    4 2
     6    2   30 1
     7    3    7 2
     8    6    7 1
     9    6    9 1
    10    7   10 1
    11    8    9 2
    12    8   10 1
    13    8   14 1
    14   10   11 1
    15   11   12 1
    16   12   13 1
    17   13   28 1
    18   14   15 1
    19   15   16 2
    20   15   18 1
    21   16   17 1
    22   17   19 2
    23   17   21 1
    24   18   20 2
    25   18   23 1
    26   19   20 1
    27   19   24 1
    28   20   26 1
    29   21   22 1
    30   24   25 1
    31   26   27 1
    32   28   29 3
    33    5   31 1
    34    5   32 1
    35   11   33 1
    36   11   34 1
    37   12   35 1
    38   12   36 1
    39   13   37 1
    40   13   38 1
    41   14   39 1
    42   14   40 1
    43   16   41 1
    44   22   42 1
    45   22   43 1
    46   22   44 1
    47   25   45 1
    48   25   46 1
    49   25   47 1
    50   27   48 1
    51   27   49 1
    52   27   50 1
    53   29   51 1
@<TRIPOS>PROPERTY_DATA
  Total_Score	| 10.2051
  Crash		| -1.0102
  Polar		| 2.5417
  FragIndex	| 1
  FragRMSD	| 0.473

