@<TRIPOS>MOLECULE
BindingDB_50165283
 56 58 0 0 0
SMALL
NO_CHARGES


@<TRIPOS>ATOM
1    N         0.6036   11.6460   23.8541  N     
2    C        -0.1096   11.1524   24.8739  C     
3    C         1.8845   11.2376   24.0205  C     
4    N         1.9817   10.4771   25.1420  N     
5    C         0.7498   10.4226   25.6834  C     
6    C        -1.4754   11.2309   25.2173  C     
7    N         0.2787    9.7842   26.7923  N     
8    C         6.3718   13.7195   24.5831  C     
9    N        -1.8935   10.5785   26.3348  N     
10   C         5.0640   14.1344   24.9217  C     
11   C         6.5663   12.6010   23.7378  C     
12   C         2.9223   11.6081   23.0178  C     
13   C         4.1147   12.3292   23.5558  C     
14   C        -1.0416    9.8646   27.1177  C     
15   C         3.9551   13.4641   24.3736  C     
16   C         5.4390   11.9160   23.2390  C     
17   C         3.1301    9.7859   25.6852  C     
18   N        -2.3725   11.8934   24.4735  N     
19   O         7.4402   14.3672   25.1665  O     
20   O         4.8549   15.1169   25.8536  O     
21   O         7.8635   12.2728   23.3984  O     
22   C         3.2756    8.3726   25.0875  C     
23   O         2.0409    7.6401   25.2661  O     
24   C         1.6720    6.6937   24.2442  C     
25   C         8.1031   15.3293   24.3263  C     
26   C         8.1413   10.9315   22.9480  C     
27   C         4.5686   16.4068   25.2965  C     
28   C         0.6135    5.7224   24.8100  C     
29   C         1.1106    7.4214   22.9888  C     
30   H         3.2154   10.6937   22.4972  H     
31   H         2.4709   12.2654   22.2712  H     
32   H        -1.3977    9.3734   27.9355  H     
33   H         3.0106   13.7955   24.5984  H     
34   H         5.5965   11.1097   22.6260  H     
35   H         4.0364   10.3559   25.4991  H     
36   H         3.0391    9.6959   26.7719  H     
37   H        -3.3065   11.8976   24.7370  H     
38   H        -2.1033   12.3437   23.6578  H     
39   H         3.5641    8.4681   24.0369  H     
40   H         4.0799    7.8322   25.6012  H     
41   H         2.5469    6.1078   23.9573  H     
42   H         8.6184   14.8418   23.4944  H     
43   H         8.8496   15.8457   24.9315  H     
44   H         7.4165   16.0796   23.9270  H     
45   H         7.8662   10.1912   23.6977  H     
46   H         9.2224   10.8475   22.7813  H     
47   H         7.6251   10.7022   22.0077  H     
48   H         5.4528   16.8244   24.8066  H     
49   H         4.2774   17.0735   26.1123  H     
50   H         3.7426   16.3674   24.5787  H     
51   H         0.9980    5.2234   25.7024  H     
52   H         0.3620    4.9543   24.0718  H     
53   H        -0.3048    6.2557   25.0804  H     
54   H         0.2120    7.9874   23.2480  H     
55   H         0.8608    6.6993   22.2093  H     
56   H         1.8437    8.1142   22.5759  H     
@<TRIPOS>BOND
     1    1    2 1
     2    1    3 2
     3    2    5 1
     4    2    6 2
     5    3    4 1
     6    3   12 1
     7    4    5 1
     8    4   17 1
     9    5    7 2
    10    6    9 1
    11    6   18 1
    12    7   14 1
    13    8   10 2
    14    8   11 1
    15    8   19 1
    16    9   14 2
    17   10   15 1
    18   10   20 1
    19   11   16 2
    20   11   21 1
    21   12   13 1
    22   13   15 2
    23   13   16 1
    24   17   22 1
    25   19   25 1
    26   20   27 1
    27   21   26 1
    28   22   23 1
    29   23   24 1
    30   24   28 1
    31   24   29 1
    32   12   30 1
    33   12   31 1
    34   14   32 1
    35   15   33 1
    36   16   34 1
    37   17   35 1
    38   17   36 1
    39   18   37 1
    40   18   38 1
    41   22   39 1
    42   22   40 1
    43   24   41 1
    44   25   42 1
    45   25   43 1
    46   25   44 1
    47   26   45 1
    48   26   46 1
    49   26   47 1
    50   27   48 1
    51   27   49 1
    52   27   50 1
    53   28   51 1
    54   28   52 1
    55   28   53 1
    56   29   54 1
    57   29   55 1
    58   29   56 1
@<TRIPOS>PROPERTY_DATA
  Total_Score	| 10.6837
  Crash		| -0.8337
  Polar		| 2.5016
  FragIndex	| 1
  FragRMSD	| 0.144

