@<TRIPOS>MOLECULE
BindingDB_50165297
 51 53 0 0 0
SMALL
NO_CHARGES


@<TRIPOS>ATOM
1    N        -1.8401   10.4703   26.3552  N     
2    C        -0.9747    9.7302   27.0952  C     
3    N         0.3340    9.6533   26.7344  N     
4    C        -1.4495   11.1534   25.2460  C     
5    N        -2.3419   11.8463   24.5183  N     
6    C        -0.0964   11.0880   24.8742  C     
7    C         0.7729   10.3240   25.6372  C     
8    N         2.0010   10.4076   25.0743  N     
9    C         1.8717   11.2149   23.9865  C     
10   N         0.5908   11.6283   23.8727  N     
11   C         3.1754    9.7837   25.6322  C     
12   C         3.3503    8.2795   25.2799  C     
13   C         4.4975    7.9695   24.2816  C     
14   C         4.1482    8.1228   22.9683  C     
15   C         3.8691    8.2151   21.8023  C     
16   C         2.8857   11.6032   22.9824  C     
17   C         4.0651   12.3363   23.5151  C     
18   C         3.9276   13.4255   24.4039  C     
19   C         5.0436   14.1353   24.8767  C     
20   C         6.3354   13.7609   24.4503  C     
21   C         6.4985   12.6605   23.5970  C     
22   C         5.3646   11.9522   23.1293  C     
23   O         7.4905   14.3248   24.9341  O     
24   C         8.1959   15.1942   24.0168  C     
25   O         4.8859   15.1455   25.7751  O     
26   C         4.8932   16.4558   25.1525  C     
27   O         7.7916   12.3451   23.2609  O     
28   C         8.0362   10.9904   22.8733  C     
29   H        -1.3027    9.2279   27.9142  H     
30   H        -2.0522   12.3248   23.7245  H     
31   H        -3.2843   11.8553   24.7670  H     
32   H         4.0803   10.3178   25.3563  H     
33   H         3.0993    9.8791   26.7191  H     
34   H         3.5896    7.7396   26.1999  H     
35   H         2.4092    7.8462   24.9080  H     
36   H         5.3498    8.6242   24.4938  H     
37   H         4.8275    6.9377   24.4307  H     
38   H         3.6621    8.2916   20.9086  H     
39   H         3.1930   10.6868   22.4713  H     
40   H         2.4231   12.2369   22.2210  H     
41   H         3.0008   13.6910   24.7240  H     
42   H         5.5197   11.1508   22.5009  H     
43   H         8.3114   14.7609   23.0103  H     
44   H         9.1832   15.4047   24.4449  H     
45   H         7.6786   16.1498   23.9495  H     
46   H         5.8553   16.6561   24.6586  H     
47   H         4.7466   17.2041   25.9265  H     
48   H         4.0752   16.5675   24.4298  H     
49   H         7.4623   10.2521   23.4685  H     
50   H         9.1045   10.7887   23.0136  H     
51   H         7.8000   10.8508   21.8066  H     
@<TRIPOS>BOND
     1    1    2 2
     2    1    4 1
     3    2    3 1
     4    3    7 2
     5    4    5 1
     6    4    6 2
     7    6    7 1
     8    6   10 1
     9    7    8 1
    10    8    9 1
    11    8   11 1
    12    9   10 2
    13    9   16 1
    14   11   12 1
    15   12   13 1
    16   13   14 1
    17   14   15 3
    18   16   17 1
    19   17   18 2
    20   17   22 1
    21   18   19 1
    22   19   20 2
    23   19   25 1
    24   20   21 1
    25   20   23 1
    26   21   22 2
    27   21   27 1
    28   23   24 1
    29   25   26 1
    30   27   28 1
    31    2   29 1
    32    5   30 1
    33    5   31 1
    34   11   32 1
    35   11   33 1
    36   12   34 1
    37   12   35 1
    38   13   36 1
    39   13   37 1
    40   15   38 1
    41   16   39 1
    42   16   40 1
    43   18   41 1
    44   22   42 1
    45   24   43 1
    46   24   44 1
    47   24   45 1
    48   26   46 1
    49   26   47 1
    50   26   48 1
    51   28   49 1
    52   28   50 1
    53   28   51 1
@<TRIPOS>PROPERTY_DATA
  Total_Score	| 9.5469
  Crash		| -1.0109
  Polar		| 2.4579
  FragIndex	| 1
  FragRMSD	| 0.407

