@<TRIPOS>MOLECULE
BindingDB_15380
 51 53 0 0 0
SMALL
NO_CHARGES


@<TRIPOS>ATOM
1    C        -1.4326   11.1914   25.2058  C     
2    C        -0.9396    9.8583   27.1144  C     
3    N         0.3710    9.7715   26.7462  N     
4    N        -1.8202   10.5511   26.3437  N     
5    N        -2.3315   11.8501   24.4555  N     
6    C        -0.0786   11.1245   24.8374  C     
7    C         0.8058   10.3908   25.6176  C     
8    C         1.8831   11.2469   23.9378  C     
9    N         0.5984   11.6452   23.8124  N     
10   N         2.0190   10.4498   25.0337  N     
11   C         3.1938    9.7738   25.5184  C     
12   C         3.3211    8.3059   25.0293  C     
13   C         2.9574    8.0562   23.5404  C     
14   C         2.9002   11.6694   22.9421  C     
15   C         4.0846   12.4074   23.4926  C     
16   C         5.3818   11.9359   23.1871  C     
17   C         6.5539   12.5629   23.6643  C     
18   C         3.9750   13.5801   24.2886  C     
19   C         6.4187   13.7214   24.4580  C     
20   C         5.1380   14.2285   24.7753  C     
21   O         7.8407   12.1438   23.3895  O     
22   C         8.0846   10.9432   22.6361  C     
23   Cl        2.4521   14.2232   24.7017  Cl    
24   O         7.5346   14.2922   25.0216  O     
25   C         8.1850   15.2689   24.1692  C     
26   O         5.0517   15.2640   25.6773  O     
27   C         4.7993   16.5604   25.0837  C     
28   C         3.9514    8.3791   22.6537  C     
29   C         4.8087    8.6579   21.8694  C     
30   H        -1.2622    9.3951   27.9676  H     
31   H        -2.0477   12.2920   23.6405  H     
32   H        -3.2681   11.8632   24.7063  H     
33   H         4.0999   10.3014   25.2257  H     
34   H         3.1711    9.7825   26.6102  H     
35   H         4.3497    7.9734   25.2049  H     
36   H         2.6753    7.6747   25.6453  H     
37   H         2.7358    6.9955   23.4079  H     
38   H         2.0592    8.6191   23.2756  H     
39   H         3.2017   10.7641   22.4140  H     
40   H         2.4317   12.3165   22.1953  H     
41   H         5.4856   11.1091   22.5999  H     
42   H         7.5441   10.0979   23.0685  H     
43   H         9.1547   10.7244   22.6676  H     
44   H         7.7963   11.0778   21.5910  H     
45   H         8.5009   14.8360   23.2104  H     
46   H         9.0835   15.6317   24.6896  H     
47   H         7.5302   16.1232   23.9715  H     
48   H         5.6601   16.9061   24.5033  H     
49   H         4.6229   17.2708   25.9010  H     
50   H         3.9103   16.5561   24.4425  H     
51   H         5.4674    8.8746   21.2631  H     
@<TRIPOS>BOND
     1    1    4 1
     2    1    5 1
     3    1    6 2
     4    2    3 1
     5    2    4 2
     6    3    7 2
     7    6    7 1
     8    6    9 1
     9    7   10 1
    10    8    9 2
    11    8   10 1
    12    8   14 1
    13   10   11 1
    14   11   12 1
    15   12   13 1
    16   13   28 1
    17   14   15 1
    18   15   16 2
    19   15   18 1
    20   16   17 1
    21   17   19 2
    22   17   21 1
    23   18   20 2
    24   18   23 1
    25   19   20 1
    26   19   24 1
    27   20   26 1
    28   21   22 1
    29   24   25 1
    30   26   27 1
    31   28   29 3
    32    2   30 1
    33    5   31 1
    34    5   32 1
    35   11   33 1
    36   11   34 1
    37   12   35 1
    38   12   36 1
    39   13   37 1
    40   13   38 1
    41   14   39 1
    42   14   40 1
    43   16   41 1
    44   22   42 1
    45   22   43 1
    46   22   44 1
    47   25   45 1
    48   25   46 1
    49   25   47 1
    50   27   48 1
    51   27   49 1
    52   27   50 1
    53   29   51 1
@<TRIPOS>PROPERTY_DATA
  Total_Score	| 9.7276
  Crash		| -1.0797
  Polar		| 2.4942
  FragIndex	| 1
  FragRMSD	| 0.122

