@<TRIPOS>MOLECULE
BindingDB_50165270
 51 53 0 0 0
SMALL
NO_CHARGES


@<TRIPOS>ATOM
1    C         0.8173   10.4784   25.6610  C     
2    C        -0.0694   11.1674   24.8414  C     
3    N         0.6127   11.6314   23.7899  N     
4    N         2.0306   10.5141   25.0762  N     
5    C         1.8992   11.2498   23.9360  C     
6    N         0.3883    9.9022   26.8150  N     
7    N        -1.8065   10.6526   26.3797  N     
8    C        -1.4243   11.2412   25.2111  C     
9    C        -0.9203    9.9962   27.1814  C     
10   C         6.3973   13.6896   24.4690  C     
11   C         5.0913   14.1159   24.7929  C     
12   C         6.5704   12.5473   23.6537  C     
13   C         2.9246   11.5928   22.9107  C     
14   C         4.1228   12.3158   23.4281  C     
15   C         4.2277    8.2332   22.9071  C     
16   C         3.9657    8.2652   21.7300  C     
17   C         5.4347   11.8812   23.1256  C     
18   C         3.9724   13.4487   24.2577  C     
19   N        -2.3349   11.8513   24.4394  N     
20   F        -1.3260    9.4609   28.2961  F     
21   C         3.2144    9.9100   25.6309  C     
22   O         7.4728   14.3084   25.0623  O     
23   O         4.8741   15.0747   25.7496  O     
24   O         7.8614   12.1863   23.3440  O     
25   C         4.5835    8.1460   24.2264  C     
26   C         8.0811   15.3623   24.2894  C     
27   C         8.0556   10.9177   22.6768  C     
28   C         4.6174   16.3868   25.1998  C     
29   C         3.4143    8.4170   25.2213  C     
30   H         3.2144   10.6672   22.4090  H     
31   H         2.4658   12.2243   22.1437  H     
32   H         3.7382    8.2858   20.8364  H     
33   H         5.5773   11.0578   22.5308  H     
34   H         3.0359   13.7738   24.5119  H     
35   H        -3.2672   11.8613   24.6950  H     
36   H        -2.0698   12.2534   23.5942  H     
37   H         4.0929   10.4881   25.3564  H     
38   H         3.1628    9.9728   26.7246  H     
39   H         4.9777    7.1326   24.3870  H     
40   H         5.4137    8.8452   24.3908  H     
41   H         8.5636   14.9693   23.3887  H     
42   H         8.8491   15.8362   24.9093  H     
43   H         7.3565   16.1293   23.9996  H     
44   H         7.4963   10.1016   23.1670  H     
45   H         9.1341   10.6925   22.7192  H     
46   H         7.7559   11.0031   21.6193  H     
47   H         5.5436   16.8214   24.7939  H     
48   H         4.2606   17.0351   26.0137  H     
49   H         3.8453   16.3652   24.4091  H     
50   H         3.6257    7.8478   26.1312  H     
51   H         2.4836    7.9999   24.8259  H     
@<TRIPOS>BOND
     1    1    2 1
     2    1    4 1
     3    1    6 2
     4    2    3 1
     5    2    8 2
     6    3    5 2
     7    4    5 1
     8    4   21 1
     9    5   13 1
    10    6    9 1
    11    7    8 1
    12    7    9 2
    13    8   19 1
    14    9   20 1
    15   10   11 1
    16   10   12 2
    17   10   22 1
    18   11   18 2
    19   11   23 1
    20   12   17 1
    21   12   24 1
    22   13   14 1
    23   14   17 2
    24   14   18 1
    25   15   16 3
    26   15   25 1
    27   21   29 1
    28   22   26 1
    29   23   28 1
    30   24   27 1
    31   25   29 1
    32   13   30 1
    33   13   31 1
    34   16   32 1
    35   17   33 1
    36   18   34 1
    37   19   35 1
    38   19   36 1
    39   21   37 1
    40   21   38 1
    41   25   39 1
    42   25   40 1
    43   26   41 1
    44   26   42 1
    45   26   43 1
    46   27   44 1
    47   27   45 1
    48   27   46 1
    49   28   47 1
    50   28   48 1
    51   28   49 1
    52   29   50 1
    53   29   51 1
@<TRIPOS>PROPERTY_DATA
  Total_Score	| 10.0602
  Crash		| -0.9029
  Polar		| 2.5241
  FragIndex	| 1
  FragRMSD	| 0.407

