@<TRIPOS>MOLECULE
BindingDB_50298801
 55 57 0 0 0
SMALL
NO_CHARGES


@<TRIPOS>ATOM
1    N        10.0119   26.5189    1.2161  N     
2    C        10.7420   26.4256    2.3528  C     
3    N        10.3903   27.1747    3.4214  N     
4    C         9.3119   28.0003    3.4316  C     
5    C         8.5083   28.0765    2.2591  C     
6    C         8.9175   27.3163    1.1360  C     
7    N         8.2606   27.2929   -0.0361  N     
8    C         7.4151   28.7988    2.2505  C     
9    C         6.4252   29.4643    2.3298  C     
10   C         5.3168   30.2602    2.5077  C     
11   C         5.7140   31.4491    3.3379  C     
12   C         6.5789   32.4437    2.8132  C     
13   C         7.0209   33.5248    3.5998  C     
14   C         6.5961   33.6138    4.9386  C     
15   C         5.7259   32.6494    5.5114  C     
16   C         5.2871   31.5803    4.6833  C     
17   C         9.0914   28.7378    4.6995  C     
18   O         7.8154   34.4617    2.9917  O     
19   C         8.9854   34.9171    3.6941  C     
20   C         5.3505   32.7436    6.8902  C     
21   C         5.2586   34.0149    7.5234  C     
22   C         5.0183   34.1385    8.9075  C     
23   C         4.7898   32.9791    9.6774  C     
24   C         4.8271   31.6919    9.0815  C     
25   C         5.1145   31.5941    7.6965  C     
26   C         4.6430   30.6362    1.1597  C     
27   C         4.6155   30.4893    9.9255  C     
28   C         5.0424   35.4841    9.5165  C     
29   N        11.7956   25.5983    2.4389  N     
30   H         7.4391   27.7955   -0.1701  H     
31   H         8.5908   26.7266   -0.7502  H     
32   H         4.5976   29.6487    3.0574  H     
33   H         6.9101   32.3832    1.8476  H     
34   H         6.9465   34.3955    5.5013  H     
35   H         4.6626   30.8773    5.0812  H     
36   H         8.9467   28.0213    5.5141  H     
37   H         8.2255   29.3938    4.6700  H     
38   H         9.9688   29.3525    4.9187  H     
39   H         8.7105   35.5739    4.5300  H     
40   H         9.5846   35.4936    2.9874  H     
41   H         9.5889   34.0819    4.0636  H     
42   H         5.3827   34.8745    6.9713  H     
43   H         4.6245   33.0591   10.6848  H     
44   H         5.1890   30.6637    7.2700  H     
45   H         5.3313   31.1874    0.5159  H     
46   H         3.7641   31.2565    1.3384  H     
47   H         4.3282   29.7331    0.6302  H     
48   H         5.3656   30.4670   10.7184  H     
49   H         4.6963   29.5650    9.3480  H     
50   H         3.6223   30.5342   10.3793  H     
51   H         6.0379   35.9191    9.4182  H     
52   H         4.7566   35.4762   10.5738  H     
53   H         4.3292   36.1066    8.9757  H     
54   H        12.2946   25.5315    3.2748  H     
55   H        12.0529   25.0541    1.6735  H     
@<TRIPOS>BOND
     1    1    2 2
     2    1    6 1
     3    2    3 1
     4    2   29 1
     5    3    4 2
     6    4    5 1
     7    4   17 1
     8    5    6 2
     9    5    8 1
    10    6    7 1
    11    8    9 3
    12    9   10 1
    13   10   11 1
    14   10   26 1
    15   11   12 2
    16   11   16 1
    17   12   13 1
    18   13   14 2
    19   13   18 1
    20   14   15 1
    21   15   16 2
    22   15   20 1
    23   18   19 1
    24   20   21 2
    25   20   25 1
    26   21   22 1
    27   22   23 2
    28   22   28 1
    29   23   24 1
    30   24   25 2
    31   24   27 1
    32    7   30 1
    33    7   31 1
    34   10   32 1
    35   12   33 1
    36   14   34 1
    37   16   35 1
    38   17   36 1
    39   17   37 1
    40   17   38 1
    41   19   39 1
    42   19   40 1
    43   19   41 1
    44   21   42 1
    45   23   43 1
    46   25   44 1
    47   26   45 1
    48   26   46 1
    49   26   47 1
    50   27   48 1
    51   27   49 1
    52   27   50 1
    53   28   51 1
    54   28   52 1
    55   28   53 1
    56   29   54 1
    57   29   55 1
@<TRIPOS>PROPERTY_DATA
  Total_Score	| 8.6557
  Crash		| -1.1462
  Polar		| 2.8306
  FragIndex	| 1
  FragRMSD	| 0.897

