@<TRIPOS>MOLECULE
BindingDB_18492
 47 48 0 0 0
SMALL
NO_CHARGES


@<TRIPOS>ATOM
1    C         8.9430   27.2199    1.1223  C     
2    C        10.8150   26.3756    2.3079  C     
3    C         9.4376   28.0065    3.3660  C     
4    C         8.5829   28.0239    2.2318  C     
5    N        10.0382   26.4219    1.2007  N     
6    N        10.5104   27.1755    3.3531  N     
7    N         8.2599   27.1950   -0.0369  N     
8    N        11.8834   25.5675    2.3819  N     
9    C         7.4833   28.7306    2.2322  C     
10   C         6.4757   29.3696    2.2926  C     
11   C         5.3281   30.1128    2.4274  C     
12   C         5.6347   31.3284    3.2490  C     
13   C         5.0624   31.4878    4.5311  C     
14   C         6.5443   32.3232    2.8097  C     
15   C         6.8911   33.4239    3.6172  C     
16   C         6.2536   33.5849    4.8724  C     
17   C         5.3501   32.6065    5.3416  C     
18   O         4.8575   32.7141    6.6180  O     
19   C         3.4508   32.4223    6.7553  C     
20   O         6.6121   34.6124    5.6971  O     
21   C         5.5612   35.5561    5.9665  C     
22   O         7.8373   34.2687    3.0793  O     
23   C         9.0051   34.6148    3.8715  C     
24   C         4.6910   30.4424    1.0510  C     
25   C         9.2466   28.8481    4.5750  C     
26   H         8.5679   26.6338   -0.7613  H     
27   H         7.4659   27.7402   -0.1676  H     
28   H        12.3967   25.5238    3.2047  H     
29   H        12.1138   24.9989    1.6302  H     
30   H         4.6161   29.4659    2.9551  H     
31   H         4.4421   30.7690    4.9065  H     
32   H         7.0002   32.2227    1.8973  H     
33   H         2.8625   32.9671    6.0154  H     
34   H         3.1313   32.7334    7.7497  H     
35   H         3.2572   31.3503    6.6590  H     
36   H         5.1559   35.9888    5.0459  H     
37   H         5.9894   36.3597    6.5689  H     
38   H         4.7553   35.0921    6.5419  H     
39   H         8.7866   35.5093    4.4689  H     
40   H         9.8305   34.8458    3.1932  H     
41   H         9.3250   33.7975    4.5287  H     
42   H         5.3812   31.0026    0.4202  H     
43   H         3.7884   31.0398    1.1887  H     
44   H         4.4161   29.5271    0.5242  H     
45   H         9.2579   29.9014    4.2934  H     
46   H        10.0421   28.6847    5.3056  H     
47   H         8.2920   28.6137    5.0453  H     
@<TRIPOS>BOND
     1    1    4 2
     2    1    5 1
     3    1    7 1
     4    2    5 2
     5    2    6 1
     6    2    8 1
     7    3    4 1
     8    3    6 2
     9    3   25 1
    10    4    9 1
    11    9   10 3
    12   10   11 1
    13   11   12 1
    14   11   24 1
    15   12   13 1
    16   12   14 2
    17   13   17 2
    18   14   15 1
    19   15   16 2
    20   15   22 1
    21   16   17 1
    22   16   20 1
    23   17   18 1
    24   18   19 1
    25   20   21 1
    26   22   23 1
    27    7   26 1
    28    7   27 1
    29    8   28 1
    30    8   29 1
    31   11   30 1
    32   13   31 1
    33   14   32 1
    34   19   33 1
    35   19   34 1
    36   19   35 1
    37   21   36 1
    38   21   37 1
    39   21   38 1
    40   23   39 1
    41   23   40 1
    42   23   41 1
    43   24   42 1
    44   24   43 1
    45   24   44 1
    46   25   45 1
    47   25   46 1
    48   25   47 1
@<TRIPOS>PROPERTY_DATA
  Total_Score	| 8.3061
  Crash		| -1.1604
  Polar		| 2.7178
  FragIndex	| 1
  FragRMSD	| 0.738

