@<TRIPOS>MOLECULE
BindingDB_50298809
 53 55 0 0 0
SMALL
NO_CHARGES


@<TRIPOS>ATOM
1    N        10.0092   26.4873    1.1824  N     
2    C        10.7581   26.3719    2.3009  C     
3    N        10.4200   27.0881    3.3941  N     
4    C         9.3413   27.9138    3.4369  C     
5    C         8.5271   28.0290    2.2746  C     
6    C         8.9108   27.2862    1.1317  C     
7    N         8.2585   27.2728   -0.0420  N     
8    C         7.4372   28.7470    2.2984  C     
9    C         6.4559   29.4195    2.4030  C     
10   C         5.3370   30.1921    2.5926  C     
11   C         5.6832   31.4462    3.3291  C     
12   C         6.5715   32.4203    2.8023  C     
13   C         6.9227   33.5786    3.5322  C     
14   C         6.3616   33.7575    4.8183  C     
15   C         5.4967   32.7887    5.3936  C     
16   C         5.1519   31.6590    4.6267  C     
17   C         9.1360   28.6093    4.7336  C     
18   C         4.5787   30.4611    1.2679  C     
19   O         7.8356   34.4104    2.8980  O     
20   C         8.9821   34.9596    3.5651  C     
21   C         5.0661   32.9341    6.7462  C     
22   C         3.6984   32.8432    7.1026  C     
23   C         3.2976   32.9425    8.4493  C     
24   C         4.2575   33.1292    9.4624  C     
25   C         5.6211   33.2331    9.1254  C     
26   C         6.0149   33.1601    7.7777  C     
27   O         3.8610   33.1560   10.7718  O     
28   C         4.2043   34.3683   11.4789  C     
29   N        11.8255   25.5566    2.3550  N     
30   H         7.4283   27.7536   -0.1659  H     
31   H         8.5959   26.7133   -0.7556  H     
32   H         4.6619   29.5836    3.2046  H     
33   H         6.9798   32.2786    1.8805  H     
34   H         6.5822   34.5943    5.3595  H     
35   H         4.5442   30.9481    5.0520  H     
36   H         8.9743   27.8686    5.5202  H     
37   H         8.2807   29.2863    4.7235  H     
38   H        10.0248   29.1957    4.9765  H     
39   H         5.1747   31.0709    0.5864  H     
40   H         3.6466   30.9911    1.4790  H     
41   H         4.3336   29.5234    0.7670  H     
42   H         8.6719   35.5107    4.4526  H     
43   H         9.4931   35.6709    2.8962  H     
44   H         9.6979   34.1787    3.8342  H     
45   H         2.9808   32.7076    6.3847  H     
46   H         2.3101   32.8593    8.6950  H     
47   H         6.3340   33.3372    9.8494  H     
48   H         7.0101   33.2461    7.5544  H     
49   H         5.2901   34.4441   11.6202  H     
50   H         3.7338   34.3218   12.4651  H     
51   H         3.8353   35.2593   10.9545  H     
52   H        12.3383   25.4896    3.1786  H     
53   H        12.0848   25.0384    1.5781  H     
@<TRIPOS>BOND
     1    1    2 2
     2    1    6 1
     3    2    3 1
     4    2   29 1
     5    3    4 2
     6    4    5 1
     7    4   17 1
     8    5    6 2
     9    5    8 1
    10    6    7 1
    11    8    9 3
    12    9   10 1
    13   10   11 1
    14   10   18 1
    15   11   12 2
    16   11   16 1
    17   12   13 1
    18   13   14 2
    19   13   19 1
    20   14   15 1
    21   15   16 2
    22   15   21 1
    23   19   20 1
    24   21   22 2
    25   21   26 1
    26   22   23 1
    27   23   24 2
    28   24   25 1
    29   24   27 1
    30   25   26 2
    31   27   28 1
    32    7   30 1
    33    7   31 1
    34   10   32 1
    35   12   33 1
    36   14   34 1
    37   16   35 1
    38   17   36 1
    39   17   37 1
    40   17   38 1
    41   18   39 1
    42   18   40 1
    43   18   41 1
    44   20   42 1
    45   20   43 1
    46   20   44 1
    47   22   45 1
    48   23   46 1
    49   25   47 1
    50   26   48 1
    51   28   49 1
    52   28   50 1
    53   28   51 1
    54   29   52 1
    55   29   53 1
@<TRIPOS>PROPERTY_DATA
  Total_Score	| 8.6361
  Crash		| -0.7769
  Polar		| 2.7171
  FragIndex	| 1
  FragRMSD	| 0.979

