@<TRIPOS>MOLECULE
BindingDB_25818
 49 51 0 0 0
SMALL
NO_CHARGES


@<TRIPOS>ATOM
1    C         9.0086   27.2905    1.0315  C     
2    C        10.7250   26.3515    2.3718  C     
3    C         9.3696   28.0770    3.3022  C     
4    C         8.6398   28.1682    2.0844  C     
5    C         9.0962   28.9220    4.4885  C     
6    N         8.3931   27.2456   -0.1653  N     
7    N        11.7455   25.4892    2.5092  N     
8    N        10.0325   26.4184    1.2099  N     
9    N        10.3845   27.1737    3.3922  N     
10   C         7.6968   29.0502    1.9235  C     
11   C         6.8593   29.8919    1.7800  C     
12   C         5.9536   30.9045    1.5955  C     
13   C         4.6298   30.3964    0.9608  C     
14   C         5.7568   31.6927    2.8539  C     
15   C         4.9038   31.2428    3.8896  C     
16   C         6.4165   32.9310    3.0377  C     
17   C         6.2250   33.7099    4.1983  C     
18   C         5.3296   33.2578    5.1893  C     
19   C         4.6716   32.0159    5.0509  C     
20   O         6.7956   34.9508    4.2995  O     
21   C         8.2182   34.9803    4.0928  C     
22   C         3.8473   31.5050    6.0770  C     
23   C         1.7020   30.6165    6.8552  C     
24   C         2.4765   31.2302    5.8507  C     
25   C         4.4252   31.1524    7.3171  C     
26   C         3.6543   30.5263    8.3135  C     
27   C         2.2915   30.2589    8.0816  C     
28   H         9.2676   29.9694    4.2363  H     
29   H         9.7463   28.6582    5.3292  H     
30   H         8.0589   28.7934    4.8039  H     
31   H         8.6823   26.5987   -0.8277  H     
32   H         7.6243   27.8065   -0.3506  H     
33   H        12.2455   25.4511    3.3403  H     
34   H        11.9975   24.9162    1.7690  H     
35   H         6.4163   31.5494    0.8393  H     
36   H         4.8384   29.8695    0.0267  H     
37   H         3.9765   31.2434    0.7325  H     
38   H         4.0932   29.7190    1.6271  H     
39   H         4.4432   30.3359    3.8026  H     
40   H         7.0359   33.2869    2.3113  H     
41   H         5.1552   33.8540    6.0029  H     
42   H         8.7454   34.3530    4.8193  H     
43   H         8.5497   36.0109    4.2303  H     
44   H         8.4738   34.6628    3.0766  H     
45   H         0.7133   30.4176    6.6907  H     
46   H         2.0390   31.4666    4.9581  H     
47   H         5.4172   31.3241    7.4957  H     
48   H         4.0860   30.2601    9.1986  H     
49   H         1.7317   29.8044    8.8087  H     
@<TRIPOS>BOND
     1    1    4 1
     2    1    6 1
     3    1    8 2
     4    2    7 1
     5    2    8 1
     6    2    9 2
     7    3    4 2
     8    3    5 1
     9    3    9 1
    10    4   10 1
    11   10   11 3
    12   11   12 1
    13   12   13 1
    14   12   14 1
    15   14   15 2
    16   14   16 1
    17   15   19 1
    18   16   17 2
    19   17   18 1
    20   17   20 1
    21   18   19 2
    22   19   22 1
    23   20   21 1
    24   22   24 2
    25   22   25 1
    26   23   24 1
    27   23   27 2
    28   25   26 2
    29   26   27 1
    30    5   28 1
    31    5   29 1
    32    5   30 1
    33    6   31 1
    34    6   32 1
    35    7   33 1
    36    7   34 1
    37   12   35 1
    38   13   36 1
    39   13   37 1
    40   13   38 1
    41   15   39 1
    42   16   40 1
    43   18   41 1
    44   21   42 1
    45   21   43 1
    46   21   44 1
    47   23   45 1
    48   24   46 1
    49   25   47 1
    50   26   48 1
    51   27   49 1
@<TRIPOS>PROPERTY_DATA
  Total_Score	| 9.1257
  Crash		| -0.9551
  Polar		| 2.8382
  FragIndex	| 1
  FragRMSD	| 1.094

