@<TRIPOS>MOLECULE
BindingDB_18494
 45 46 0 0 0
SMALL
NO_CHARGES


@<TRIPOS>ATOM
1    C         8.9199   27.3184    1.0659  C     
2    C        10.7155   26.4760    2.3657  C     
3    C         9.3072   28.1509    3.3100  C     
4    C         8.5146   28.1610    2.1315  C     
5    N         9.9983   26.5091    1.2172  N     
6    N        10.3672   27.3059    3.3758  N     
7    N         8.2960   27.2421   -0.1241  N     
8    N        11.7485   25.6350    2.5185  N     
9    C         7.4428   28.9034    2.0534  C     
10   C         6.4691   29.5932    2.0443  C     
11   C         5.3660   30.3967    2.0824  C     
12   C         5.5647   31.5570    2.9939  C     
13   C         4.6686   31.8254    4.0557  C     
14   C         6.6362   32.4617    2.8044  C     
15   C         6.8024   33.6082    3.6074  C     
16   C         5.8425   33.9171    4.5975  C     
17   C         4.8019   32.9837    4.8607  C     
18   O         3.8738   33.2793    5.8321  O     
19   C         4.1324   32.6563    7.1162  C     
20   O         5.9696   35.1921    5.1195  O     
21   C         5.8163   35.4483    6.5235  C     
22   O         7.8548   34.4325    3.3408  O     
23   C         8.9147   34.3471    4.3022  C     
24   O         5.0641   30.8837    0.7796  O     
25   C         9.0644   29.0117    4.4979  C     
26   H         8.6314   26.6399   -0.8051  H     
27   H         7.5102   27.7732   -0.3133  H     
28   H        12.2306   25.6093    3.3566  H     
29   H        11.9939   25.0408    1.7927  H     
30   H         4.5327   29.7893    2.4118  H     
31   H         3.8712   31.2170    4.2290  H     
32   H         7.3030   32.2968    2.0338  H     
33   H         3.9790   31.5687    7.0616  H     
34   H         3.4198   33.0730    7.8326  H     
35   H         5.1489   32.8651    7.4772  H     
36   H         4.7640   35.2764    6.8096  H     
37   H         6.0895   36.4714    6.7281  H     
38   H         6.4846   34.7905    7.1071  H     
39   H         8.6002   34.7417    5.2725  H     
40   H         9.7487   34.9595    3.9502  H     
41   H         9.2694   33.3257    4.4312  H     
42   H         4.5932   30.1446    0.3127  H     
43   H         9.1091   30.0681    4.2156  H     
44   H         9.8164   28.8349    5.2761  H     
45   H         8.0764   28.7951    4.9166  H     
@<TRIPOS>BOND
     1    1    4 2
     2    1    5 1
     3    1    7 1
     4    2    5 2
     5    2    6 1
     6    2    8 1
     7    3    4 1
     8    3    6 2
     9    3   25 1
    10    4    9 1
    11    9   10 3
    12   10   11 1
    13   11   12 1
    14   11   24 1
    15   12   13 1
    16   12   14 2
    17   13   17 2
    18   14   15 1
    19   15   16 2
    20   15   22 1
    21   16   17 1
    22   16   20 1
    23   17   18 1
    24   18   19 1
    25   20   21 1
    26   22   23 1
    27    7   26 1
    28    7   27 1
    29    8   28 1
    30    8   29 1
    31   11   30 1
    32   13   31 1
    33   14   32 1
    34   19   33 1
    35   19   34 1
    36   19   35 1
    37   21   36 1
    38   21   37 1
    39   21   38 1
    40   23   39 1
    41   23   40 1
    42   23   41 1
    43   24   42 1
    44   25   43 1
    45   25   44 1
    46   25   45 1
@<TRIPOS>PROPERTY_DATA
  Total_Score	| 7.3909
  Crash		| -0.9848
  Polar		| 2.9404
  FragIndex	| 1
  FragRMSD	| 0.360

