@<TRIPOS>MOLECULE
BindingDB_50298803
 50 51 0 0 0
SMALL
NO_CHARGES


@<TRIPOS>ATOM
1    N        10.0430   26.4587    1.1430  N     
2    C        10.8075   26.2900    2.2475  C     
3    N        10.4660   26.9411    3.3783  N     
4    C         9.3827   27.7600    3.4780  C     
5    C         8.5710   27.9535    2.3277  C     
6    C         8.9445   27.2630    1.1470  C     
7    N         8.2650   27.3096   -0.0146  N     
8    C         7.4980   28.7018    2.3738  C     
9    C         6.5256   29.4045    2.4514  C     
10   C         5.4192   30.2093    2.5553  C     
11   C         5.6783   31.3831    3.4632  C     
12   C         6.8571   32.1148    3.4578  C     
13   C         7.1091   33.1737    4.3717  C     
14   C         6.1021   33.5546    5.2790  C     
15   C         4.8571   32.8587    5.2733  C     
16   C         4.6439   31.8156    4.3670  C     
17   O         3.8774   33.2951    6.1252  O     
18   C         3.7688   32.5546    7.3645  C     
19   O         6.3836   34.4916    6.2298  O     
20   C         5.6766   35.7365    6.1134  C     
21   O         8.3805   33.6547    4.4701  O     
22   C         8.6486   34.8256    3.6912  C     
23   C         9.1676   28.3435    4.8226  C     
24   C         4.8578   30.7175    1.1845  C     
25   C         4.9743   29.7128    0.0239  C     
26   N        11.8875   25.4933    2.2448  N     
27   H         7.4476   27.8263   -0.1037  H     
28   H         8.5708   26.7729   -0.7579  H     
29   H         4.6473   29.5779    2.9896  H     
30   H         7.6069   31.8691    2.8076  H     
31   H         3.7440   31.3326    4.3494  H     
32   H         3.2673   31.5971    7.2045  H     
33   H         3.1428   33.1486    8.0461  H     
34   H         4.7449   32.3969    7.8386  H     
35   H         5.6564   36.1109    5.0870  H     
36   H         6.1845   36.4685    6.7475  H     
37   H         4.6482   35.6442    6.4734  H     
38   H         8.3254   34.7164    2.6531  H     
39   H         9.7257   34.9892    3.7079  H     
40   H         8.1691   35.7023    4.1267  H     
41   H         9.0844   27.5381    5.5551  H     
42   H         8.2635   28.9483    4.8816  H     
43   H        10.0178   28.9729    5.0934  H     
44   H         3.7972   30.9666    1.3147  H     
45   H         5.3696   31.6354    0.8793  H     
46   H         6.0105   29.6437   -0.3002  H     
47   H         4.3851   30.0583   -0.8370  H     
48   H         4.6243   28.7180    0.3172  H     
49   H        12.4112   25.3857    3.0600  H     
50   H        12.1531   25.0287    1.4337  H     
@<TRIPOS>BOND
     1    1    2 2
     2    1    6 1
     3    2    3 1
     4    2   26 1
     5    3    4 2
     6    4    5 1
     7    4   23 1
     8    5    6 2
     9    5    8 1
    10    6    7 1
    11    8    9 3
    12    9   10 1
    13   10   11 1
    14   10   24 1
    15   11   12 2
    16   11   16 1
    17   12   13 1
    18   13   14 2
    19   13   21 1
    20   14   15 1
    21   14   19 1
    22   15   16 2
    23   15   17 1
    24   17   18 1
    25   19   20 1
    26   21   22 1
    27   24   25 1
    28    7   27 1
    29    7   28 1
    30   10   29 1
    31   12   30 1
    32   16   31 1
    33   18   32 1
    34   18   33 1
    35   18   34 1
    36   20   35 1
    37   20   36 1
    38   20   37 1
    39   22   38 1
    40   22   39 1
    41   22   40 1
    42   23   41 1
    43   23   42 1
    44   23   43 1
    45   24   44 1
    46   24   45 1
    47   25   46 1
    48   25   47 1
    49   25   48 1
    50   26   49 1
    51   26   50 1
@<TRIPOS>PROPERTY_DATA
  Total_Score	| 8.5690
  Crash		| -1.7338
  Polar		| 2.3692
  FragIndex	| 1
  FragRMSD	| 0.785

