@<TRIPOS>MOLECULE
BindingDB_50329608
 50 51 0 0 0
SMALL
NO_CHARGES


@<TRIPOS>ATOM
1    C         8.9293   34.6187    3.9292  C     
2    O         7.7417   34.3781    3.1480  O     
3    C         6.8891   33.4290    3.6531  C     
4    C         6.5632   32.3228    2.8427  C     
5    C         6.2580   33.5785    4.9047  C     
6    O         6.6077   34.6171    5.7199  O     
7    C         5.5386   35.5397    5.9884  C     
8    C         5.3624   32.5922    5.3617  C     
9    O         4.8441   32.7149    6.6267  O     
10   C         3.4377   32.4100    6.7392  C     
11   C         5.0829   31.4736    4.5522  C     
12   C         5.6399   31.3228    3.2556  C     
13   C         5.3026   30.1486    2.3528  C     
14   C         4.2428   29.1250    2.9013  C     
15   C         4.7589   30.6507    0.9693  C     
16   C         6.4683   29.4263    2.1765  C     
17   C         7.4809   28.7935    2.1128  C     
18   C         8.5794   28.0929    2.1515  C     
19   C         9.3969   28.0708    3.3149  C     
20   C         9.1545   28.9092    4.5129  C     
21   N        10.4691   27.2345    3.3468  N     
22   C        10.7896   26.4160    2.3183  C     
23   N        11.8277   25.5728    2.4315  N     
24   N        10.0434   26.4533    1.1905  N     
25   C         8.9601   27.2630    1.0681  C     
26   N         8.3028   27.2048   -0.1063  N     
27   H         8.6898   35.1129    4.8778  H     
28   H         9.5890   35.2786    3.3609  H     
29   H         9.4729   33.6920    4.1407  H     
30   H         7.0154   32.2477    1.9297  H     
31   H         5.1682   35.9972    5.0611  H     
32   H         5.9293   36.3306    6.6370  H     
33   H         4.7131   35.0562    6.5162  H     
34   H         2.8477   32.9996    6.0315  H     
35   H         3.1055   32.6482    7.7526  H     
36   H         3.2521   31.3433    6.5492  H     
37   H         4.4568   30.7736    4.9549  H     
38   H         4.5572   28.6881    3.8551  H     
39   H         4.0753   28.3007    2.2024  H     
40   H         3.2811   29.6262    3.0567  H     
41   H         3.8286   31.2142    1.1143  H     
42   H         4.5444   29.8198    0.2874  H     
43   H         5.4690   31.3098    0.4654  H     
44   H         9.1734   29.9664    4.2381  H     
45   H         9.9204   28.7406    5.2780  H     
46   H         8.1797   28.6706    4.9431  H     
47   H        12.0534   24.9772    1.7020  H     
48   H        12.3335   25.5317    3.2619  H     
49   H         8.6243   26.6059   -0.7955  H     
50   H         7.5056   27.7320   -0.2665  H     
@<TRIPOS>BOND
     1    1    2 1
     2    2    3 1
     3    3    4 2
     4    3    5 1
     5    4   12 1
     6    5    6 1
     7    5    8 2
     8    6    7 1
     9    8    9 1
    10    8   11 1
    11    9   10 1
    12   11   12 2
    13   12   13 1
    14   13   14 1
    15   13   15 1
    16   13   16 1
    17   16   17 3
    18   17   18 1
    19   18   19 2
    20   18   25 1
    21   19   20 1
    22   19   21 1
    23   21   22 2
    24   22   23 1
    25   22   24 1
    26   24   25 2
    27   25   26 1
    28    1   27 1
    29    1   28 1
    30    1   29 1
    31    4   30 1
    32    7   31 1
    33    7   32 1
    34    7   33 1
    35   10   34 1
    36   10   35 1
    37   10   36 1
    38   11   37 1
    39   14   38 1
    40   14   39 1
    41   14   40 1
    42   15   41 1
    43   15   42 1
    44   15   43 1
    45   20   44 1
    46   20   45 1
    47   20   46 1
    48   23   47 1
    49   23   48 1
    50   26   49 1
    51   26   50 1
@<TRIPOS>PROPERTY_DATA
  Total_Score	| 8.5734
  Crash		| -1.4819
  Polar		| 2.8403
  FragIndex	| 1
  FragRMSD	| 0.566

