@<TRIPOS>MOLECULE
BindingDB_50298802
 61 63 0 0 0
SMALL
NO_CHARGES


@<TRIPOS>ATOM
1    N        10.0533   26.5830    1.2648  N     
2    C        10.8055   26.5532    2.3900  C     
3    N        10.4163   27.2808    3.4610  N     
4    C         9.2927   28.0444    3.4709  C     
5    C         8.4951   28.0937    2.2957  C     
6    C         8.9180   27.3235    1.1803  C     
7    N        11.9192   25.8101    2.4612  N     
8    N         8.2568   27.2492    0.0101  N     
9    C         7.4030   28.8006    2.2418  C     
10   C         6.3967   29.4437    2.2006  C     
11   C         5.2320   30.1623    2.1361  C     
12   C         5.1297   31.1014    3.3000  C     
13   C         5.5755   32.4449    3.2416  C     
14   C         5.4243   33.3168    4.3407  C     
15   C         4.7937   32.8600    5.5106  C     
16   C         4.3606   31.5204    5.6144  C     
17   C         4.5438   30.6536    4.5121  C     
18   C         9.0206   28.7439    4.7508  C     
19   O         5.8125   34.6269    4.2531  O     
20   C         7.2306   34.8191    4.3966  C     
21   C         3.7080   31.0733    6.7888  C     
22   C         4.3940   30.3107    7.7582  C     
23   C         3.7411   29.8902    8.9308  C     
24   C         2.3717   30.1849    9.1830  C     
25   C         1.7153   30.9840    8.2112  C     
26   C         2.3645   31.4120    7.0352  C     
27   C         5.0926   30.8121    0.7326  C     
28   C         1.6594   29.7641   10.4625  C     
29   C         2.1757   28.3961   11.0430  C     
30   C         1.8926   30.8846   11.5264  C     
31   C         0.1144   29.5919   10.2476  C     
32   H        12.4302   25.7854    3.2870  H     
33   H        12.2058   25.2875    1.6971  H     
34   H         7.4233   27.7273   -0.1317  H     
35   H         8.5964   26.6742   -0.6931  H     
36   H         4.4203   29.4341    2.1993  H     
37   H         6.0149   32.8063    2.3927  H     
38   H         4.6613   33.5075    6.2904  H     
39   H         4.2282   29.6812    4.5882  H     
40   H         8.9407   28.0079    5.5542  H     
41   H         8.0992   29.3249    4.7322  H     
42   H         9.8479   29.4206    4.9750  H     
43   H         7.5802   34.4796    5.3740  H     
44   H         7.4367   35.8866    4.3138  H     
45   H         7.7857   34.3038    3.6097  H     
46   H         5.3831   30.0767    7.6281  H     
47   H         4.3009   29.3829    9.6140  H     
48   H         0.7452   31.2785    8.3501  H     
49   H         1.8443   31.9732    6.3588  H     
50   H         5.9408   31.4624    0.5181  H     
51   H         4.1766   31.4009    0.6795  H     
52   H         5.0379   30.0457   -0.0536  H     
53   H         2.1249   27.6172   10.2745  H     
54   H         1.5786   28.0662   11.8970  H     
55   H         3.2104   28.4680   11.3913  H     
56   H         2.9599   31.0103   11.7310  H     
57   H         1.3885   30.6449   12.4660  H     
58   H         1.5003   31.8417   11.1691  H     
59   H        -0.3731   30.5411   10.0222  H     
60   H        -0.3804   29.1888   11.1413  H     
61   H        -0.0780   28.9054    9.4220  H     
@<TRIPOS>BOND
     1    1    2 2
     2    1    6 1
     3    2    3 1
     4    2    7 1
     5    3    4 2
     6    4    5 1
     7    4   18 1
     8    5    6 2
     9    5    9 1
    10    6    8 1
    11    9   10 3
    12   10   11 1
    13   11   12 1
    14   11   27 1
    15   12   13 2
    16   12   17 1
    17   13   14 1
    18   14   15 2
    19   14   19 1
    20   15   16 1
    21   16   17 2
    22   16   21 1
    23   19   20 1
    24   21   22 2
    25   21   26 1
    26   22   23 1
    27   23   24 2
    28   24   25 1
    29   24   28 1
    30   25   26 2
    31   28   29 1
    32   28   30 1
    33   28   31 1
    34    7   32 1
    35    7   33 1
    36    8   34 1
    37    8   35 1
    38   11   36 1
    39   13   37 1
    40   15   38 1
    41   17   39 1
    42   18   40 1
    43   18   41 1
    44   18   42 1
    45   20   43 1
    46   20   44 1
    47   20   45 1
    48   22   46 1
    49   23   47 1
    50   25   48 1
    51   26   49 1
    52   27   50 1
    53   27   51 1
    54   27   52 1
    55   29   53 1
    56   29   54 1
    57   29   55 1
    58   30   56 1
    59   30   57 1
    60   30   58 1
    61   31   59 1
    62   31   60 1
    63   31   61 1
@<TRIPOS>PROPERTY_DATA
  Total_Score	| 9.0970
  Crash		| -1.1545
  Polar		| 2.8477
  FragIndex	| 1
  FragRMSD	| 0.939

