@<TRIPOS>MOLECULE
BindingDB_50298800
 52 54 0 0 0
SMALL
NO_CHARGES


@<TRIPOS>ATOM
1    N        10.0276   26.6305    1.2714  N     
2    C        10.7744   26.6383    2.4033  C     
3    N        10.3999   27.4104    3.4423  N     
4    C         9.2708   28.1681    3.4278  C     
5    C         8.4621   28.1524    2.2636  C     
6    C         8.8945   27.3646    1.1659  C     
7    N         8.2452   27.2764   -0.0144  N     
8    C         7.3436   28.8175    2.2208  C     
9    C         6.3095   29.4208    2.2408  C     
10   C         5.1276   30.1123    2.2919  C     
11   C         5.1473   31.1751    3.3430  C     
12   C         4.1393   31.1979    4.3488  C     
13   C         4.0802   32.2299    5.3030  C     
14   C         5.0550   33.2458    5.2731  C     
15   C         6.0786   33.2616    4.3033  C     
16   C         6.1040   32.2150    3.3467  C     
17   C         9.0141   28.9569    4.6604  C     
18   O         3.1170   32.3807    6.2855  O     
19   C         2.2777   31.2671    6.6067  C     
20   C         7.0503   34.3196    4.2959  C     
21   C         6.6661   35.6540    4.5893  C     
22   C         7.6201   36.6823    4.6466  C     
23   C         8.9723   36.4127    4.3666  C     
24   C         9.3604   35.1053    4.0302  C     
25   C         8.4112   34.0623    4.0283  C     
26   C         4.7832   30.6967    0.9010  C     
27   C         9.9637   37.5113    4.4444  C     
28   N        11.8844   25.8892    2.5025  N     
29   H         7.4205   27.7566   -0.1713  H     
30   H         8.6024   26.7134   -0.7133  H     
31   H         4.3651   29.3589    2.5146  H     
32   H         3.4366   30.4754    4.3604  H     
33   H         5.0100   33.9746    5.9923  H     
34   H         6.8283   32.2147    2.6252  H     
35   H         8.9676   28.2846    5.5205  H     
36   H         8.0817   29.5210    4.6267  H     
37   H         9.8298   29.6674    4.8139  H     
38   H         1.6229   31.0136    5.7642  H     
39   H         1.6432   31.5440    7.4605  H     
40   H         2.8719   30.3918    6.8942  H     
41   H         5.6912   35.9020    4.7517  H     
42   H         7.3259   37.6315    4.8805  H     
43   H        10.3354   34.8754    3.8114  H     
44   H         8.7312   33.1090    3.8567  H     
45   H         5.4790   31.4923    0.6193  H     
46   H         3.7746   31.1136    0.9146  H     
47   H         4.8126   29.9244    0.1277  H     
48   H         9.6505   38.3526    3.8138  H     
49   H        10.9597   37.1921    4.1128  H     
50   H        10.0393   37.8582    5.4828  H     
51   H        12.4039   25.8998    3.3283  H     
52   H        12.1614   25.3204    1.7640  H     
@<TRIPOS>BOND
     1    1    2 2
     2    1    6 1
     3    2    3 1
     4    2   28 1
     5    3    4 2
     6    4    5 1
     7    4   17 1
     8    5    6 2
     9    5    8 1
    10    6    7 1
    11    8    9 3
    12    9   10 1
    13   10   11 1
    14   10   26 1
    15   11   12 2
    16   11   16 1
    17   12   13 1
    18   13   14 2
    19   13   18 1
    20   14   15 1
    21   15   16 2
    22   15   20 1
    23   18   19 1
    24   20   21 2
    25   20   25 1
    26   21   22 1
    27   22   23 2
    28   23   24 1
    29   23   27 1
    30   24   25 2
    31    7   29 1
    32    7   30 1
    33   10   31 1
    34   12   32 1
    35   14   33 1
    36   16   34 1
    37   17   35 1
    38   17   36 1
    39   17   37 1
    40   19   38 1
    41   19   39 1
    42   19   40 1
    43   21   41 1
    44   22   42 1
    45   24   43 1
    46   25   44 1
    47   26   45 1
    48   26   46 1
    49   26   47 1
    50   27   48 1
    51   27   49 1
    52   27   50 1
    53   28   51 1
    54   28   52 1
@<TRIPOS>PROPERTY_DATA
  Total_Score	| 8.8173
  Crash		| -1.6737
  Polar		| 2.8597
  FragIndex	| 1
  FragRMSD	| 1.282

