@<TRIPOS>MOLECULE
BindingDB_18496
 48 49 0 0 0
SMALL
NO_CHARGES


@<TRIPOS>ATOM
1    C         8.9549   27.2169    1.2184  C     
2    C        10.9213   26.4793    2.3161  C     
3    C         9.5219   28.0352    3.4316  C     
4    C         8.6249   28.0137    2.3340  C     
5    N        10.0839   26.4703    1.2565  N     
6    N        10.6389   27.2652    3.3727  N     
7    N         8.2304   27.1379    0.0943  N     
8    N        11.9992   25.6847    2.3654  N     
9    C         7.4963   28.6614    2.4060  C     
10   C         6.4787   29.2502    2.5716  C     
11   C         5.3141   29.9593    2.8023  C     
12   C         5.5446   31.3190    3.3911  C     
13   C         4.6869   31.7568    4.4283  C     
14   C         6.5564   32.2123    2.9538  C     
15   C         6.7189   33.4843    3.5370  C     
16   C         5.8420   33.8971    4.5642  C     
17   C         4.7993   33.0389    4.9987  C     
18   O         3.9103   33.4796    5.9411  O     
19   C         3.9317   32.7400    7.1781  C     
20   O         6.0052   35.1780    5.0503  O     
21   C         5.9237   35.3423    6.4912  C     
22   O         7.7004   34.3355    3.0907  O     
23   C         8.8251   34.4490    3.9943  C     
24   O         4.3949   30.0073    1.6951  O     
25   C         4.8215   30.6978    0.4903  C     
26   C         9.3055   28.8393    4.6621  C     
27   H         8.5231   26.5695   -0.6348  H     
28   H         7.4296   27.6638   -0.0288  H     
29   H        12.5527   25.6771    3.1775  H     
30   H        12.1925   25.0776    1.6309  H     
31   H         4.7829   29.3504    3.5420  H     
32   H         3.9375   31.1313    4.7412  H     
33   H         7.1807   31.9417    2.1762  H     
34   H         3.5245   31.7351    7.0510  H     
35   H         3.3080   33.2620    7.9135  H     
36   H         4.9463   32.6844    7.5755  H     
37   H         4.8901   35.2536    6.8345  H     
38   H         6.2722   36.3354    6.7260  H     
39   H         6.5396   34.6036    7.0168  H     
40   H         8.5772   35.0748    4.8667  H     
41   H         9.6514   34.9290    3.4546  H     
42   H         9.1802   33.4660    4.3464  H     
43   H         5.1989   31.7022    0.7251  H     
44   H         3.9729   30.7947   -0.1827  H     
45   H         5.6145   30.1073   -0.0065  H     
46   H         9.2386   29.8994    4.4127  H     
47   H        10.1261   28.7054    5.3694  H     
48   H         8.3801   28.5412    5.1512  H     
@<TRIPOS>BOND
     1    1    4 2
     2    1    5 1
     3    1    7 1
     4    2    5 2
     5    2    6 1
     6    2    8 1
     7    3    4 1
     8    3    6 2
     9    3   26 1
    10    4    9 1
    11    9   10 3
    12   10   11 1
    13   11   12 1
    14   11   24 1
    15   12   13 1
    16   12   14 2
    17   13   17 2
    18   14   15 1
    19   15   16 2
    20   15   22 1
    21   16   17 1
    22   16   20 1
    23   17   18 1
    24   18   19 1
    25   20   21 1
    26   22   23 1
    27   24   25 1
    28    7   27 1
    29    7   28 1
    30    8   29 1
    31    8   30 1
    32   11   31 1
    33   13   32 1
    34   14   33 1
    35   19   34 1
    36   19   35 1
    37   19   36 1
    38   21   37 1
    39   21   38 1
    40   21   39 1
    41   23   40 1
    42   23   41 1
    43   23   42 1
    44   25   43 1
    45   25   44 1
    46   25   45 1
    47   26   46 1
    48   26   47 1
    49   26   48 1
@<TRIPOS>PROPERTY_DATA
  Total_Score	| 7.7196
  Crash		| -1.4767
  Polar		| 2.6162
  FragIndex	| 1
  FragRMSD	| 0.266

