@<TRIPOS>MOLECULE
BindingDB_18489
 41 42 0 0 0
SMALL
NO_CHARGES


@<TRIPOS>ATOM
1    C         8.8301   27.3235    1.0265  C     
2    C        10.6101   26.5517    2.3941  C     
3    C         9.0811   28.1149    3.2949  C     
4    C         8.3572   28.1379    2.0842  C     
5    N         9.9353   26.5538    1.2182  N     
6    N        10.1814   27.3310    3.4108  N     
7    N         8.2436   27.2439   -0.1806  N     
8    N        11.6990   25.7850    2.5599  N     
9    C         7.3142   28.9132    1.9715  C     
10   C         6.3748   29.6479    1.8975  C     
11   C         5.3308   30.5306    1.8576  C     
12   C         5.5365   31.6134    2.8549  C     
13   C         4.6790   31.7681    3.9652  C     
14   C         6.6143   32.5203    2.7107  C     
15   C         6.8833   33.5019    3.6857  C     
16   C         6.0157   33.6435    4.7943  C     
17   C         4.9033   32.7694    4.9344  C     
18   O         3.9691   32.9261    5.9256  O     
19   C         4.4212   32.5676    7.2428  C     
20   O         6.3695   34.5480    5.7554  O     
21   C         5.4496   35.6291    5.9524  C     
22   O         7.9495   34.3431    3.4878  O     
23   C         9.0552   34.1217    4.3902  C     
24   H         8.7958   28.6791    4.1020  H     
25   H         8.6059   26.6422   -0.8477  H     
26   H         7.4404   27.7493   -0.3724  H     
27   H        12.1615   25.7791    3.4157  H     
28   H        12.0145   25.2243    1.8306  H     
29   H         5.2617   30.9623    0.8533  H     
30   H         4.4080   29.9747    2.0454  H     
31   H         3.8801   31.1431    4.0838  H     
32   H         7.2365   32.4490    1.9052  H     
33   H         4.7856   31.5361    7.2788  H     
34   H         3.5825   32.6527    7.9337  H     
35   H         5.2093   33.2437    7.5848  H     
36   H         5.1962   36.1235    5.0091  H     
37   H         5.9268   36.3541    6.6079  H     
38   H         4.5392   35.2825    6.4487  H     
39   H         8.8323   34.4995    5.3900  H     
40   H         9.9182   34.6709    4.0027  H     
41   H         9.3232   33.0618    4.4585  H     
@<TRIPOS>BOND
     1    1    4 2
     2    1    5 1
     3    1    7 1
     4    2    5 2
     5    2    6 1
     6    2    8 1
     7    3    4 1
     8    3    6 2
     9    4    9 1
    10    9   10 3
    11   10   11 1
    12   11   12 1
    13   12   13 1
    14   12   14 2
    15   13   17 2
    16   14   15 1
    17   15   16 2
    18   15   22 1
    19   16   17 1
    20   16   20 1
    21   17   18 1
    22   18   19 1
    23   20   21 1
    24   22   23 1
    25    3   24 1
    26    7   25 1
    27    7   26 1
    28    8   27 1
    29    8   28 1
    30   11   29 1
    31   11   30 1
    32   13   31 1
    33   14   32 1
    34   19   33 1
    35   19   34 1
    36   19   35 1
    37   21   36 1
    38   21   37 1
    39   21   38 1
    40   23   39 1
    41   23   40 1
    42   23   41 1
@<TRIPOS>PROPERTY_DATA
  Total_Score	| 6.6911
  Crash		| -1.1395
  Polar		| 2.9721
  FragIndex	| 1
  FragRMSD	| 0.696

