@<TRIPOS>MOLECULE
BindingDB_18491
 44 45 0 0 0
SMALL
NO_CHARGES


@<TRIPOS>ATOM
1    C         8.8872   27.3108    1.1157  C     
2    C        10.7475   26.4640    2.3212  C     
3    C         9.2679   27.9491    3.4141  C     
4    C         8.4709   28.0421    2.2534  C     
5    N        10.0072   26.5476    1.1889  N     
6    N        10.3761   27.1696    3.4120  N     
7    N         8.2390   27.2969   -0.0646  N     
8    N        11.8386   25.6844    2.3733  N     
9    C         7.3782   28.7478    2.2936  C     
10   C         6.3823   29.4034    2.3796  C     
11   C         5.2433   30.1751    2.4824  C     
12   C         5.4856   31.4576    3.2197  C     
13   C         4.6036   31.8796    4.2423  C     
14   C         6.5587   32.3156    2.8870  C     
15   C         6.7550   33.5374    3.5557  C     
16   C         5.8255   33.9815    4.5204  C     
17   C         4.7637   33.1253    4.8905  C     
18   O         3.8599   33.5456    5.8257  O     
19   C         3.7842   32.7562    7.0274  C     
20   O         5.9695   35.2732    4.9681  O     
21   C         5.9745   35.5228    6.3860  C     
22   O         7.8404   34.2972    3.2137  O     
23   C         8.8701   34.2940    4.2352  C     
24   C         4.6329   30.4307    1.0773  C     
25   H         9.0275   28.4472    4.2754  H     
26   H         8.5893   26.7577   -0.7888  H     
27   H         7.4152   27.7869   -0.1910  H     
28   H        12.3455   25.6135    3.2015  H     
29   H        12.1062   25.1685    1.5948  H     
30   H         4.5201   29.5609    3.0312  H     
31   H         3.8097   31.2915    4.4987  H     
32   H         7.2082   32.0517    2.1402  H     
33   H         3.1343   31.8928    6.8506  H     
34   H         3.3465   33.3749    7.8199  H     
35   H         4.7693   32.4082    7.3719  H     
36   H         4.9566   35.5770    6.7772  H     
37   H         6.4521   36.4921    6.5576  H     
38   H         6.5418   34.7659    6.9276  H     
39   H         8.5053   34.7457    5.1759  H     
40   H         9.7144   34.8848    3.8754  H     
41   H         9.2345   33.2753    4.4523  H     
42   H         5.3266   30.9948    0.4519  H     
43   H         3.7050   30.9993    1.1644  H     
44   H         4.4052   29.4860    0.5799  H     
@<TRIPOS>BOND
     1    1    4 2
     2    1    5 1
     3    1    7 1
     4    2    5 2
     5    2    6 1
     6    2    8 1
     7    3    4 1
     8    3    6 2
     9    4    9 1
    10    9   10 3
    11   10   11 1
    12   11   12 1
    13   11   24 1
    14   12   13 1
    15   12   14 2
    16   13   17 2
    17   14   15 1
    18   15   16 2
    19   15   22 1
    20   16   17 1
    21   16   20 1
    22   17   18 1
    23   18   19 1
    24   20   21 1
    25   22   23 1
    26    3   25 1
    27    7   26 1
    28    7   27 1
    29    8   28 1
    30    8   29 1
    31   11   30 1
    32   13   31 1
    33   14   32 1
    34   19   33 1
    35   19   34 1
    36   19   35 1
    37   21   36 1
    38   21   37 1
    39   21   38 1
    40   23   39 1
    41   23   40 1
    42   23   41 1
    43   24   42 1
    44   24   43 1
    45   24   44 1
@<TRIPOS>PROPERTY_DATA
  Total_Score	| 7.3118
  Crash		| -0.8943
  Polar		| 2.7118
  FragIndex	| 1
  FragRMSD	| 0.693

