@<TRIPOS>MOLECULE
BindingDB_18490
 44 45 0 0 0
SMALL
NO_CHARGES


@<TRIPOS>ATOM
1    C         8.9112   27.3178    1.0723  C     
2    C        10.7277   26.4626    2.3315  C     
3    C         9.3261   28.1148    3.3227  C     
4    C         8.5225   28.1480    2.1507  C     
5    N         9.9885   26.5092    1.2003  N     
6    N        10.3897   27.2710    3.3615  N     
7    N         8.2602   27.2465   -0.1020  N     
8    N        11.7681   25.6246    2.4399  N     
9    C         7.4540   28.9014    2.0668  C     
10   C         6.4837   29.5994    2.0172  C     
11   C         5.4019   30.4399    2.0122  C     
12   C         5.6482   31.5656    2.9538  C     
13   C         4.9486   31.6692    4.1776  C     
14   C         6.6387   32.5297    2.6596  C     
15   C         6.9703   33.5464    3.5752  C     
16   C         6.2306   33.6520    4.7809  C     
17   C         5.2198   32.7129    5.0961  C     
18   O         4.6171   32.8732    6.3318  O     
19   C         3.4015   32.2030    6.6671  C     
20   O         6.5574   34.6092    5.7042  O     
21   C         5.5230   35.5677    5.9564  C     
22   O         7.9800   34.3986    3.1951  O     
23   C         9.1505   34.4672    4.0569  C     
24   C         9.0680   28.9507    4.5212  C     
25   H         8.5811   26.6458   -0.7912  H     
26   H         7.4542   27.7607   -0.2641  H     
27   H        12.2765   25.5845    3.2666  H     
28   H        12.0010   25.0515    1.6943  H     
29   H         5.2440   30.8152    0.9973  H     
30   H         4.5199   29.8602    2.2933  H     
31   H         4.2441   30.9655    4.4112  H     
32   H         7.1526   32.4760    1.7778  H     
33   H         2.6394   32.3890    5.9186  H     
34   H         3.0501   32.5817    7.6256  H     
35   H         3.5792   31.1336    6.7662  H     
36   H         5.2060   36.0630    5.0341  H     
37   H         5.9327   36.3171    6.6331  H     
38   H         4.6553   35.1185    6.4425  H     
39   H         8.9625   35.1904    4.8671  H     
40   H         9.9948   34.8168    3.4575  H     
41   H         9.4290   33.4912    4.4865  H     
42   H         9.1304   30.0063    4.2609  H     
43   H         9.7955   28.7550    5.3109  H     
44   H         8.0745   28.7425    4.9185  H     
@<TRIPOS>BOND
     1    1    4 2
     2    1    5 1
     3    1    7 1
     4    2    5 2
     5    2    6 1
     6    2    8 1
     7    3    4 1
     8    3    6 2
     9    3   24 1
    10    4    9 1
    11    9   10 3
    12   10   11 1
    13   11   12 1
    14   12   13 1
    15   12   14 2
    16   13   17 2
    17   14   15 1
    18   15   16 2
    19   15   22 1
    20   16   17 1
    21   16   20 1
    22   17   18 1
    23   18   19 1
    24   20   21 1
    25   22   23 1
    26    7   25 1
    27    7   26 1
    28    8   27 1
    29    8   28 1
    30   11   29 1
    31   11   30 1
    32   13   31 1
    33   14   32 1
    34   19   33 1
    35   19   34 1
    36   19   35 1
    37   21   36 1
    38   21   37 1
    39   21   38 1
    40   23   39 1
    41   23   40 1
    42   23   41 1
    43   24   42 1
    44   24   43 1
    45   24   44 1
@<TRIPOS>PROPERTY_DATA
  Total_Score	| 7.6444
  Crash		| -1.0486
  Polar		| 2.8650
  FragIndex	| 1
  FragRMSD	| 0.713

