@<TRIPOS>MOLECULE
BindingDB_25820
 55 57 0 0 0
SMALL
NO_CHARGES


@<TRIPOS>ATOM
1    C         8.9564   27.2283    1.0392  C     
2    C        10.7885   26.3575    2.2660  C     
3    C         9.4145   28.0148    3.2865  C     
4    C         8.5965   28.0627    2.1276  C     
5    C         9.1920   28.8455    4.4949  C     
6    N         8.2851   27.1798   -0.1259  N     
7    N        11.8350   25.5234    2.3578  N     
8    N        10.0323   26.4068    1.1450  N     
9    N        10.4722   27.1623    3.3053  N     
10   C         7.5594   28.8541    2.0645  C     
11   C         6.6148   29.5841    2.0160  C     
12   C         5.5379   30.4338    1.9467  C     
13   C         4.2043   29.6438    2.0693  C     
14   C         5.7231   31.5851    2.8924  C     
15   C         5.0203   31.7171    4.1159  C     
16   C         6.6809   32.5717    2.5903  C     
17   C         6.9057   33.6355    3.4709  C     
18   C         6.0821   33.7798    4.6048  C     
19   C         5.0575   32.8580    4.9721  C     
20   O         7.8990   34.5373    3.1920  O     
21   C         8.9813   34.5274    4.1408  C     
22   C         4.2642   32.9321    6.2210  C     
23   C         3.0635   31.6089    7.9363  C     
24   C         3.2867   31.9262    6.5735  C     
25   C         4.5271   33.8993    7.2613  C     
26   C         4.2886   33.5577    8.6153  C     
27   C         3.6236   32.3793    8.9561  C     
28   C         4.8853   35.3348    7.0668  C     
29   C         2.3443   31.2285    5.6409  C     
30   H         9.2375   29.9035    4.2316  H     
31   H         9.9482   28.6511    5.2593  H     
32   H         8.2107   28.6272    4.9200  H     
33   H         8.5900   26.5812   -0.8244  H     
34   H         7.4885   27.7124   -0.2709  H     
35   H        12.3532   25.4826    3.1798  H     
36   H        12.0679   24.9513    1.6088  H     
37   H         5.5346   30.8389    0.9291  H     
38   H         4.0989   28.9461    1.2335  H     
39   H         3.3579   30.3346    2.0411  H     
40   H         4.1581   29.0692    2.9973  H     
41   H         4.5296   30.8957    4.4138  H     
42   H         7.2530   32.4942    1.7452  H     
43   H         6.3266   34.5632    5.1846  H     
44   H         8.6446   34.8337    5.1337  H     
45   H         9.7378   35.2382    3.8044  H     
46   H         9.4443   33.5418    4.2073  H     
47   H         2.4501   30.8327    8.2021  H     
48   H         4.5514   34.1936    9.3741  H     
49   H         3.4449   32.1503    9.9363  H     
50   H         4.6248   35.6794    6.0684  H     
51   H         5.9471   35.4894    7.2573  H     
52   H         4.3264   35.9812    7.7479  H     
53   H         2.2833   31.6847    4.6560  H     
54   H         1.3254   31.2648    6.0369  H     
55   H         2.6234   30.1758    5.5435  H     
@<TRIPOS>BOND
     1    1    4 1
     2    1    6 1
     3    1    8 2
     4    2    7 1
     5    2    8 1
     6    2    9 2
     7    3    4 2
     8    3    5 1
     9    3    9 1
    10    4   10 1
    11   10   11 3
    12   11   12 1
    13   12   13 1
    14   12   14 1
    15   14   15 2
    16   14   16 1
    17   15   19 1
    18   16   17 2
    19   17   18 1
    20   17   20 1
    21   18   19 2
    22   19   22 1
    23   20   21 1
    24   22   24 2
    25   22   25 1
    26   23   24 1
    27   23   27 2
    28   24   29 1
    29   25   26 2
    30   25   28 1
    31   26   27 1
    32    5   30 1
    33    5   31 1
    34    5   32 1
    35    6   33 1
    36    6   34 1
    37    7   35 1
    38    7   36 1
    39   12   37 1
    40   13   38 1
    41   13   39 1
    42   13   40 1
    43   15   41 1
    44   16   42 1
    45   18   43 1
    46   21   44 1
    47   21   45 1
    48   21   46 1
    49   23   47 1
    50   26   48 1
    51   27   49 1
    52   28   50 1
    53   28   51 1
    54   28   52 1
    55   29   53 1
    56   29   54 1
    57   29   55 1
@<TRIPOS>PROPERTY_DATA
  Total_Score	| 9.0144
  Crash		| -1.5427
  Polar		| 2.7042
  FragIndex	| 1
  FragRMSD	| 0.384

