@<TRIPOS>MOLECULE
BindingDB_91960
 31 33 0 0 0
SMALL
NO_CHARGES


@<TRIPOS>ATOM
1    O        16.1838   -1.9470    8.8069  O     
2    C        16.6727   -2.9833    9.2270  C     
3    N        17.9172   -3.2030    8.8257  N     
4    C        18.8482   -4.1198    9.1944  C     
5    C        18.8154   -5.0350   10.2738  C     
6    N        19.8633   -5.8746   10.4738  N     
7    C        20.9654   -5.8766    9.6844  C     
8    C        21.0312   -4.9465    8.6289  C     
9    N        19.9753   -4.1167    8.4353  N     
10   C        21.9245   -6.7151    9.9307  C     
11   N        22.7727   -7.4593   10.1472  N     
12   N        15.9825   -3.8421    9.9638  N     
13   C        14.7676   -3.7762   10.5588  C     
14   C        13.8455   -2.7051   10.5702  C     
15   N        12.6995   -2.8222   11.2918  N     
16   C        12.3951   -3.9323   12.0120  C     
17   C        11.2090   -4.0244   12.7644  C     
18   C        10.9329   -5.1934   13.4968  C     
19   C        11.8438   -6.2664   13.4910  C     
20   C        13.0353   -6.1768   12.7468  C     
21   C        13.3097   -5.0134   12.0040  C     
22   N        14.4481   -4.8828   11.2791  N     
23   H        18.2319   -2.5924    8.1381  H     
24   H        18.0524   -5.0694   10.9441  H     
25   H        21.8405   -4.8875    8.0070  H     
26   H        16.4287   -4.6829   10.1103  H     
27   H        14.0246   -1.8375   10.0707  H     
28   H        10.5463   -3.2451   12.7808  H     
29   H        10.0662   -5.2628   14.0323  H     
30   H        11.6422   -7.1101   14.0314  H     
31   H        13.6977   -6.9551   12.7522  H     
@<TRIPOS>BOND
     1    1    2 2
     2    2    3 am
     3    3    4 1
     4    4    5 ar
     5    5    6 ar
     6    6    7 ar
     7    7    8 ar
     8    8    9 ar
     9    4    9 ar
    10    7   10 1
    11   10   11 3
    12    2   12 am
    13   12   13 1
    14   13   14 ar
    15   14   15 ar
    16   15   16 ar
    17   16   17 ar
    18   17   18 ar
    19   18   19 ar
    20   19   20 ar
    21   20   21 ar
    22   16   21 ar
    23   21   22 ar
    24   13   22 ar
    25    3   23 1
    26    5   24 1
    27    8   25 1
    28   12   26 1
    29   14   27 1
    30   17   28 1
    31   18   29 1
    32   19   30 1
    33   20   31 1
@<TRIPOS>PROPERTY_DATA
  Total_Score	| 2.3339
  Crash		| -0.5642
  Polar		| 1.0777
  FragIndex	| 1
  FragRMSD	| 1.270

