@<TRIPOS>MOLECULE
BindingDB_91894
 28 29 0 0 0
SMALL
NO_CHARGES


@<TRIPOS>ATOM
1    Cl       21.4806   -2.9230    7.0635  Cl    
2    C        20.5972   -3.6206    8.3341  C     
3    C        21.2487   -4.4477    9.2621  C     
4    C        20.5224   -5.0050   10.3319  C     
5    C        19.1387   -4.7483   10.4764  C     
6    C        18.5286   -5.2596   11.5195  C     
7    N        17.9924   -5.7032   12.4355  N     
8    C        18.4564   -3.9255    9.5329  C     
9    N        17.1015   -3.7087    9.7066  N     
10   C        16.2592   -2.8764    9.1003  C     
11   O        16.6331   -2.1178    8.2230  O     
12   N        14.9772   -2.7363    9.4150  N     
13   C        14.2075   -3.4112   10.3040  C     
14   C        12.8554   -3.0319   10.4416  C     
15   N        12.0589   -3.6990   11.3161  N     
16   C        12.5140   -4.7260   12.0804  C     
17   C        13.8631   -5.1110   11.9561  C     
18   N        14.6499   -4.4442   11.0730  N     
19   C        11.6934   -5.3318   12.8860  C     
20   N        10.9673   -5.8631   13.5997  N     
21   C        19.2166   -3.3680    8.4634  C     
22   H        22.2498   -4.6411    9.1742  H     
23   H        21.0228   -5.5939   11.0076  H     
24   H        16.7082   -4.2280   10.4234  H     
25   H        14.5125   -2.0333    8.9280  H     
26   H        12.4657   -2.2643    9.8915  H     
27   H        14.2620   -5.8758   12.5040  H     
28   H        18.7782   -2.7702    7.7637  H     
@<TRIPOS>BOND
     1    1    2 1
     2    2    3 ar
     3    3    4 ar
     4    4    5 ar
     5    5    6 1
     6    6    7 3
     7    5    8 ar
     8    8    9 1
     9    9   10 am
    10   10   11 2
    11   10   12 am
    12   12   13 1
    13   13   14 ar
    14   14   15 ar
    15   15   16 ar
    16   16   17 ar
    17   17   18 ar
    18   13   18 ar
    19   16   19 1
    20   19   20 3
    21    8   21 ar
    22    2   21 ar
    23    3   22 1
    24    4   23 1
    25    9   24 1
    26   12   25 1
    27   14   26 1
    28   17   27 1
    29   21   28 1
@<TRIPOS>PROPERTY_DATA
  Total_Score	| 6.1628
  Crash		| -0.2380
  Polar		| 3.3666
  FragIndex	| 1
  FragRMSD	| 0.815

