@<TRIPOS>MOLECULE
BindingDB_91959
 33 35 0 0 0
SMALL
NO_CHARGES


@<TRIPOS>ATOM
1    O        16.0440   -4.7137    9.1731  O     
2    C        16.1004   -3.5135    9.4279  C     
3    N        15.0762   -2.8719    9.9603  N     
4    C        13.9755   -3.4183   10.5391  C     
5    C        13.1050   -2.5921   11.2820  C     
6    N        12.0986   -3.1501   12.0041  N     
7    C        11.8758   -4.4870   12.0335  C     
8    C        12.7113   -5.3313   11.2711  C     
9    N        13.7298   -4.7578   10.5726  N     
10   C        10.9662   -4.9850   12.8118  C     
11   N        10.1944   -5.4520   13.5155  N     
12   N        17.2325   -2.8408    9.3430  N     
13   C        18.4640   -3.3736    9.1638  C     
14   C        19.4325   -2.8904    8.2920  C     
15   C        20.5628   -3.6678    8.5007  C     
16   N        20.2629   -4.5574    9.4716  N     
17   N        19.0373   -4.3869    9.8494  N     
18   C        21.8210   -3.5564    7.8663  C     
19   C        22.0563   -2.6107    6.8369  C     
20   C        23.3204   -2.5067    6.2223  C     
21   C        24.3673   -3.3627    6.6328  C     
22   C        24.1539   -4.3117    7.6517  C     
23   C        22.8848   -4.4173    8.2513  C     
24   H        15.1732   -1.9047   10.0674  H     
25   H        13.2389   -1.5840   11.3210  H     
26   H        12.5806   -6.3388   11.2477  H     
27   H        17.2036   -1.8810    9.5374  H     
28   H        19.3536   -2.0894    7.6551  H     
29   H        21.3063   -1.9937    6.5140  H     
30   H        23.4938   -1.8086    5.4896  H     
31   H        25.2888   -3.2966    6.1816  H     
32   H        24.9236   -4.9219    7.9643  H     
33   H        22.7511   -5.1154    8.9878  H     
@<TRIPOS>BOND
     1    1    2 2
     2    2    3 am
     3    3    4 1
     4    4    5 ar
     5    5    6 ar
     6    6    7 ar
     7    7    8 ar
     8    8    9 ar
     9    4    9 ar
    10    7   10 1
    11   10   11 3
    12    2   12 am
    13   12   13 1
    14   13   14 ar
    15   14   15 ar
    16   15   16 ar
    17   16   17 ar
    18   13   17 ar
    19   15   18 1
    20   18   19 ar
    21   19   20 ar
    22   20   21 ar
    23   21   22 ar
    24   22   23 ar
    25   18   23 ar
    26    3   24 1
    27    5   25 1
    28    8   26 1
    29   12   27 1
    30   14   28 1
    31   19   29 1
    32   20   30 1
    33   21   31 1
    34   22   32 1
    35   23   33 1
@<TRIPOS>PROPERTY_DATA
  Total_Score	| 3.4884
  Crash		| -0.9335
  Polar		| 1.1702
  FragIndex	| 1
  FragRMSD	| 0.883

