@<TRIPOS>MOLECULE
BindingDB_91941
 32 34 0 0 0
SMALL
NO_CHARGES


@<TRIPOS>ATOM
1    O        17.0324   -4.1731   10.8167  O     
2    C        16.5550   -3.6034    9.8370  C     
3    N        15.2645   -3.3202    9.7333  N     
4    C        14.2461   -3.7305   10.5320  C     
5    C        12.9242   -3.3059   10.2944  C     
6    N        11.9174   -3.7681   11.0877  N     
7    C        12.1299   -4.6309   12.1144  C     
8    C        13.4470   -5.0611   12.3619  C     
9    N        14.4434   -4.5963   11.5639  N     
10   C        11.1427   -5.0777   12.8309  C     
11   N        10.2953   -5.5095   13.4778  N     
12   N        17.3544   -3.2141    8.8593  N     
13   C        18.6961   -3.3743    8.7119  C     
14   C        19.5474   -4.2047    9.4840  C     
15   C        20.9455   -4.1975    9.2512  C     
16   C        21.8467   -4.9727   10.0171  C     
17   C        23.2341   -4.9136    9.7715  C     
18   C        23.7394   -4.0809    8.7602  C     
19   C        22.8602   -3.3124    7.9828  C     
20   C        21.4699   -3.3672    8.2252  C     
21   C        20.5824   -2.5974    7.4539  C     
22   N        19.2556   -2.6327    7.7285  N     
23   H        15.0107   -2.7568    8.9718  H     
24   H        12.7042   -2.6567    9.5307  H     
25   H        13.6629   -5.7182   13.1201  H     
26   H        16.9086   -2.7432    8.1345  H     
27   H        19.1323   -4.8242   10.1952  H     
28   H        21.5019   -5.5805   10.7651  H     
29   H        23.8742   -5.4757   10.3372  H     
30   H        24.7484   -4.0368    8.5889  H     
31   H        23.2434   -2.7104    7.2452  H     
32   H        20.9190   -1.9920    6.6975  H     
@<TRIPOS>BOND
     1    1    2 2
     2    2    3 am
     3    3    4 1
     4    4    5 ar
     5    5    6 ar
     6    6    7 ar
     7    7    8 ar
     8    8    9 ar
     9    4    9 ar
    10    7   10 1
    11   10   11 3
    12    2   12 am
    13   12   13 1
    14   13   14 ar
    15   14   15 ar
    16   15   16 ar
    17   16   17 ar
    18   17   18 ar
    19   18   19 ar
    20   19   20 ar
    21   15   20 ar
    22   20   21 ar
    23   21   22 ar
    24   13   22 ar
    25    3   23 1
    26    5   24 1
    27    8   25 1
    28   12   26 1
    29   14   27 1
    30   16   28 1
    31   17   29 1
    32   18   30 1
    33   19   31 1
    34   21   32 1
@<TRIPOS>PROPERTY_DATA
  Total_Score	| 2.7795
  Crash		| -1.0756
  Polar		| 1.2526
  FragIndex	| 1
  FragRMSD	| 1.424

