@<TRIPOS>MOLECULE
BindingDB_50414082
 39 41 0 0 0
SMALL
NO_CHARGES


@<TRIPOS>ATOM
1    N        17.3400   -2.8323    9.3473  N     
2    C        16.1071   -3.1917    9.0304  C     
3    O        15.9170   -4.1988    8.3689  O     
4    N        15.1111   -2.5654    9.6405  N     
5    C        14.0256   -3.1584   10.2066  C     
6    C        13.1820   -2.3884   11.0337  C     
7    N        13.8166   -4.5059   10.1910  N     
8    N        12.2684   -3.0124   11.8236  N     
9    C        12.0962   -4.3591   11.8272  C     
10   C        12.8792   -5.1328   10.9476  C     
11   C        11.2770   -4.9027   12.6797  C     
12   N        10.5691   -5.3885   13.4447  N     
13   C        18.5060   -3.4770    9.0365  C     
14   C        19.0056   -4.6391    9.7200  C     
15   C        20.3749   -4.9600    9.4898  C     
16   C        21.1977   -4.2243    8.6248  C     
17   C        20.6823   -3.1144    7.9512  C     
18   C        19.3466   -2.7391    8.1677  C     
19   N        18.2836   -5.4557   10.5784  N     
20   C        16.8650   -5.6825   10.5480  C     
21   C        16.5812   -6.8850   11.4632  C     
22   C        17.7330   -6.8249   12.4657  C     
23   C        18.8824   -6.2601   11.6156  C     
24   Cl       21.6954   -2.2153    6.9388  Cl    
25   H        17.4360   -2.0008    9.8397  H     
26   H        15.2827   -1.6520    9.9204  H     
27   H        13.2915   -1.3754   11.0965  H     
28   H        12.7898   -6.1503   10.8990  H     
29   H        20.8073   -5.7714    9.9301  H     
30   H        22.1727   -4.5056    8.4902  H     
31   H        18.9999   -1.8930    7.7068  H     
32   H        16.3501   -4.8144   10.9624  H     
33   H        16.4952   -5.9265    9.5379  H     
34   H        15.6057   -6.8090   11.9557  H     
35   H        16.6249   -7.8200   10.8913  H     
36   H        17.4919   -6.1384   13.2841  H     
37   H        17.9702   -7.8107   12.8752  H     
38   H        19.4421   -7.0898   11.1830  H     
39   H        19.5471   -5.6618   12.2472  H     
@<TRIPOS>BOND
     1    1    2 am
     2    1   13 1
     3    2    3 2
     4    2    4 am
     5    4    5 1
     6    5    6 1
     7    5    7 2
     8    6    8 2
     9    7   10 1
    10    8    9 1
    11    9   10 2
    12    9   11 1
    13   11   12 3
    14   13   14 1
    15   13   18 2
    16   14   15 2
    17   14   19 1
    18   15   16 1
    19   16   17 2
    20   17   18 1
    21   17   24 1
    22   19   20 1
    23   19   23 1
    24   20   21 1
    25   21   22 1
    26   22   23 1
    27    1   25 1
    28    4   26 1
    29    6   27 1
    30   10   28 1
    31   15   29 1
    32   16   30 1
    33   18   31 1
    34   20   32 1
    35   20   33 1
    36   21   34 1
    37   21   35 1
    38   22   36 1
    39   22   37 1
    40   23   38 1
    41   23   39 1
@<TRIPOS>PROPERTY_DATA
  Total_Score	| 4.6899
  Crash		| -1.8747
  Polar		| 1.0700
  FragIndex	| 1
  FragRMSD	| 1.056

