@<TRIPOS>MOLECULE
BindingDB_91962
 24 25 0 0 0
SMALL
NO_CHARGES


@<TRIPOS>ATOM
1    O        21.5097   -3.7535    8.1260  O     
2    C        20.3489   -4.0296    8.7665  C     
3    N        20.1783   -4.9584    9.7216  N     
4    N        18.9379   -4.9433   10.1122  N     
5    C        18.2404   -4.0119    9.4354  C     
6    N        16.9266   -3.7858    9.6623  N     
7    C        16.1293   -2.8884    9.1010  C     
8    N        14.8518   -2.7152    9.4164  N     
9    C        14.0748   -3.3813   10.3052  C     
10   N        14.5041   -4.4274   11.0666  N     
11   C        13.7152   -5.0869   11.9502  C     
12   C        12.3717   -4.6779   12.0951  C     
13   C        11.5604   -5.2788   12.9081  C     
14   N        10.8475   -5.8225   13.6272  N     
15   N        11.9319   -3.6314   11.3456  N     
16   C        12.7306   -2.9720   10.4658  C     
17   O        16.5645   -2.1173    8.2576  O     
18   C        19.1297   -3.4018    8.5552  C     
19   H        22.1725   -4.3488    8.5385  H     
20   H        16.5318   -4.3540   10.3362  H     
21   H        14.4081   -1.9926    8.9439  H     
22   H        14.1006   -5.8646   12.4916  H     
23   H        12.3496   -2.1867    9.9298  H     
24   H        18.9423   -2.6485    7.8864  H     
@<TRIPOS>BOND
     1    1    2 1
     2    2    3 ar
     3    3    4 ar
     4    4    5 ar
     5    5    6 1
     6    6    7 am
     7    7    8 am
     8    8    9 1
     9    9   10 ar
    10   10   11 ar
    11   11   12 ar
    12   12   13 1
    13   13   14 3
    14   12   15 ar
    15   15   16 ar
    16    9   16 ar
    17    7   17 2
    18    5   18 ar
    19    2   18 ar
    20    1   19 1
    21    6   20 1
    22    8   21 1
    23   11   22 1
    24   16   23 1
    25   18   24 1
@<TRIPOS>PROPERTY_DATA
  Total_Score	| 5.3800
  Crash		| -0.0973
  Polar		| 3.5113
  FragIndex	| 1
  FragRMSD	| 0.046

