@<TRIPOS>MOLECULE
BindingDB_91958
 29 30 0 0 0
SMALL
NO_CHARGES


@<TRIPOS>ATOM
1    O        23.6718   -3.1340    7.3520  O     
2    N        23.0510   -3.9540    8.1566  N     
3    C        21.7059   -3.8774    8.3848  C     
4    C        21.0502   -4.7753    9.2706  C     
5    C        19.6633   -4.6894    9.5067  C     
6    C        18.8845   -3.6698    8.8976  C     
7    N        17.5255   -3.5149    9.0003  N     
8    C        16.6972   -3.8110    9.9866  C     
9    N        15.4032   -3.6078    9.7688  N     
10   C        14.3659   -3.9411   10.5814  C     
11   N        14.5335   -4.6538   11.7298  N     
12   C        13.5184   -5.0414   12.5372  C     
13   C        12.2067   -4.6978   12.1669  C     
14   C        11.1961   -5.0905   12.8759  C     
15   N        10.3179   -5.4706   13.5101  N     
16   N        12.0182   -3.9835   11.0261  N     
17   C        13.0461   -3.5937   10.2270  C     
18   O        17.1062   -4.1883   11.0733  O     
19   C        19.5363   -2.7778    8.0180  C     
20   C        20.9144   -2.8804    7.7585  C     
21   O        23.7548   -4.7782    8.6831  O     
22   H        21.5865   -5.4945    9.7742  H     
23   H        19.2367   -5.4038   10.1042  H     
24   H        17.0982   -3.1377    8.2169  H     
25   H        15.1679   -3.1932    8.9203  H     
26   H        13.7227   -5.5829   13.3805  H     
27   H        12.8484   -3.0604    9.3781  H     
28   H        19.0007   -2.0395    7.5486  H     
29   H        21.3313   -2.2207    7.0849  H     
@<TRIPOS>BOND
     1    1    2 1
     2    2    3 am
     3    3    4 ar
     4    4    5 ar
     5    5    6 ar
     6    6    7 1
     7    7    8 am
     8    8    9 am
     9    9   10 1
    10   10   11 ar
    11   11   12 ar
    12   12   13 ar
    13   13   14 1
    14   14   15 3
    15   13   16 ar
    16   16   17 ar
    17   10   17 ar
    18    8   18 2
    19    6   19 ar
    20   19   20 ar
    21    3   20 ar
    22    2   21 2
    23    4   22 1
    24    5   23 1
    25    7   24 1
    26    9   25 1
    27   12   26 1
    28   17   27 1
    29   19   28 1
    30   20   29 1
@<TRIPOS>PROPERTY_DATA
  Total_Score	| 2.8336
  Crash		| -0.6845
  Polar		| 1.1200
  FragIndex	| 1
  FragRMSD	| 1.269

