@<TRIPOS>MOLECULE
BindingDB_91891
 45 46 0 0 0
SMALL
NO_CHARGES


@<TRIPOS>ATOM
1    C        17.4434   -7.5827   14.2975  C     
2    C        17.7898   -6.2498   13.5825  C     
3    C        18.6811   -6.3554   12.2992  C     
4    N        18.0931   -5.8439   11.0585  N     
5    C        16.7264   -6.2130   10.7115  C     
6    C        16.3656   -7.7010   10.8775  C     
7    C        18.8345   -5.0533   10.2010  C     
8    C        20.2042   -5.3780    9.9980  C     
9    C        21.0058   -4.6726    9.0880  C     
10   C        20.4666   -3.5931    8.3755  C     
11   C        19.1161   -3.2347    8.5768  C     
12   C        18.2760   -3.9475    9.4776  C     
13   N        16.9706   -3.5650    9.7562  N     
14   C        16.1283   -2.7399    9.1358  C     
15   O        16.4679   -2.0889    8.1646  O     
16   N        14.8557   -2.5590    9.4624  N     
17   C        14.0715   -3.1613   10.3931  C     
18   C        12.7143   -2.7847   10.4767  C     
19   N        11.8837   -3.4389   11.3309  N     
20   C        12.3160   -4.4438   12.1411  C     
21   C        13.6795   -4.8029   12.0862  C     
22   N        14.5034   -4.1606   11.2233  N     
23   C        11.4708   -5.1040   12.8840  C     
24   N        10.7321   -5.7170   13.5143  N     
25   C        21.2270   -2.9227    7.5570  C     
26   N        21.9057   -2.3408    6.8339  N     
27   H        16.8636   -7.3725   15.1990  H     
28   H        16.8504   -8.2418   13.6545  H     
29   H        18.3677   -8.0969   14.5846  H     
30   H        16.8573   -5.7247   13.3534  H     
31   H        18.3175   -5.6374   14.3341  H     
32   H        19.5902   -5.7935   12.5357  H     
33   H        19.0099   -7.3853   12.1551  H     
34   H        16.0284   -5.6418   11.3212  H     
35   H        16.4923   -5.9860    9.6628  H     
36   H        16.8707   -8.2942   10.1144  H     
37   H        15.2867   -7.8202   10.7581  H     
38   H        16.6331   -8.0769   11.8635  H     
39   H        20.6193   -6.1842   10.4711  H     
40   H        21.9780   -4.9647    8.9464  H     
41   H        18.7660   -2.4126    8.0883  H     
42   H        16.5950   -3.9943   10.5348  H     
43   H        14.3821   -1.9023    8.9193  H     
44   H        12.3309   -2.0472    9.8770  H     
45   H        14.0511   -5.5560   12.6683  H     
@<TRIPOS>BOND
     1    1    2 1
     2    2    3 1
     3    3    4 1
     4    4    5 1
     5    5    6 1
     6    4    7 1
     7    7    8 ar
     8    8    9 ar
     9    9   10 ar
    10   10   11 ar
    11   11   12 ar
    12    7   12 ar
    13   12   13 1
    14   13   14 am
    15   14   15 2
    16   14   16 am
    17   16   17 1
    18   17   18 ar
    19   18   19 ar
    20   19   20 ar
    21   20   21 ar
    22   21   22 ar
    23   17   22 ar
    24   20   23 1
    25   23   24 3
    26   10   25 1
    27   25   26 3
    28    1   27 1
    29    1   28 1
    30    1   29 1
    31    2   30 1
    32    2   31 1
    33    3   32 1
    34    3   33 1
    35    5   34 1
    36    5   35 1
    37    6   36 1
    38    6   37 1
    39    6   38 1
    40    8   39 1
    41    9   40 1
    42   11   41 1
    43   13   42 1
    44   16   43 1
    45   18   44 1
    46   21   45 1
@<TRIPOS>PROPERTY_DATA
  Total_Score	| 5.6854
  Crash		| -2.9997
  Polar		| 3.1784
  FragIndex	| 1
  FragRMSD	| 0.866

