@<TRIPOS>MOLECULE
BindingDB_91854
 29 30 0 0 0
SMALL
NO_CHARGES


@<TRIPOS>ATOM
1    N        18.7504   -5.6228   10.1360  N     
2    C        19.4758   -4.7543    9.4110  C     
3    C        20.8399   -5.0375    9.2113  C     
4    C        21.6107   -4.2185    8.3689  C     
5    C        21.0261   -3.1148    7.7288  C     
6    Cl       21.9715   -2.2190    6.6477  Cl    
7    C        19.6654   -2.8155    7.9528  C     
8    C        18.8780   -3.6119    8.8159  C     
9    N        17.5474   -3.2992    8.9112  N     
10   C        16.7384   -3.5136    9.9487  C     
11   O        17.1917   -3.9353   11.0214  O     
12   N        15.4451   -3.2691    9.7586  N     
13   C        14.3986   -3.6770   10.5227  C     
14   C        13.0729   -3.3078   10.1969  C     
15   N        12.0341   -3.7807   10.9429  N     
16   C        12.2152   -4.6086   12.0093  C     
17   C        13.5335   -4.9830   12.3313  C     
18   N        14.5596   -4.5048   11.5884  N     
19   C        11.2086   -5.0830   12.6794  C     
20   N        10.3301   -5.5246   13.2778  N     
21   H        19.1577   -6.4257   10.4967  H     
22   H        17.7968   -5.4621   10.2736  H     
23   H        21.2840   -5.8519    9.6416  H     
24   H        22.5922   -4.4457    8.1832  H     
25   H        19.2375   -2.0315    7.4546  H     
26   H        17.1377   -2.9255    8.1088  H     
27   H        15.2061   -2.8079    8.9408  H     
28   H        12.8779   -2.7053    9.4004  H     
29   H        13.7375   -5.6119   13.1082  H     
@<TRIPOS>BOND
     1    1    2 1
     2    2    3 ar
     3    3    4 ar
     4    4    5 ar
     5    5    6 1
     6    5    7 ar
     7    7    8 ar
     8    2    8 ar
     9    8    9 1
    10    9   10 am
    11   10   11 2
    12   10   12 am
    13   12   13 1
    14   13   14 ar
    15   14   15 ar
    16   15   16 ar
    17   16   17 ar
    18   17   18 ar
    19   13   18 ar
    20   16   19 1
    21   19   20 3
    22    1   21 1
    23    1   22 1
    24    3   23 1
    25    4   24 1
    26    7   25 1
    27    9   26 1
    28   12   27 1
    29   14   28 1
    30   17   29 1
@<TRIPOS>PROPERTY_DATA
  Total_Score	| 1.8444
  Crash		| -1.4296
  Polar		| 1.2199
  FragIndex	| 1
  FragRMSD	| 1.170

