@<TRIPOS>MOLECULE
BindingDB_91836
 41 43 0 0 0
SMALL
NO_CHARGES


@<TRIPOS>ATOM
1    C        18.3348   -6.0919   12.4150  C     
2    O        17.8963   -5.7579   11.0861  O     
3    C        18.8868   -5.2270   10.2937  C     
4    C        20.1095   -5.9149   10.1829  C     
5    C        21.1680   -5.3670    9.4465  C     
6    C        21.0421   -4.1082    8.8108  C     
7    C        19.7854   -3.4526    8.8833  C     
8    C        18.6942   -4.0106    9.5830  C     
9    N        17.5217   -3.3000    9.6243  N     
10   C        16.2955   -3.7982    9.5673  C     
11   O        16.1136   -4.9382    9.1633  O     
12   N        15.2832   -3.0501    9.9772  N     
13   C        14.1418   -3.5135   10.5507  C     
14   C        13.1594   -2.6215   11.0336  C     
15   N        12.1161   -3.1078   11.7605  N     
16   C        11.9667   -4.4286   12.0373  C     
17   C        12.9259   -5.3283   11.5383  C     
18   N        13.9674   -4.8336   10.8294  N     
19   C        10.9973   -4.8513   12.7872  C     
20   N        10.1649   -5.2720   13.4575  N     
21   C        22.1638   -3.5304    8.1329  C     
22   C        21.9943   -2.6683    7.0215  C     
23   C        23.1025   -2.1392    6.3342  C     
24   C        24.4058   -2.4627    6.7447  C     
25   C        24.5991   -3.2989    7.8515  C     
26   C        23.4912   -3.8186    8.5438  C     
27   H        18.8128   -5.2409   12.9024  H     
28   H        17.4600   -6.3738   13.0013  H     
29   H        19.0290   -6.9365   12.3985  H     
30   H        20.2411   -6.8072   10.6655  H     
31   H        22.0389   -5.9018    9.3884  H     
32   H        19.6563   -2.5489    8.4248  H     
33   H        17.6040   -2.3510    9.8109  H     
34   H        15.4336   -2.0936   10.0303  H     
35   H        13.2394   -1.6190   10.8770  H     
36   H        12.8770   -6.3327   11.7195  H     
37   H        21.0624   -2.4308    6.6873  H     
38   H        22.9626   -1.5212    5.5332  H     
39   H        25.2118   -2.0797    6.2463  H     
40   H        25.5466   -3.5236    8.1596  H     
41   H        23.6675   -4.4069    9.3580  H     
@<TRIPOS>BOND
     1    1    2 1
     2    2    3 1
     3    3    4 ar
     4    4    5 ar
     5    5    6 ar
     6    6    7 ar
     7    7    8 ar
     8    3    8 ar
     9    8    9 1
    10    9   10 am
    11   10   11 2
    12   10   12 am
    13   12   13 1
    14   13   14 ar
    15   14   15 ar
    16   15   16 ar
    17   16   17 ar
    18   17   18 ar
    19   13   18 ar
    20   16   19 1
    21   19   20 3
    22    6   21 1
    23   21   22 ar
    24   22   23 ar
    25   23   24 ar
    26   24   25 ar
    27   25   26 ar
    28   21   26 ar
    29    1   27 1
    30    1   28 1
    31    1   29 1
    32    4   30 1
    33    5   31 1
    34    7   32 1
    35    9   33 1
    36   12   34 1
    37   14   35 1
    38   17   36 1
    39   22   37 1
    40   23   38 1
    41   24   39 1
    42   25   40 1
    43   26   41 1
@<TRIPOS>PROPERTY_DATA
  Total_Score	| 3.4022
  Crash		| -1.2082
  Polar		| 0.9129
  FragIndex	| 1
  FragRMSD	| 0.968

