@<TRIPOS>MOLECULE
BindingDB_91908
 41 43 0 0 0
SMALL
NO_CHARGES


@<TRIPOS>ATOM
1    O        16.2265   -4.9569   12.7962  O     
2    C        15.7720   -5.5164   11.5644  C     
3    C        16.3274   -6.9557   11.5030  C     
4    C        17.8367   -6.7438   11.0817  C     
5    N        17.8915   -5.4997   10.3422  N     
6    C        16.6012   -5.0683   10.3738  C     
7    C        18.8473   -4.8148    9.5907  C     
8    C        20.0722   -5.5132    9.4331  C     
9    C        21.1648   -5.0030    8.7096  C     
10   C        21.0770   -3.7511    8.0913  C     
11   C        19.8834   -3.0192    8.2177  C     
12   C        18.7560   -3.5022    8.9447  C     
13   N        17.8510   -2.4401    9.0613  N     
14   C        16.5261   -2.2396    9.0976  C     
15   O        16.1797   -1.0769    9.2042  O     
16   N        15.6385   -3.2205    9.1516  N     
17   C        14.5511   -3.4116    9.9800  C     
18   C        13.8797   -2.5013   10.8263  C     
19   N        12.9872   -2.9756   11.7405  N     
20   C        12.6776   -4.2946   11.8809  C     
21   C        13.2935   -5.2186   11.0194  C     
22   N        14.2191   -4.7448   10.1202  N     
23   C        11.8878   -4.7069   12.8291  C     
24   N        11.1983   -5.1097   13.6555  N     
25   C        22.0917   -3.2773    7.4197  C     
26   N        22.9915   -2.8755    6.8324  N     
27   H        15.5877   -5.2512   13.4780  H     
28   H        14.7351   -5.0956   11.4420  H     
29   H        16.2317   -7.4670   12.4611  H     
30   H        15.7922   -7.5332   10.7448  H     
31   H        18.4656   -6.6567   11.9700  H     
32   H        18.1739   -7.5910   10.4802  H     
33   H        16.5885   -4.0318   10.4747  H     
34   H        16.2053   -5.2905    9.3576  H     
35   H        20.1926   -6.4435    9.8470  H     
36   H        22.0161   -5.5670    8.6356  H     
37   H        19.8483   -2.0884    7.7804  H     
38   H        18.3212   -1.5911    9.0070  H     
39   H        16.0244   -4.0726    8.9943  H     
40   H        14.0919   -1.5040   10.8097  H     
41   H        13.1213   -6.2195   11.0936  H     
@<TRIPOS>BOND
     1    1    2 1
     2    2    3 1
     3    3    4 1
     4    4    5 1
     5    5    6 1
     6    2    6 1
     7    5    7 1
     8    7    8 ar
     9    8    9 ar
    10    9   10 ar
    11   10   11 ar
    12   11   12 ar
    13    7   12 ar
    14   12   13 1
    15   13   14 am
    16   14   15 2
    17   14   16 am
    18   16   17 1
    19   17   18 ar
    20   18   19 ar
    21   19   20 ar
    22   20   21 ar
    23   21   22 ar
    24   17   22 ar
    25   20   23 1
    26   23   24 3
    27   10   25 1
    28   25   26 3
    29    1   27 1
    30    2   28 1
    31    3   29 1
    32    3   30 1
    33    4   31 1
    34    4   32 1
    35    6   33 1
    36    6   34 1
    37    8   35 1
    38    9   36 1
    39   11   37 1
    40   13   38 1
    41   16   39 1
    42   18   40 1
    43   21   41 1
@<TRIPOS>PROPERTY_DATA
  Total_Score	| 2.1070
  Crash		| -2.1980
  Polar		| 1.1814
  FragIndex	| 1
  FragRMSD	| 1.452

