@<TRIPOS>MOLECULE
BindingDB_91928
 46 47 0 0 0
SMALL
NO_CHARGES


@<TRIPOS>ATOM
1    C        17.1399   -7.4954   14.9568  C     
2    N        17.2631   -7.4725   13.4714  N     
3    C        16.0361   -7.9451   12.7740  C     
4    C        17.8793   -6.2197   12.9182  C     
5    C        18.7548   -6.4457   11.6385  C     
6    N        18.2691   -5.7967   10.4156  N     
7    C        16.9460   -6.2200    9.9906  C     
8    C        19.0455   -4.9505    9.6333  C     
9    C        20.4302   -5.2431    9.4694  C     
10   C        21.2754   -4.4860    8.6457  C     
11   C        20.7584   -3.4022    7.9280  C     
12   Cl       21.7752   -2.4962    6.9215  Cl    
13   C        19.3967   -3.0841    8.0436  C     
14   C        18.5412   -3.8203    8.8952  C     
15   N        17.2627   -3.3176    8.9482  N     
16   C        16.4488   -3.3136    9.9885  C     
17   O        16.8943   -3.5785   11.0944  O     
18   N        15.1568   -3.1005    9.7836  N     
19   C        14.1411   -3.4768   10.6053  C     
20   C        12.8003   -3.2560   10.2327  C     
21   N        11.8047   -3.7679   11.0034  N     
22   C        12.0407   -4.4698   12.1409  C     
23   C        13.3724   -4.6695   12.5427  C     
24   N        14.3553   -4.1726   11.7566  N     
25   C        11.0589   -5.0028   12.7962  C     
26   N        10.2046   -5.5079   13.3723  N     
27   H        18.1188   -7.3548   15.4169  H     
28   H        16.4685   -6.7059   15.3014  H     
29   H        16.7571   -8.4573   15.3022  H     
30   H        15.7017   -8.8996   13.1861  H     
31   H        16.2317   -8.1034   11.7155  H     
32   H        15.2260   -7.2197   12.8778  H     
33   H        17.0929   -5.4846   12.7402  H     
34   H        18.5264   -5.7663   13.6749  H     
35   H        19.7553   -6.1022   11.9091  H     
36   H        18.8628   -7.5174   11.4498  H     
37   H        16.6347   -5.8124    9.0302  H     
38   H        16.1958   -5.9333   10.7268  H     
39   H        16.9181   -7.3062    9.8844  H     
40   H        20.8427   -6.0727    9.8979  H     
41   H        22.2609   -4.7434    8.5548  H     
42   H        19.0362   -2.2830    7.5169  H     
43   H        16.9085   -2.9416    8.1254  H     
44   H        14.9069   -2.7534    8.9120  H     
45   H        12.5661   -2.7464    9.3807  H     
46   H        13.6151   -5.1896   13.3893  H     
@<TRIPOS>BOND
     1    1    2 1
     2    2    3 1
     3    2    4 1
     4    4    5 1
     5    5    6 1
     6    6    7 1
     7    6    8 1
     8    8    9 ar
     9    9   10 ar
    10   10   11 ar
    11   11   12 1
    12   11   13 ar
    13   13   14 ar
    14    8   14 ar
    15   14   15 1
    16   15   16 am
    17   16   17 2
    18   16   18 am
    19   18   19 1
    20   19   20 ar
    21   20   21 ar
    22   21   22 ar
    23   22   23 ar
    24   23   24 ar
    25   19   24 ar
    26   22   25 1
    27   25   26 3
    28    1   27 1
    29    1   28 1
    30    1   29 1
    31    3   30 1
    32    3   31 1
    33    3   32 1
    34    4   33 1
    35    4   34 1
    36    5   35 1
    37    5   36 1
    38    7   37 1
    39    7   38 1
    40    7   39 1
    41    9   40 1
    42   10   41 1
    43   13   42 1
    44   15   43 1
    45   18   44 1
    46   20   45 1
    47   23   46 1
@<TRIPOS>PROPERTY_DATA
  Total_Score	| 2.1902
  Crash		| -3.0316
  Polar		| 1.2727
  FragIndex	| 1
  FragRMSD	| 1.195

