@<TRIPOS>MOLECULE
BindingDB_91956
 34 36 0 0 0
SMALL
NO_CHARGES


@<TRIPOS>ATOM
1    O        23.3703   -5.4739    9.3150  O     
2    C        22.6863   -4.5021    8.6618  C     
3    C        23.4001   -3.7070    7.7413  C     
4    C        22.7464   -2.6826    7.0413  C     
5    C        21.3770   -2.4549    7.2521  C     
6    C        20.6349   -3.2489    8.1573  C     
7    C        19.2408   -3.0390    8.3525  C     
8    C        18.5033   -3.8257    9.2811  C     
9    N        17.1676   -3.6780    9.5755  N     
10   C        16.2757   -2.8394    9.0644  C     
11   O        16.6246   -2.0194    8.2276  O     
12   N        14.9944   -2.7639    9.3971  N     
13   C        14.2516   -3.4672   10.2803  C     
14   C        12.9032   -3.0771   10.4151  C     
15   N        12.1018   -3.7276   11.2935  N     
16   C        12.5493   -4.7550   12.0593  C     
17   C        13.8963   -5.1562   11.9369  C     
18   N        14.6967   -4.4990   11.0530  N     
19   C        11.7159   -5.3316   12.8700  C     
20   N        10.9702   -5.8397   13.5806  N     
21   C        19.1854   -4.8430    9.9729  C     
22   C        20.5553   -5.0711    9.7761  C     
23   C        21.3024   -4.2810    8.8735  C     
24   H        23.2047   -5.2995   10.2642  H     
25   H        24.3980   -3.8687    7.5799  H     
26   H        23.2619   -2.1102    6.3635  H     
27   H        20.9125   -1.7099    6.7271  H     
28   H        18.7465   -2.3123    7.8069  H     
29   H        16.8294   -4.2735   10.2660  H     
30   H        14.5064   -2.0666    8.9321  H     
31   H        12.5178   -2.3010    9.8669  H     
32   H        14.2799   -5.9202   12.4989  H     
33   H        18.6778   -5.4374   10.6359  H     
34   H        20.9977   -5.8217   10.3079  H     
@<TRIPOS>BOND
     1    1    2 1
     2    2    3 ar
     3    3    4 ar
     4    4    5 ar
     5    5    6 ar
     6    6    7 ar
     7    7    8 ar
     8    8    9 1
     9    9   10 am
    10   10   11 2
    11   10   12 am
    12   12   13 1
    13   13   14 ar
    14   14   15 ar
    15   15   16 ar
    16   16   17 ar
    17   17   18 ar
    18   13   18 ar
    19   16   19 1
    20   19   20 3
    21    8   21 ar
    22   21   22 ar
    23   22   23 ar
    24    2   23 ar
    25    6   23 ar
    26    1   24 1
    27    3   25 1
    28    4   26 1
    29    5   27 1
    30    7   28 1
    31    9   29 1
    32   12   30 1
    33   14   31 1
    34   17   32 1
    35   21   33 1
    36   22   34 1
@<TRIPOS>PROPERTY_DATA
  Total_Score	| 6.6326
  Crash		| -0.4154
  Polar		| 3.3060
  FragIndex	| 1
  FragRMSD	| 0.882

