@<TRIPOS>MOLECULE
BindingDB_10876
 21 21 0 0 0
SMALL
NO_CHARGES


@<TRIPOS>ATOM
1    C        -5.4957    2.4463   15.9807  C     
2    C        -4.1322    2.4798   15.6277  C     
3    C        -3.6077    3.5891   14.9414  C     
4    C        -4.4306    4.6860   14.5923  C     
5    C        -5.7917    4.6536   14.9826  C     
6    C        -6.3231    3.5413   15.6596  C     
7    O        -5.9155   -0.1838   15.9026  O     
8    O        -5.2461    0.8353   18.1725  O     
9    S        -6.1089    1.0755   16.8578  S     
10   N        -7.7548    1.0862   17.2045  N     
11   C        -3.8527    5.8852   13.9360  C     
12   O        -4.7855    6.5658   13.0999  O     
13   H        -3.5078    1.7087   15.8817  H     
14   H        -2.6084    3.5978   14.7095  H     
15   H        -6.4076    5.4426   14.7765  H     
16   H        -7.3130    3.5515   15.9297  H     
17   H        -8.1989    0.2395   17.4293  H     
18   H        -8.2769    1.8902   17.0850  H     
19   H        -3.5248    6.5692   14.7147  H     
20   H        -2.9960    5.6195   13.3190  H     
21   H        -4.8652    6.0040   12.2920  H     
@<TRIPOS>BOND
     1    1    2 1
     2    1    6 2
     3    1    9 1
     4    2    3 2
     5    3    4 1
     6    4    5 2
     7    4   11 1
     8    5    6 1
     9    7    9 2
    10    8    9 2
    11    9   10 am
    12   11   12 1
    13    2   13 1
    14    3   14 1
    15    5   15 1
    16    6   16 1
    17   10   17 1
    18   10   18 1
    19   11   19 1
    20   11   20 1
    21   12   21 1
@<TRIPOS>PROPERTY_DATA
  Total_Score	| 3.5134
  Crash		| -0.7388
  Polar		| 2.3008
  FragIndex	| 1
  FragRMSD	| 1.178

