@<TRIPOS>MOLECULE
BindingDB_29277
 25 25 0 0 0
SMALL
NO_CHARGES


@<TRIPOS>ATOM
1    C        -5.5387    2.4536   15.9215  C     
2    C        -4.1950    2.4471   15.4900  C     
3    C        -3.6726    3.5413   14.7917  C     
4    C        -4.4713    4.6793   14.5168  C     
5    C        -5.8197    4.6725   14.9428  C     
6    C        -6.3520    3.5689   15.6419  C     
7    S        -6.1361    1.0908   16.8301  S     
8    N        -7.7599    1.0918   17.2436  N     
9    O        -5.9271   -0.1856   15.9122  O     
10   O        -5.2390    0.9027   18.1299  O     
11   C        -3.9033    5.8171   13.7383  C     
12   C        -2.6443    6.4342   14.4060  C     
13   C        -1.9601    7.4043   13.5297  C     
14   O        -0.6168    7.3614   13.3744  O     
15   O        -2.6523    8.3878   12.9111  O     
16   H        -3.5960    1.6424   15.6755  H     
17   H        -2.7007    3.5147   14.4777  H     
18   H        -6.4274    5.4744   14.7543  H     
19   H        -7.3343    3.5860   15.9388  H     
20   H        -8.1606    0.2592   17.5546  H     
21   H        -8.3334    1.8198   16.9604  H     
22   H        -3.6507    5.4483   12.7364  H     
23   H        -4.6513    6.6052   13.6165  H     
24   H        -2.9358    6.9469   15.3280  H     
25   H        -1.9372    5.6439   14.6680  H     
@<TRIPOS>BOND
     1    1    2 1
     2    1    6 2
     3    1    7 1
     4    2    3 2
     5    3    4 1
     6    4    5 2
     7    4   11 1
     8    5    6 1
     9    7    8 am
    10    7    9 2
    11    7   10 2
    12   11   12 1
    13   12   13 1
    14   13   14 2
    15   13   15 1
    16    2   16 1
    17    3   17 1
    18    5   18 1
    19    6   19 1
    20    8   20 1
    21    8   21 1
    22   11   22 1
    23   11   23 1
    24   12   24 1
    25   12   25 1
@<TRIPOS>PROPERTY_DATA
  Total_Score	| 3.8508
  Crash		| -0.8104
  Polar		| 2.4146
  FragIndex	| 1
  FragRMSD	| 1.012

