@<TRIPOS>MOLECULE
BindingDB_50236140
 19 19 0 0 0
SMALL
NO_CHARGES


@<TRIPOS>ATOM
1    C        -3.9316    2.5333   15.6342  C     
2    C        -5.3194    2.5281   15.8897  C     
3    C        -6.1074    3.6016   15.4248  C     
4    C        -5.5231    4.6714   14.7244  C     
5    C        -4.1326    4.6854   14.4812  C     
6    C        -3.3415    3.6049   14.9335  C     
7    S        -6.0437    1.2218   16.7743  S     
8    N        -7.6452    1.4753   17.1949  N     
9    O        -6.0240   -0.0454   15.8197  O     
10   O        -5.1930    0.9003   18.0753  O     
11   C        -3.5992    5.6801   13.8321  C     
12   C        -3.1168    6.5946   13.2321  C     
13   H        -3.3350    1.7608   15.9493  H     
14   H        -7.1178    3.6144   15.5789  H     
15   H        -6.1258    5.4360   14.4034  H     
16   H        -2.3312    3.5930   14.7592  H     
17   H        -8.1522    0.7685   17.6088  H     
18   H        -8.0489    2.3343   17.0297  H     
19   H        -2.7452    7.2993   12.7690  H     
@<TRIPOS>BOND
     1    1    2 2
     2    1    6 1
     3    2    3 1
     4    2    7 1
     5    3    4 2
     6    4    5 1
     7    5    6 2
     8    5   11 1
     9    7    8 am
    10    7    9 2
    11    7   10 2
    12   11   12 3
    13    1   13 1
    14    3   14 1
    15    4   15 1
    16    6   16 1
    17    8   17 1
    18    8   18 1
    19   12   19 1
@<TRIPOS>PROPERTY_DATA
  Total_Score	| 3.4265
  Crash		| -0.7822
  Polar		| 2.6866
  FragIndex	| 1
  FragRMSD	| 1.442

