@<TRIPOS>MOLECULE
BindingDB_11048
 44 45 0 0 0
SMALL
NO_CHARGES


@<TRIPOS>ATOM
1    C        -8.8594    9.8638    8.2138  C     
2    C        -7.0147    9.9506    9.6032  C     
3    N        -8.7922    8.8647    9.0047  N     
4    N        -7.7989    8.8780    9.7681  N     
5    S        -7.5812   10.9869    8.3302  S     
6    N       -11.6402    9.4639    7.7972  N     
7    S       -10.2019   10.0916    7.1889  S     
8    O       -10.4355   11.6595    7.0566  O     
9    O        -9.9420    9.5471    5.7179  O     
10   N        -5.9173   10.0785   10.3826  N     
11   C        -4.9779   11.0155   10.3825  C     
12   C        -3.8102   10.8689   11.2395  C     
13   O        -5.0295   12.0002    9.6553  O     
14   C        -2.5661   10.3140   10.4989  C     
15   S        -2.7149    8.5740   10.0222  S     
16   S        -2.6753    7.5039   11.8041  S     
17   C        -4.0367    6.3238   11.6205  C     
18   C        -5.2483    6.6145   12.5568  C     
19   C        -5.5114    5.7238   13.6833  C     
20   O        -6.6003    5.8575   14.2286  O     
21   N        -4.6530    4.7873   14.0775  N     
22   C        -4.8449    3.7746   14.9569  C     
23   S        -6.2938    3.3380   15.8072  S     
24   N        -3.8568    2.8913   15.1682  N     
25   N        -4.1830    1.9444   15.9162  N     
26   C        -5.3858    2.0011   16.3410  C     
27   N        -7.6743    0.9295   17.6982  N     
28   S        -6.0738    0.7356   17.2449  S     
29   O        -5.9580   -0.6446   16.4714  O     
30   O        -5.2349    0.5442   18.5789  O     
31   H       -12.4170   10.0360    7.9052  H     
32   H       -11.6833    8.5390    8.0945  H     
33   H        -5.7974    9.3670   11.0282  H     
34   H        -3.5613   11.8480   11.6553  H     
35   H        -4.0229   10.2065   12.0802  H     
36   H        -2.3908   10.8953    9.5888  H     
37   H        -1.6845   10.4233   11.1353  H     
38   H        -4.3707    6.3546   10.5790  H     
39   H        -3.6522    5.3168   11.7879  H     
40   H        -5.1627    7.6288   12.9442  H     
41   H        -6.1405    6.5926   11.9183  H     
42   H        -3.7814    4.7958   13.6525  H     
43   H        -7.9073    0.8677   18.6369  H     
44   H        -8.3711    0.9051   17.0226  H     
@<TRIPOS>BOND
     1    1    3 2
     2    1    5 1
     3    1    7 1
     4    2    4 2
     5    2    5 1
     6    2   10 1
     7    3    4 1
     8    6    7 am
     9    7    8 2
    10    7    9 2
    11   10   11 am
    12   11   12 1
    13   11   13 2
    14   12   14 1
    15   14   15 1
    16   15   16 1
    17   16   17 1
    18   17   18 1
    19   18   19 1
    20   19   20 2
    21   19   21 am
    22   21   22 1
    23   22   23 1
    24   22   24 2
    25   23   26 1
    26   24   25 1
    27   25   26 2
    28   26   28 1
    29   27   28 am
    30   28   29 2
    31   28   30 2
    32    6   31 1
    33    6   32 1
    34   10   33 1
    35   12   34 1
    36   12   35 1
    37   14   36 1
    38   14   37 1
    39   17   38 1
    40   17   39 1
    41   18   40 1
    42   18   41 1
    43   21   42 1
    44   27   43 1
    45   27   44 1
@<TRIPOS>PROPERTY_DATA
  Total_Score	| 4.0338
  Crash		| -1.7225
  Polar		| 4.6917
  FragIndex	| 1
  FragRMSD	| 1.099

