@<TRIPOS>MOLECULE
BindingDB_50157950
 41 42 0 0 0
SMALL
NO_CHARGES


@<TRIPOS>ATOM
1    C        -5.3458    1.9634   16.1714  C     
2    S        -6.0200    0.8636   17.2813  S     
3    S        -6.2686    3.2207   15.4950  S     
4    C        -4.8097    3.6483   14.6561  C     
5    N        -4.1300    1.9025   15.7791  N     
6    N        -3.8170    2.7990   14.9587  N     
7    N        -4.6248    4.6706   13.7810  N     
8    C        -5.4955    5.6174   13.4326  C     
9    N        -6.2779    7.9811   10.5604  N     
10   N        -7.2007    7.8763    7.7282  N     
11   O        -6.0914   -0.5646   16.5857  O     
12   O        -5.1476    0.7694   18.6061  O     
13   C        -5.1943    6.6335   12.4321  C     
14   N        -7.5994    1.2703   17.6644  N     
15   O        -6.5870    5.7079   13.9865  O     
16   C        -6.1886    6.6342   11.2315  C     
17   C        -7.6651    8.3886   10.1737  C     
18   C        -5.3228    8.1978    9.4283  C     
19   C        -8.1453    7.6832    8.8751  C     
20   C        -5.7927    7.5244    8.1048  C     
21   C        -7.3290    9.2013    7.0561  C     
22   H        -3.7504    4.7129   13.3638  H     
23   H        -6.0017    8.6554   11.2785  H     
24   H        -7.4906    7.2131    7.0018  H     
25   H        -5.2574    7.6005   12.9326  H     
26   H        -4.1760    6.5262   12.0552  H     
27   H        -8.1048    0.7079   18.2685  H     
28   H        -7.9474    2.1391   17.4021  H     
29   H        -7.1735    6.3544   11.6153  H     
30   H        -5.9094    5.8463   10.5234  H     
31   H        -8.3726    8.1835   10.9808  H     
32   H        -7.6802    9.4686   10.0215  H     
33   H        -5.2311    9.2740    9.2587  H     
34   H        -4.3248    7.8373    9.6908  H     
35   H        -9.1507    8.0357    8.6222  H     
36   H        -8.2311    6.6088    9.0708  H     
37   H        -5.7323    6.4404    8.2195  H     
38   H        -5.1002    7.7855    7.3003  H     
39   H        -8.3544    9.3462    6.7086  H     
40   H        -6.6828    9.2359    6.1770  H     
41   H        -7.0625   10.0274    7.7171  H     
@<TRIPOS>BOND
     1    1    2 1
     2    1    3 1
     3    1    5 2
     4    2   11 2
     5    2   12 2
     6    2   14 am
     7    3    4 1
     8    4    6 2
     9    4    7 1
    10    5    6 1
    11    7    8 am
    12    8   13 1
    13    8   15 2
    14    9   16 1
    15    9   17 1
    16    9   18 1
    17   10   19 1
    18   10   20 1
    19   10   21 1
    20   13   16 1
    21   17   19 1
    22   18   20 1
    23    7   22 1
    24    9   23 1
    25   10   24 1
    26   13   25 1
    27   13   26 1
    28   14   27 1
    29   14   28 1
    30   16   29 1
    31   16   30 1
    32   17   31 1
    33   17   32 1
    34   18   33 1
    35   18   34 1
    36   19   35 1
    37   19   36 1
    38   20   37 1
    39   20   38 1
    40   21   39 1
    41   21   40 1
    42   21   41 1
@<TRIPOS>PROPERTY_DATA
  Total_Score	| 5.0145
  Crash		| -1.7609
  Polar		| 5.1124
  FragIndex	| 1
  FragRMSD	| 1.128

