@<TRIPOS>MOLECULE
BindingDB_10880
 19 19 0 0 0
SMALL
NO_CHARGES


@<TRIPOS>ATOM
1    C        -5.3687    1.9425   16.2838  C     
2    C        -4.8301    3.7233   14.9248  C     
3    S        -6.2993    3.2544   15.7172  S     
4    N        -3.8342    2.8510   15.1401  N     
5    N        -4.1588    1.8992   15.8759  N     
6    N        -7.6352    1.0611   17.6487  N     
7    S        -6.0340    0.7342   17.2808  S     
8    O        -5.9953   -0.6385   16.4859  O     
9    O        -5.2190    0.6266   18.6402  O     
10   N        -4.6179    4.8053   14.1420  N     
11   C        -5.4597    5.7753   13.8038  C     
12   C        -4.9805    6.8265   12.9351  C     
13   O        -6.6179    5.8223   14.1979  O     
14   H        -8.1348    0.4655   18.2299  H     
15   H        -8.0631    1.8466   17.2659  H     
16   H        -3.7249    4.8760   13.7730  H     
17   H        -4.1346    7.3343   13.4015  H     
18   H        -5.7538    7.5710   12.7306  H     
19   H        -4.6579    6.3986   11.9838  H     
@<TRIPOS>BOND
     1    1    3 1
     2    1    5 2
     3    1    7 1
     4    2    3 1
     5    2    4 2
     6    2   10 1
     7    4    5 1
     8    6    7 am
     9    7    8 2
    10    7    9 2
    11   10   11 am
    12   11   12 1
    13   11   13 2
    14    6   14 1
    15    6   15 1
    16   10   16 1
    17   12   17 1
    18   12   18 1
    19   12   19 1
@<TRIPOS>PROPERTY_DATA
  Total_Score	| 3.1383
  Crash		| -0.9890
  Polar		| 3.3788
  FragIndex	| 1
  FragRMSD	| 1.087

