@<TRIPOS>MOLECULE
BindingDB_13993
 46 48 0 0 0
SMALL
NO_CHARGES


@<TRIPOS>ATOM
1    C        33.4564   30.4158   20.9232  C     
2    C        34.9007   29.4257   22.2880  C     
3    C        34.8039   30.3132   21.2258  C     
4    O        32.8081   29.6182   21.8070  O     
5    N        33.6572   29.0420   22.6076  N     
6    C        36.0619   28.9936   22.9248  C     
7    O        36.0757   27.8696   23.6754  O     
8    O        37.1541   29.7828   22.9345  O     
9    C        32.8059   31.1452   19.9036  C     
10   C        33.4997   31.8552   18.8787  C     
11   C        32.7967   32.4988   17.8445  C     
12   C        31.3856   32.4975   17.8357  C     
13   C        30.6654   31.8749   18.8810  C     
14   C        31.3932   31.2031   19.8823  C     
15   C        28.4153   31.3007   19.7784  C     
16   C        26.9367   31.6939   19.5586  C     
17   O        26.3515   30.8012   18.5851  O     
18   C        24.9804   30.7487   18.6411  C     
19   C        24.3118   29.7446   19.3953  C     
20   C        24.2396   31.6687   17.8735  C     
21   C        22.8365   31.6419   17.8880  C     
22   C        22.1673   30.6774   18.6609  C     
23   C        22.8954   29.7286   19.4100  C     
24   C        25.0472   28.7820   20.1200  C     
25   O        26.0113   29.1722   20.9869  O     
26   O        24.8419   27.4547   19.8937  O     
27   C        25.5869   26.3840   20.4983  C     
28   O        22.2084   28.8254   20.1567  O     
29   N        29.3043   31.9319   18.8480  N     
30   H        35.5853   30.7756   20.7555  H     
31   H        34.5283   31.8694   18.8635  H     
32   H        33.3157   32.9599   17.0970  H     
33   H        30.8922   32.9758   17.0844  H     
34   H        30.8753   30.7162   20.6200  H     
35   H        28.6952   31.6067   20.7848  H     
36   H        28.5122   30.2140   19.7080  H     
37   H        26.4333   31.6285   20.5267  H     
38   H        26.8701   32.7323   19.2033  H     
39   H        24.7191   32.3723   17.3111  H     
40   H        22.3021   32.3166   17.3428  H     
41   H        21.1363   30.6662   18.6748  H     
42   H        26.6612   26.5064   20.3174  H     
43   H        25.2651   25.4374   20.0626  H     
44   H        25.4037   26.3613   21.5764  H     
45   H        21.8276   29.3390   20.9049  H     
46   H        28.9038   32.4636   18.1343  H     
@<TRIPOS>BOND
     1    1    3 2
     2    1    4 1
     3    1    9 1
     4    2    3 1
     5    2    5 2
     6    2    6 1
     7    4    5 1
     8    6    7 2
     9    6    8 1
    10    9   10 2
    11    9   14 1
    12   10   11 1
    13   11   12 2
    14   12   13 1
    15   13   14 2
    16   13   29 1
    17   15   16 1
    18   15   29 1
    19   16   17 1
    20   17   18 1
    21   18   19 1
    22   18   20 2
    23   19   23 2
    24   19   24 1
    25   20   21 1
    26   21   22 2
    27   22   23 1
    28   23   28 1
    29   24   25 2
    30   24   26 1
    31   26   27 1
    32    3   30 1
    33   10   31 1
    34   11   32 1
    35   12   33 1
    36   14   34 1
    37   15   35 1
    38   15   36 1
    39   16   37 1
    40   16   38 1
    41   20   39 1
    42   21   40 1
    43   22   41 1
    44   27   42 1
    45   27   43 1
    46   27   44 1
    47   28   45 1
    48   29   46 1
@<TRIPOS>PROPERTY_DATA
  Total_Score	| 11.7401
  Crash		| -0.9214
  Polar		| 9.2743
  FragIndex	| 1
  FragRMSD	| 0.218

