@<TRIPOS>MOLECULE
BindingDB_13992
 48 50 0 0 0
SMALL
NO_CHARGES


@<TRIPOS>ATOM
1    C        33.2334   30.3629   20.9565  C     
2    C        34.7405   29.4114   22.2788  C     
3    C        34.5863   30.3421   21.2565  C     
4    O        32.6466   29.4828   21.8075  O     
5    N        33.5292   28.9289   22.5878  N     
6    C        35.9279   29.0153   22.9039  C     
7    O        37.0196   29.8178   22.8477  O     
8    O        36.0054   27.8585   23.5915  O     
9    C        32.5049   31.1111   19.9976  C     
10   C        33.1176   31.9888   19.0715  C     
11   C        32.3325   32.7207   18.1612  C     
12   C        30.9292   32.5877   18.1657  C     
13   C        30.2823   31.7037   19.0626  C     
14   C        31.0967   30.9961   19.9745  C     
15   C        28.0676   30.4191   19.7627  C     
16   C        26.9179   30.8087   20.7304  C     
17   O        26.5123   29.6301   21.4653  O     
18   C        25.2218   29.5898   21.9282  C     
19   C        24.5092   28.3641   21.8653  C     
20   C        24.5903   30.7520   22.4261  C     
21   C        23.2494   30.7110   22.8304  C     
22   C        22.5314   29.5075   22.7558  C     
23   C        23.1508   28.3392   22.2677  C     
24   C        25.1504   27.1944   21.3932  C     
25   O        25.8133   26.3886   22.2546  O     
26   O        25.1161   26.8766   20.0723  O     
27   C        25.7492   25.7515   19.4549  C     
28   O        22.4401   27.1848   22.2424  O     
29   C        28.7810   31.6478   19.0925  C     
30   O        27.5431   29.5355   18.7524  O     
31   H        35.3258   30.8835   20.8129  H     
32   H        34.1373   32.1111   19.0541  H     
33   H        32.7838   33.3579   17.5000  H     
34   H        30.3820   33.1559   17.5088  H     
35   H        30.6605   30.3821   20.6556  H     
36   H        28.7662   29.8283   20.3545  H     
37   H        27.2760   31.5470   21.4572  H     
38   H        26.1056   31.2615   20.1473  H     
39   H        25.1018   31.6390   22.4769  H     
40   H        22.7850   31.5616   23.1594  H     
41   H        21.5536   29.4886   23.0552  H     
42   H        26.8215   25.7634   19.6497  H     
43   H        25.5858   25.8012   18.3788  H     
44   H        25.3182   24.8231   19.8333  H     
45   H        21.7461   27.2701   22.9337  H     
46   H        28.4590   32.5821   19.5748  H     
47   H        28.4209   31.7177   18.0581  H     
48   H        27.9032   28.6525   18.9805  H     
@<TRIPOS>BOND
     1    1    3 2
     2    1    4 1
     3    1    9 1
     4    2    3 1
     5    2    5 2
     6    2    6 1
     7    4    5 1
     8    6    7 2
     9    6    8 1
    10    9   10 2
    11    9   14 1
    12   10   11 1
    13   11   12 2
    14   12   13 1
    15   13   14 2
    16   13   29 1
    17   15   16 1
    18   15   29 1
    19   15   30 1
    20   16   17 1
    21   17   18 1
    22   18   19 1
    23   18   20 2
    24   19   23 2
    25   19   24 1
    26   20   21 1
    27   21   22 2
    28   22   23 1
    29   23   28 1
    30   24   25 2
    31   24   26 1
    32   26   27 1
    33    3   31 1
    34   10   32 1
    35   11   33 1
    36   12   34 1
    37   14   35 1
    38   15   36 1
    39   16   37 1
    40   16   38 1
    41   20   39 1
    42   21   40 1
    43   22   41 1
    44   27   42 1
    45   27   43 1
    46   27   44 1
    47   28   45 1
    48   29   46 1
    49   29   47 1
    50   30   48 1
@<TRIPOS>PROPERTY_DATA
  Total_Score	| 14.3937
  Crash		| -1.5641
  Polar		| 10.4825
  FragIndex	| 1
  FragRMSD	| 0.455

