@<TRIPOS>MOLECULE
BindingDB_13994
 48 51 0 0 0
SMALL
NO_CHARGES


@<TRIPOS>ATOM
1    C        33.2903   30.2757   20.8826  C     
2    C        34.7976   29.3884   22.2615  C     
3    C        34.6359   30.3126   21.2393  C     
4    O        32.7124   29.3645   21.7011  O     
5    N        33.5953   28.8454   22.5075  N     
6    C        35.9809   29.0302   22.9173  C     
7    O        37.0874   29.7919   22.8025  O     
8    O        36.0162   27.9627   23.7473  O     
9    C        32.5898   30.9924   19.8771  C     
10   C        33.2209   31.9671   19.0705  C     
11   C        32.5012   32.6505   18.0769  C     
12   C        31.1396   32.3825   17.8741  C     
13   C        30.4808   31.4148   18.6634  C     
14   C        31.2175   30.7205   19.6493  C     
15   C        27.0564   29.5019   19.1636  C     
16   O        25.6718   29.9085   19.0631  O     
17   C        25.1058   30.5299   20.1491  C     
18   C        24.4577   29.8131   21.1910  C     
19   C        24.9808   31.9350   20.0869  C     
20   C        24.2853   32.6388   21.0807  C     
21   C        23.6800   31.9360   22.1323  C     
22   C        23.7588   30.5315   22.1938  C     
23   C        24.4136   28.4049   21.1943  C     
24   O        23.2013   27.7949   21.1901  O     
25   O        25.5549   27.6716   21.2731  O     
26   C        25.6195   26.2455   21.2747  C     
27   O        23.1598   29.8854   23.2267  O     
28   C        28.1016   30.6047   19.4955  C     
29   C        29.0775   31.0440   18.3693  C     
30   C        27.9913   32.0066   18.8653  C     
31   H        35.3717   30.8892   20.8274  H     
32   H        34.2109   32.1895   19.1896  H     
33   H        32.9703   33.3369   17.4887  H     
34   H        30.6350   32.8806   17.1360  H     
35   H        30.7430   29.9892   20.1880  H     
36   H        27.1729   28.7083   19.8943  H     
37   H        27.2956   29.0618   18.1905  H     
38   H        25.3806   32.4562   19.3076  H     
39   H        24.2103   33.6594   21.0223  H     
40   H        23.1769   32.4535   22.8509  H     
41   H        25.0300   25.8245   22.1003  H     
42   H        26.6603   25.9392   21.3882  H     
43   H        25.2440   25.8597   20.3249  H     
44   H        22.2831   30.3141   23.3370  H     
45   H        28.5004   30.6266   20.5130  H     
46   H        28.8694   30.6987   17.3523  H     
47   H        27.1410   32.1646   18.1961  H     
48   H        28.2984   32.8159   19.5324  H     
@<TRIPOS>BOND
     1    1    3 2
     2    1    4 1
     3    1    9 1
     4    2    3 1
     5    2    5 2
     6    2    6 1
     7    4    5 1
     8    6    7 2
     9    6    8 1
    10    9   10 2
    11    9   14 1
    12   10   11 1
    13   11   12 2
    14   12   13 1
    15   13   14 2
    16   13   29 1
    17   15   16 1
    18   15   28 1
    19   16   17 1
    20   17   18 1
    21   17   19 2
    22   18   22 2
    23   18   23 1
    24   19   20 1
    25   20   21 2
    26   21   22 1
    27   22   27 1
    28   23   24 2
    29   23   25 1
    30   25   26 1
    31   28   29 1
    32   28   30 1
    33   29   30 1
    34    3   31 1
    35   10   32 1
    36   11   33 1
    37   12   34 1
    38   14   35 1
    39   15   36 1
    40   15   37 1
    41   19   38 1
    42   20   39 1
    43   21   40 1
    44   26   41 1
    45   26   42 1
    46   26   43 1
    47   27   44 1
    48   28   45 1
    49   29   46 1
    50   30   47 1
    51   30   48 1
@<TRIPOS>PROPERTY_DATA
  Total_Score	| 12.5153
  Crash		| -1.2399
  Polar		| 8.3826
  FragIndex	| 1
  FragRMSD	| 0.453

