@<TRIPOS>MOLECULE
BindingDB_13997
 49 51 0 0 0
SMALL
NO_CHARGES


@<TRIPOS>ATOM
1    C        33.2752   30.3820   20.7860  C     
2    C        34.7695   29.4403   22.1494  C     
3    O        32.6613   29.7192   21.7947  O     
4    N        33.5330   29.1703   22.5893  N     
5    C        35.9228   29.0246   22.8368  C     
6    O        37.0098   29.8334   22.8767  O     
7    O        35.9468   27.8860   23.5591  O     
8    C        32.5122   31.1096   19.8206  C     
9    C        33.1033   32.0362   18.9245  C     
10   C        32.3164   32.8109   18.0594  C     
11   C        30.9177   32.7259   18.1068  C     
12   C        30.2868   31.8100   18.9741  C     
13   C        31.0950   30.9951   19.8070  C     
14   C        26.7166   30.6861   18.7387  C     
15   O        26.0555   29.5637   18.1089  O     
16   C        26.4011   28.2970   18.5083  C     
17   C        25.9053   27.6905   19.6946  C     
18   C        27.2259   27.5593   17.6355  C     
19   C        27.5785   26.2333   17.9376  C     
20   C        27.1035   25.6370   19.1181  C     
21   C        26.2756   26.3556   20.0010  C     
22   C        25.0528   28.4051   20.5524  C     
23   O        23.7151   28.3850   20.3272  O     
24   O        25.6025   29.2261   21.4856  O     
25   C        24.8608   30.0808   22.3628  C     
26   O        25.8434   25.6947   21.1110  O     
27   C        28.1714   30.6749   18.7149  C     
28   C        28.8991   31.7690   19.0117  C     
29   C        34.6534   30.1876   20.9726  C     
30   C        35.7429   30.5598   20.0413  C     
31   O        36.9883   29.9469   20.3476  O     
32   H        34.1083   32.1956   18.9098  H     
33   H        32.7549   33.4645   17.4100  H     
34   H        30.3651   33.3298   17.4914  H     
35   H        30.6345   30.3419   20.4484  H     
36   H        26.3604   31.5635   18.1950  H     
37   H        26.3866   30.7951   19.7736  H     
38   H        27.5752   27.9877   16.7735  H     
39   H        28.1719   25.7017   17.2953  H     
40   H        27.3536   24.6694   19.3251  H     
41   H        24.2189   30.7546   21.7913  H     
42   H        25.5514   30.6811   22.9515  H     
43   H        24.2482   29.4807   23.0373  H     
44   H        25.4584   26.3630   21.7157  H     
45   H        28.6361   29.8426   18.4313  H     
46   H        28.4210   32.6299   19.1732  H     
47   H        35.4743   30.2497   19.0310  H     
48   H        35.8880   31.6381   20.0522  H     
49   H        37.4466   29.7970   19.4922  H     
@<TRIPOS>BOND
     1    1    3 1
     2    1    8 1
     3    1   29 2
     4    2    4 2
     5    2    5 1
     6    2   29 1
     7    3    4 1
     8    5    6 2
     9    5    7 1
    10    8    9 2
    11    8   13 1
    12    9   10 1
    13   10   11 2
    14   11   12 1
    15   12   13 2
    16   12   28 1
    17   14   15 1
    18   14   27 1
    19   15   16 1
    20   16   17 1
    21   16   18 2
    22   17   21 2
    23   17   22 1
    24   18   19 1
    25   19   20 2
    26   20   21 1
    27   21   26 1
    28   22   23 2
    29   22   24 1
    30   24   25 1
    31   27   28 2
    32   29   30 1
    33   30   31 1
    34    9   32 1
    35   10   33 1
    36   11   34 1
    37   13   35 1
    38   14   36 1
    39   14   37 1
    40   18   38 1
    41   19   39 1
    42   20   40 1
    43   25   41 1
    44   25   42 1
    45   25   43 1
    46   26   44 1
    47   27   45 1
    48   28   46 1
    49   30   47 1
    50   30   48 1
    51   31   49 1
@<TRIPOS>PROPERTY_DATA
  Total_Score	| 14.5548
  Crash		| -1.4113
  Polar		| 11.4207
  FragIndex	| 1
  FragRMSD	| 0.589

