@<TRIPOS>MOLECULE
BindingDB_13991
 45 47 0 0 0
SMALL
NO_CHARGES


@<TRIPOS>ATOM
1    C        33.4168   30.4194   21.0086  C     
2    C        34.8910   29.4295   22.3427  C     
3    C        34.7721   30.3409   21.3050  C     
4    O        32.7853   29.5944   21.8812  O     
5    N        33.6553   29.0181   22.6648  N     
6    C        36.0742   29.0073   22.9485  C     
7    O        37.1818   29.7695   22.8651  O     
8    O        36.1066   27.8995   23.7198  O     
9    C        32.7573   31.1825   20.0095  C     
10   C        33.4692   31.8854   19.0050  C     
11   C        32.7832   32.5868   17.9988  C     
12   C        31.3805   32.6039   17.9871  C     
13   C        30.6450   31.9139   18.9767  C     
14   C        31.3418   31.2220   19.9864  C     
15   C        28.4632   31.4482   18.0963  C     
16   C        27.0527   31.7412   18.1509  C     
17   O        26.2743   30.5780   18.4870  O     
18   C        24.8938   30.6626   18.6134  C     
19   C        24.2537   29.6891   19.4332  C     
20   C        24.0811   31.6005   17.9179  C     
21   C        22.6808   31.5667   18.0146  C     
22   C        22.0623   30.6069   18.8270  C     
23   C        22.8388   29.6732   19.5392  C     
24   C        25.0177   28.7361   20.1473  C     
25   O        25.9438   29.1580   21.0476  O     
26   O        24.8471   27.4042   19.9097  O     
27   C        25.5823   26.3548   20.5537  C     
28   O        22.2007   28.7867   20.3502  O     
29   N        29.2840   31.9294   19.0207  N     
30   O        28.8802   30.7888   17.1484  O     
31   H        35.5358   30.8423   20.8509  H     
32   H        34.4926   31.8778   18.9801  H     
33   H        33.3015   33.0837   17.2712  H     
34   H        30.8970   33.1374   17.2654  H     
35   H        30.8068   30.7183   20.6952  H     
36   H        26.8773   32.5324   18.8908  H     
37   H        26.7466   32.1097   17.1641  H     
38   H        24.4866   32.3254   17.3252  H     
39   H        22.1168   32.2436   17.4937  H     
40   H        21.0452   30.5977   18.9004  H     
41   H        26.6544   26.4905   20.3925  H     
42   H        25.2839   25.3941   20.1284  H     
43   H        25.3758   26.3504   21.6284  H     
44   H        21.3037   28.6492   19.9566  H     
45   H        28.8732   32.3166   19.8126  H     
@<TRIPOS>BOND
     1    1    3 2
     2    1    4 1
     3    1    9 1
     4    2    3 1
     5    2    5 2
     6    2    6 1
     7    4    5 1
     8    6    7 2
     9    6    8 1
    10    9   10 2
    11    9   14 1
    12   10   11 1
    13   11   12 2
    14   12   13 1
    15   13   14 2
    16   13   29 1
    17   15   16 1
    18   15   29 am
    19   15   30 2
    20   16   17 1
    21   17   18 1
    22   18   19 1
    23   18   20 2
    24   19   23 2
    25   19   24 1
    26   20   21 1
    27   21   22 2
    28   22   23 1
    29   23   28 1
    30   24   25 2
    31   24   26 1
    32   26   27 1
    33    3   31 1
    34   10   32 1
    35   11   33 1
    36   12   34 1
    37   14   35 1
    38   16   36 1
    39   16   37 1
    40   20   38 1
    41   21   39 1
    42   22   40 1
    43   27   41 1
    44   27   42 1
    45   27   43 1
    46   28   44 1
    47   29   45 1
@<TRIPOS>PROPERTY_DATA
  Total_Score	| 11.2793
  Crash		| -1.3677
  Polar		| 8.9829
  FragIndex	| 1
  FragRMSD	| 0.695

