@<TRIPOS>MOLECULE
BindingDB_13990
 45 47 0 0 0
SMALL
NO_CHARGES


@<TRIPOS>ATOM
1    C        33.4247   30.3697   20.8170  C     
2    C        34.8523   29.4218   22.2492  C     
3    C        34.7675   30.3090   21.1847  C     
4    O        32.7727   29.5496   21.6823  O     
5    N        33.6089   28.9984   22.5211  N     
6    C        36.0131   29.0262   22.9267  C     
7    O        37.1127   29.8077   22.9071  O     
8    O        36.0309   27.9210   23.7047  O     
9    C        32.7691   31.1178   19.7932  C     
10   C        33.4536   31.8166   18.7655  C     
11   C        32.7376   32.5293   17.7875  C     
12   C        31.3353   32.5706   17.8208  C     
13   C        30.6045   31.8997   18.8316  C     
14   C        31.3511   31.1676   19.7926  C     
15   F        34.7550   31.8131   18.6532  F     
16   C        29.2021   31.9845   18.8225  C     
17   C        28.3616   31.6454   19.8198  C     
18   C        26.9183   31.7824   19.7286  C     
19   O        26.4230   30.8371   18.7541  O     
20   C        25.0571   30.7439   18.7095  C     
21   C        24.3538   29.7289   19.4196  C     
22   C        24.3657   31.6401   17.8683  C     
23   C        22.9686   31.5870   17.7692  C     
24   C        22.2539   30.6427   18.5204  C     
25   C        22.9331   29.7240   19.3471  C     
26   C        25.0555   28.7409   20.1721  C     
27   O        26.0268   29.0902   21.0476  O     
28   O        24.8635   27.4089   19.9587  O     
29   C        25.5639   26.3507   20.6262  C     
30   O        22.1918   28.8590   20.0904  O     
31   H        35.5547   30.8097   20.7697  H     
32   H        33.2359   33.0190   17.0401  H     
33   H        30.8523   33.1103   17.0966  H     
34   H        30.8509   30.6446   20.5092  H     
35   H        28.7766   32.3685   18.0025  H     
36   H        28.7233   31.2995   20.6769  H     
37   H        26.4741   31.6151   20.7252  H     
38   H        26.6726   32.7957   19.4099  H     
39   H        24.8790   32.3365   17.3254  H     
40   H        22.4714   32.2398   17.1594  H     
41   H        21.2342   30.6284   18.4640  H     
42   H        26.6423   26.4631   20.4926  H     
43   H        25.2627   25.3897   20.2049  H     
44   H        25.3326   26.3597   21.6932  H     
45   H        21.8374   29.3676   20.8524  H     
@<TRIPOS>BOND
     1    1    3 2
     2    1    4 1
     3    1    9 1
     4    2    3 1
     5    2    5 2
     6    2    6 1
     7    4    5 1
     8    6    7 2
     9    6    8 1
    10    9   10 2
    11    9   14 1
    12   10   11 1
    13   10   15 1
    14   11   12 2
    15   12   13 1
    16   13   14 2
    17   13   16 1
    18   16   17 2
    19   17   18 1
    20   18   19 1
    21   19   20 1
    22   20   21 1
    23   20   22 2
    24   21   25 2
    25   21   26 1
    26   22   23 1
    27   23   24 2
    28   24   25 1
    29   25   30 1
    30   26   27 2
    31   26   28 1
    32   28   29 1
    33    3   31 1
    34   11   32 1
    35   12   33 1
    36   14   34 1
    37   16   35 1
    38   17   36 1
    39   18   37 1
    40   18   38 1
    41   22   39 1
    42   23   40 1
    43   24   41 1
    44   29   42 1
    45   29   43 1
    46   29   44 1
    47   30   45 1
@<TRIPOS>PROPERTY_DATA
  Total_Score	| 11.7555
  Crash		| -0.8587
  Polar		| 9.0172
  FragIndex	| 1
  FragRMSD	| 0.155

