@<TRIPOS>MOLECULE
BindingDB_50133281
 20 21 0 0 0
SMALL
NO_CHARGES


@<TRIPOS>ATOM
1    C        34.8107   29.4510   22.2957  C     
2    N        33.5707   28.9988   22.5878  N     
3    C        34.6925   30.3546   21.2442  C     
4    C        33.3412   30.3817   20.9051  C     
5    O        32.7131   29.5432   21.7703  O     
6    C        35.9884   29.0373   22.9200  C     
7    C        32.6703   31.0892   19.8730  C     
8    O        37.1110   29.7846   22.8492  O     
9    C        33.3349   32.0140   19.0326  C     
10   C        31.2914   30.8529   19.6371  C     
11   O        36.0011   27.9383   23.7091  O     
12   C        31.2914   32.4168   17.7680  C     
13   C        32.6535   32.6641   17.9905  C     
14   C        30.6056   31.5079   18.5901  C     
15   Br       30.4000   33.2902   16.3870  Br    
16   H        35.4459   30.8688   20.7805  H     
17   H        34.3265   32.2197   19.1581  H     
18   H        30.7785   30.1800   20.2179  H     
19   H        33.1544   33.3158   17.3807  H     
20   H        29.6111   31.3195   18.4393  H     
@<TRIPOS>BOND
     1    1    2 2
     2    1    3 1
     3    1    6 1
     4    2    5 1
     5    3    4 2
     6    4    5 1
     7    4    7 1
     8    6    8 2
     9    6   11 1
    10    7    9 1
    11    7   10 2
    12    9   13 2
    13   10   14 1
    14   12   13 1
    15   12   14 2
    16   12   15 1
    17    3   16 1
    18    9   17 1
    19   10   18 1
    20   13   19 1
    21   14   20 1
@<TRIPOS>PROPERTY_DATA
  Total_Score	| 8.1821
  Crash		| -0.5051
  Polar		| 6.5452
  FragIndex	| 1
  FragRMSD	| 0.301

