@<TRIPOS>MOLECULE
BindingDB_50133280
 45 47 0 0 0
SMALL
NO_CHARGES


@<TRIPOS>ATOM
1    C        34.7981   29.4437   22.2238  C     
2    N        33.5566   29.0208   22.5040  N     
3    C        34.7086   30.3358   21.1630  C     
4    C        33.3631   30.3987   20.8148  C     
5    C        24.3764   29.6672   19.5658  C     
6    O        32.7137   29.5775   21.6774  O     
7    C        35.9566   29.0384   22.8958  C     
8    C        25.1475   28.7538   20.3509  C     
9    C        32.7163   31.1488   19.7958  C     
10   C        22.9537   29.6694   19.6095  C     
11   C        25.0179   30.6171   18.7161  C     
12   C        31.3037   31.1324   19.7179  C     
13   O        37.0416   29.8387   22.9147  O     
14   O        26.3964   29.0782   20.7658  O     
15   C        29.1854   31.8799   18.6812  C     
16   C        28.3638   31.6611   19.7266  C     
17   C        30.5855   31.8707   18.7423  C     
18   O        35.9627   27.9341   23.6766  O     
19   O        24.6750   27.5299   20.7173  O     
20   O        22.2610   28.8290   20.4226  O     
21   O        26.3822   30.7508   18.6536  O     
22   C        33.4260   31.9132   18.8415  C     
23   C        22.8586   31.4583   17.9506  C     
24   C        32.7404   32.6201   17.8382  C     
25   C        26.9153   31.6157   19.6821  C     
26   C        22.2092   30.5622   18.8104  C     
27   C        24.2588   31.4869   17.9068  C     
28   C        31.3357   32.5983   17.7879  C     
29   C        25.3647   26.5716   21.5293  C     
30   H        35.4862   30.8321   20.7238  H     
31   H        30.7858   30.5483   20.3764  H     
32   H        28.7680   32.1233   17.8114  H     
33   H        28.7622   31.5442   20.6294  H     
34   H        22.4109   29.1335   21.3420  H     
35   H        34.4469   31.9518   18.8529  H     
36   H        22.3136   32.1029   17.3731  H     
37   H        33.2648   33.1506   17.1405  H     
38   H        26.5844   31.2751   20.6699  H     
39   H        26.5511   32.6363   19.5368  H     
40   H        21.1868   30.5604   18.8457  H     
41   H        24.7239   32.1605   17.2959  H     
42   H        30.8650   33.1353   17.0537  H     
43   H        26.2997   26.2728   21.0523  H     
44   H        24.7416   25.6894   21.6577  H     
45   H        25.5769   26.9936   22.5128  H     
@<TRIPOS>BOND
     1    1    2 2
     2    1    3 1
     3    1    7 1
     4    2    6 1
     5    3    4 2
     6    4    6 1
     7    4    9 1
     8    5    8 1
     9    5   10 2
    10    5   11 1
    11    7   13 2
    12    7   18 1
    13    8   14 2
    14    8   19 1
    15    9   12 2
    16    9   22 1
    17   10   20 1
    18   10   26 1
    19   11   21 1
    20   11   27 2
    21   12   17 1
    22   15   16 2
    23   15   17 1
    24   16   25 1
    25   17   28 2
    26   19   29 1
    27   21   25 1
    28   22   24 2
    29   23   26 2
    30   23   27 1
    31   24   28 1
    32    3   30 1
    33   12   31 1
    34   15   32 1
    35   16   33 1
    36   20   34 1
    37   22   35 1
    38   23   36 1
    39   24   37 1
    40   25   38 1
    41   25   39 1
    42   26   40 1
    43   27   41 1
    44   28   42 1
    45   29   43 1
    46   29   44 1
    47   29   45 1
@<TRIPOS>PROPERTY_DATA
  Total_Score	| 11.2468
  Crash		| -1.1896
  Polar		| 8.7517
  FragIndex	| 1
  FragRMSD	| 0.345

