@<TRIPOS>MOLECULE
BindingDB_29226
 33 34 0 0 0
SMALL
NO_CHARGES


@<TRIPOS>ATOM
1    C        22.1403  -15.6740  -13.6517  C     
2    C        23.2137  -14.7868  -13.8940  C     
3    C        24.2543  -15.1777  -14.7537  C     
4    C        24.2682  -16.4460  -15.3635  C     
5    C        23.2397  -17.3632  -15.0210  C     
6    C        22.1863  -17.0159  -14.1183  C     
7    C        21.2188  -18.0204  -13.8050  C     
8    N        23.1933  -18.5961  -15.6024  N     
9    C        22.2022  -19.4530  -15.4080  C     
10   C        21.2328  -19.1860  -14.4952  C     
11   O        22.2144  -20.5058  -16.0277  O     
12   C        20.2728  -17.8927  -12.6917  C     
13   O        25.2336  -16.5907  -16.3417  O     
14   C        26.2921  -17.5605  -16.2841  C     
15   O        23.2138  -13.4937  -13.4302  O     
16   C        22.6312  -13.3326  -12.1239  C     
17   O        21.0253  -15.1637  -13.0426  O     
18   C        19.9743  -14.8960  -13.9881  C     
19   H        24.9844  -14.4990  -14.9857  H     
20   H        23.9078  -18.8535  -16.1912  H     
21   H        20.5568  -19.8928  -14.3087  H     
22   H        20.7819  -17.5056  -11.8081  H     
23   H        19.8184  -18.8411  -12.4026  H     
24   H        19.4606  -17.2216  -12.9603  H     
25   H        26.6257  -17.7390  -15.2598  H     
26   H        27.1368  -17.1745  -16.8569  H     
27   H        25.9776  -18.5005  -16.7546  H     
28   H        21.5455  -13.4302  -12.1641  H     
29   H        22.8618  -12.3313  -11.7614  H     
30   H        23.0299  -14.0572  -11.4132  H     
31   H        20.2635  -14.1148  -14.6916  H     
32   H        19.1043  -14.5593  -13.4306  H     
33   H        19.6825  -15.7876  -14.5456  H     
@<TRIPOS>BOND
     1    1    2 1
     2    1    6 2
     3    1   17 1
     4    2    3 2
     5    2   15 1
     6    3    4 1
     7    4    5 2
     8    4   13 1
     9    5    6 1
    10    5    8 1
    11    6    7 1
    12    7   10 2
    13    7   12 1
    14    8    9 1
    15    9   10 1
    16    9   11 2
    17   13   14 1
    18   15   16 1
    19   17   18 1
    20    3   19 1
    21    8   20 1
    22   10   21 1
    23   12   22 1
    24   12   23 1
    25   12   24 1
    26   14   25 1
    27   14   26 1
    28   14   27 1
    29   16   28 1
    30   16   29 1
    31   16   30 1
    32   18   31 1
    33   18   32 1
    34   18   33 1
@<TRIPOS>PROPERTY_DATA
  Total_Score	| 2.4482
  Crash		| -1.6676
  Polar		| 1.1655
  FragIndex	| 1
  FragRMSD	| 0.248

