@<TRIPOS>MOLECULE
BindingDB_29221
 32 33 0 0 0
SMALL
NO_CHARGES


@<TRIPOS>ATOM
1    C        22.1303  -15.6742  -13.0032  C     
2    C        23.1781  -14.7446  -13.1378  C     
3    C        24.2828  -15.0720  -13.9189  C     
4    C        24.3404  -16.2889  -14.6314  C     
5    C        23.2762  -17.2477  -14.5243  C     
6    C        22.1606  -16.9307  -13.6689  C     
7    C        21.1294  -17.8884  -13.4812  C     
8    N        23.2441  -18.4971  -15.2064  N     
9    C        22.2212  -19.3544  -15.0059  C     
10   C        21.2090  -19.0612  -14.1502  C     
11   O        22.1489  -20.4489  -15.5580  O     
12   C        19.9929  -17.6588  -12.5746  C     
13   O        25.4954  -16.5596  -15.3210  O     
14   C        25.8791  -15.6645  -16.3964  C     
15   O        23.2083  -13.5730  -12.4233  O     
16   C        22.0754  -12.7077  -12.6521  C     
17   C        24.2827  -18.8741  -16.1550  C     
18   H        21.3583  -15.4146  -12.3869  H     
19   H        25.0698  -14.4262  -13.9321  H     
20   H        20.5117  -19.7536  -14.0014  H     
21   H        20.3513  -17.4032  -11.5755  H     
22   H        19.3464  -18.5318  -12.4726  H     
23   H        19.3776  -16.8297  -12.9481  H     
24   H        25.0216  -15.3923  -17.0315  H     
25   H        26.6152  -16.1700  -17.0180  H     
26   H        26.3452  -14.7665  -15.9833  H     
27   H        21.9563  -12.4737  -13.7142  H     
28   H        22.2482  -11.7734  -12.1286  H     
29   H        21.1553  -13.1566  -12.2709  H     
30   H        24.3422  -18.1194  -16.9421  H     
31   H        24.1345  -19.8280  -16.6697  H     
32   H        25.2393  -18.9680  -15.6425  H     
@<TRIPOS>BOND
     1    1    2 1
     2    1    6 2
     3    2    3 2
     4    2   15 1
     5    3    4 1
     6    4    5 2
     7    4   13 1
     8    5    6 1
     9    5    8 1
    10    6    7 1
    11    7   10 2
    12    7   12 1
    13    8    9 1
    14    8   17 1
    15    9   10 1
    16    9   11 2
    17   13   14 1
    18   15   16 1
    19    1   18 1
    20    3   19 1
    21   10   20 1
    22   12   21 1
    23   12   22 1
    24   12   23 1
    25   14   24 1
    26   14   25 1
    27   14   26 1
    28   16   27 1
    29   16   28 1
    30   16   29 1
    31   17   30 1
    32   17   31 1
    33   17   32 1
@<TRIPOS>PROPERTY_DATA
  Total_Score	| 3.7385
  Crash		| -0.5050
  Polar		| 1.1649
  FragIndex	| 1
  FragRMSD	| 0.761

