@<TRIPOS>MOLECULE
BindingDB_29220
 29 30 0 0 0
SMALL
NO_CHARGES


@<TRIPOS>ATOM
1    C        22.1835  -15.6318  -13.3785  C     
2    C        23.1729  -14.6932  -13.7569  C     
3    C        24.1051  -15.0329  -14.7577  C     
4    C        24.0673  -16.2932  -15.3889  C     
5    C        23.0779  -17.2260  -14.9970  C     
6    C        22.1228  -16.9211  -13.9827  C     
7    C        21.1452  -17.9130  -13.6725  C     
8    N        23.0208  -18.4475  -15.6168  N     
9    C        22.0864  -19.3385  -15.3173  C     
10   C        21.1571  -19.0825  -14.3570  C     
11   O        22.0887  -20.3886  -15.9403  O     
12   C        20.1134  -17.6930  -12.6578  C     
13   O        24.8782  -16.5917  -16.4656  O     
14   C        26.0387  -17.4165  -16.2512  C     
15   O        23.2700  -13.3932  -13.3000  O     
16   C        22.5496  -13.0185  -12.1200  C     
17   H        21.4992  -15.3570  -12.6666  H     
18   H        24.8112  -14.3498  -15.0432  H     
19   H        23.6820  -18.6565  -16.2978  H     
20   H        20.4749  -19.7825  -14.1811  H     
21   H        20.5738  -17.4274  -11.7069  H     
22   H        19.4829  -18.5649  -12.4727  H     
23   H        19.4583  -16.8796  -12.9699  H     
24   H        26.7943  -16.8825  -15.6627  H     
25   H        26.4709  -17.6601  -17.2260  H     
26   H        25.7826  -18.3526  -15.7466  H     
27   H        21.4740  -13.0287  -12.3078  H     
28   H        22.8523  -11.9990  -11.8620  H     
29   H        22.7865  -13.6770  -11.2823  H     
@<TRIPOS>BOND
     1    1    2 1
     2    1    6 2
     3    2    3 2
     4    2   15 1
     5    3    4 1
     6    4    5 2
     7    4   13 1
     8    5    6 1
     9    5    8 1
    10    6    7 1
    11    7   10 2
    12    7   12 1
    13    8    9 1
    14    9   10 1
    15    9   11 2
    16   13   14 1
    17   15   16 1
    18    1   17 1
    19    3   18 1
    20    8   19 1
    21   10   20 1
    22   12   21 1
    23   12   22 1
    24   12   23 1
    25   14   24 1
    26   14   25 1
    27   14   26 1
    28   16   27 1
    29   16   28 1
    30   16   29 1
@<TRIPOS>PROPERTY_DATA
  Total_Score	| 3.4762
  Crash		| -0.4027
  Polar		| 1.1494
  FragIndex	| 1
  FragRMSD	| 0.111

