@<TRIPOS>MOLECULE
BindingDB_29212
 24 26 0 0 0
SMALL
NO_CHARGES


@<TRIPOS>ATOM
1    C        22.4709  -15.6863  -13.2715  C     
2    C        23.5587  -14.8571  -13.6176  C     
3    C        24.4381  -15.2699  -14.6302  C     
4    C        24.2426  -16.4675  -15.2971  C     
5    C        23.1617  -17.3011  -14.9684  C     
6    C        22.2460  -16.9239  -13.9388  C     
7    C        21.1724  -17.8131  -13.6595  C     
8    N        22.9818  -18.4816  -15.6265  N     
9    C        21.9782  -19.2968  -15.3346  C     
10   C        21.0733  -18.9718  -14.3600  C     
11   O        21.8907  -20.3389  -15.9647  O     
12   O        25.5260  -14.6221  -15.0828  O     
13   C        26.1205  -15.6210  -15.9347  C     
14   O        25.1924  -16.6828  -16.2271  O     
15   C        20.1806  -17.4979  -12.6293  C     
16   H        21.8528  -15.3731  -12.5201  H     
17   H        23.7158  -13.9730  -13.1294  H     
18   H        23.6072  -18.7343  -16.3257  H     
19   H        20.3287  -19.6067  -14.1826  H     
20   H        26.4436  -15.1571  -16.8697  H     
21   H        27.0009  -16.0417  -15.4375  H     
22   H        20.6777  -17.3907  -11.6636  H     
23   H        19.4106  -18.2642  -12.5204  H     
24   H        19.6778  -16.5606  -12.8743  H     
@<TRIPOS>BOND
     1    1    2 1
     2    1    6 2
     3    2    3 2
     4    3    4 1
     5    3   12 1
     6    4    5 2
     7    4   14 1
     8    5    6 1
     9    5    8 1
    10    6    7 1
    11    7   10 2
    12    7   15 1
    13    8    9 1
    14    9   10 1
    15    9   11 2
    16   12   13 1
    17   13   14 1
    18    1   16 1
    19    2   17 1
    20    8   18 1
    21   10   19 1
    22   13   20 1
    23   13   21 1
    24   15   22 1
    25   15   23 1
    26   15   24 1
@<TRIPOS>PROPERTY_DATA
  Total_Score	| 1.8079
  Crash		| -0.1137
  Polar		| 1.0352
  FragIndex	| 1
  FragRMSD	| 0.513

