@<TRIPOS>MOLECULE
BindingDB_29227
 36 37 0 0 0
SMALL
NO_CHARGES


@<TRIPOS>ATOM
1    C        22.2001  -15.6905  -13.4968  C     
2    C        23.2030  -14.7488  -13.8128  C     
3    C        24.2368  -15.1209  -14.6751  C     
4    C        24.3319  -16.4285  -15.1841  C     
5    C        23.3468  -17.4075  -14.8466  C     
6    C        22.2582  -17.0312  -13.9828  C     
7    C        21.2273  -17.9925  -13.7579  C     
8    N        23.3453  -18.7118  -15.3855  N     
9    C        22.2055  -19.4276  -15.3617  C     
10   C        21.1686  -19.0763  -14.5613  C     
11   O        22.0847  -20.4834  -15.9741  O     
12   C        20.2103  -17.9294  -12.6975  C     
13   O        25.2896  -16.6553  -16.1433  O     
14   C        26.6569  -16.7411  -15.6942  C     
15   O        23.1513  -13.4221  -13.4538  O     
16   C        22.6014  -13.1139  -12.1628  C     
17   O        21.1635  -15.2226  -12.7442  O     
18   C        20.0148  -14.7786  -13.4826  C     
19   C        24.5562  -19.3473  -15.8778  C     
20   H        24.9129  -14.4110  -14.9670  H     
21   H        20.3994  -19.7086  -14.4819  H     
22   H        20.5306  -17.3352  -11.8420  H     
23   H        20.0116  -18.9231  -12.2850  H     
24   H        19.2666  -17.5461  -13.1002  H     
25   H        27.0355  -15.7569  -15.4138  H     
26   H        27.2620  -17.1113  -16.5220  H     
27   H        26.7704  -17.4256  -14.8504  H     
28   H        22.8166  -13.8890  -11.4235  H     
29   H        21.5253  -12.9785  -12.2317  H     
30   H        23.0356  -12.1737  -11.8265  H     
31   H        20.0979  -14.8488  -14.5749  H     
32   H        19.8111  -13.7422  -13.2132  H     
33   H        19.1786  -15.3861  -13.1546  H     
34   H        24.7979  -18.9765  -16.8735  H     
35   H        24.4943  -20.4359  -15.9492  H     
36   H        25.3848  -19.1479  -15.1988  H     
@<TRIPOS>BOND
     1    1    2 1
     2    1    6 2
     3    1   17 1
     4    2    3 2
     5    2   15 1
     6    3    4 1
     7    4    5 2
     8    4   13 1
     9    5    6 1
    10    5    8 1
    11    6    7 1
    12    7   10 2
    13    7   12 1
    14    8    9 1
    15    8   19 1
    16    9   10 1
    17    9   11 2
    18   13   14 1
    19   15   16 1
    20   17   18 1
    21    3   20 1
    22   10   21 1
    23   12   22 1
    24   12   23 1
    25   12   24 1
    26   14   25 1
    27   14   26 1
    28   14   27 1
    29   16   28 1
    30   16   29 1
    31   16   30 1
    32   18   31 1
    33   18   32 1
    34   18   33 1
    35   19   34 1
    36   19   35 1
    37   19   36 1
@<TRIPOS>PROPERTY_DATA
  Total_Score	| 3.5169
  Crash		| -1.0695
  Polar		| 1.0916
  FragIndex	| 1
  FragRMSD	| 0.325

