@<TRIPOS>MOLECULE
BindingDB_29219
 32 33 0 0 0
SMALL
NO_CHARGES


@<TRIPOS>ATOM
1    C        22.2379  -15.6572  -13.0911  C     
2    C        23.2444  -14.7199  -13.3400  C     
3    C        24.1615  -14.9276  -14.3823  C     
4    C        24.1372  -16.1507  -15.1191  C     
5    C        23.1998  -17.1837  -14.7835  C     
6    C        22.1924  -16.8891  -13.7904  C     
7    C        21.1448  -17.8258  -13.5638  C     
8    N        23.2026  -18.4865  -15.3545  N     
9    C        22.1613  -19.3165  -15.1228  C     
10   C        21.1703  -18.9963  -14.2535  C     
11   O        22.0741  -20.4239  -15.6576  O     
12   C        20.0271  -17.5647  -12.6384  C     
13   O        24.9041  -16.2958  -16.2575  O     
14   C        26.3329  -16.4683  -16.1864  C     
15   O        25.1624  -13.9906  -14.6327  O     
16   C        24.9821  -13.2273  -15.8590  C     
17   C        24.3486  -19.0052  -16.0906  C     
18   H        21.5718  -15.4279  -12.3523  H     
19   H        23.2741  -13.8688  -12.7714  H     
20   H        20.4240  -19.6472  -14.1421  H     
21   H        20.4137  -17.3047  -11.6493  H     
22   H        19.3452  -18.4159  -12.5174  H     
23   H        19.4492  -16.7170  -13.0130  H     
24   H        26.7973  -15.4700  -16.1357  H     
25   H        26.6914  -16.9541  -17.0878  H     
26   H        26.6314  -17.0652  -15.3280  H     
27   H        24.7598  -13.8583  -16.7389  H     
28   H        25.9166  -12.6912  -16.0431  H     
29   H        24.2060  -12.4692  -15.7499  H     
30   H        24.4106  -18.5099  -17.0625  H     
31   H        24.3174  -20.0775  -16.2829  H     
32   H        25.2565  -18.8263  -15.5041  H     
@<TRIPOS>BOND
     1    1    2 1
     2    1    6 2
     3    2    3 2
     4    3    4 1
     5    3   15 1
     6    4    5 2
     7    4   13 1
     8    5    6 1
     9    5    8 1
    10    6    7 1
    11    7   10 2
    12    7   12 1
    13    8    9 1
    14    8   17 1
    15    9   10 1
    16    9   11 2
    17   13   14 1
    18   15   16 1
    19    1   18 1
    20    2   19 1
    21   10   20 1
    22   12   21 1
    23   12   22 1
    24   12   23 1
    25   14   24 1
    26   14   25 1
    27   14   26 1
    28   16   27 1
    29   16   28 1
    30   16   29 1
    31   17   30 1
    32   17   31 1
    33   17   32 1
@<TRIPOS>PROPERTY_DATA
  Total_Score	| 1.9872
  Crash		| -0.3552
  Polar		| 1.1292
  FragIndex	| 1
  FragRMSD	| 0.414

