@<TRIPOS>MOLECULE
BindingDB_29225
 36 37 0 0 0
SMALL
NO_CHARGES


@<TRIPOS>ATOM
1    C        22.0808  -15.5915  -13.0475  C     
2    C        23.0989  -14.6490  -13.2174  C     
3    C        24.2001  -14.9553  -14.0324  C     
4    C        24.2857  -16.2324  -14.6544  C     
5    C        23.2246  -17.1969  -14.5345  C     
6    C        22.1171  -16.8644  -13.6795  C     
7    C        21.0896  -17.8160  -13.4391  C     
8    N        23.1958  -18.4869  -15.1387  N     
9    C        22.1948  -19.3432  -14.8566  C     
10   C        21.1869  -19.0382  -14.0210  C     
11   O        22.1048  -20.4581  -15.3756  O     
12   C        19.9504  -17.5583  -12.5497  C     
13   O        25.5050  -16.5942  -15.1647  O     
14   C        25.9687  -15.9514  -16.3895  C     
15   O        25.2810  -14.1175  -14.0801  O     
16   O        23.0989  -13.4720  -12.4984  O     
17   C        22.0248  -12.5629  -12.8055  C     
18   C        25.1420  -12.9269  -14.8918  C     
19   C        24.1720  -18.8729  -16.1404  C     
20   H        21.3129  -15.3315  -12.4072  H     
21   H        20.4950  -19.7181  -13.8215  H     
22   H        20.3143  -17.3246  -11.5440  H     
23   H        19.2625  -18.4019  -12.4519  H     
24   H        19.3725  -16.7071  -12.9265  H     
25   H        25.2059  -16.0028  -17.1879  H     
26   H        26.8810  -16.4897  -16.7281  H     
27   H        26.2369  -14.8991  -16.1834  H     
28   H        21.9821  -12.3427  -13.8767  H     
29   H        22.2073  -11.6224  -12.2692  H     
30   H        21.0696  -12.9825  -12.4792  H     
31   H        24.7842  -13.1673  -15.8970  H     
32   H        26.1371  -12.4727  -14.9818  H     
33   H        24.4791  -12.1984  -14.4181  H     
34   H        24.1703  -18.1288  -16.9431  H     
35   H        23.9788  -19.8386  -16.6216  H     
36   H        25.1712  -18.9552  -15.6997  H     
@<TRIPOS>BOND
     1    1    2 1
     2    1    6 2
     3    2    3 2
     4    2   16 1
     5    3    4 1
     6    3   15 1
     7    4    5 2
     8    4   13 1
     9    5    6 1
    10    5    8 1
    11    6    7 1
    12    7   10 2
    13    7   12 1
    14    8    9 1
    15    8   19 1
    16    9   10 1
    17    9   11 2
    18   13   14 1
    19   15   18 1
    20   16   17 1
    21    1   20 1
    22   10   21 1
    23   12   22 1
    24   12   23 1
    25   12   24 1
    26   14   25 1
    27   14   26 1
    28   14   27 1
    29   17   28 1
    30   17   29 1
    31   17   30 1
    32   18   31 1
    33   18   32 1
    34   18   33 1
    35   19   34 1
    36   19   35 1
    37   19   36 1
@<TRIPOS>PROPERTY_DATA
  Total_Score	| 3.0462
  Crash		| -0.6711
  Polar		| 1.1309
  FragIndex	| 1
  FragRMSD	| 0.835

