@<TRIPOS>MOLECULE
BindingDB_29213
 27 29 0 0 0
SMALL
NO_CHARGES


@<TRIPOS>ATOM
1    C        22.1584  -15.5642  -13.2242  C     
2    C        23.1373  -14.6031  -13.5304  C     
3    C        24.1189  -14.9204  -14.4694  C     
4    C        24.1549  -16.1682  -15.0739  C     
5    C        23.2036  -17.1819  -14.7637  C     
6    C        22.1649  -16.8515  -13.8350  C     
7    C        21.1759  -17.8273  -13.5516  C     
8    N        23.2240  -18.4750  -15.3232  N     
9    C        22.2216  -19.3386  -15.0461  C     
10   C        21.2289  -19.0217  -14.1719  C     
11   O        22.1447  -20.4523  -15.5626  O     
12   O        25.1080  -14.1070  -14.8831  O     
13   C        25.6352  -14.8468  -15.9928  C     
14   O        25.1964  -16.2094  -15.9396  O     
15   C        20.0839  -17.5774  -12.6008  C     
16   C        24.3231  -18.9000  -16.1787  C     
17   H        21.4495  -15.3012  -12.5428  H     
18   H        23.1298  -13.6880  -13.0789  H     
19   H        20.5323  -19.7107  -13.9774  H     
20   H        25.2952  -14.3847  -16.9251  H     
21   H        26.7272  -14.8172  -15.9706  H     
22   H        20.4999  -17.2942  -11.6330  H     
23   H        19.4437  -18.4451  -12.4295  H     
24   H        19.4470  -16.7695  -12.9749  H     
25   H        24.3384  -18.2866  -17.0801  H     
26   H        24.2858  -19.9402  -16.5126  H     
27   H        25.2714  -18.7860  -15.6406  H     
@<TRIPOS>BOND
     1    1    2 1
     2    1    6 2
     3    2    3 2
     4    3    4 1
     5    3   12 1
     6    4    5 2
     7    4   14 1
     8    5    6 1
     9    5    8 1
    10    6    7 1
    11    7   10 2
    12    7   15 1
    13    8    9 1
    14    8   16 1
    15    9   10 1
    16    9   11 2
    17   12   13 1
    18   13   14 1
    19    1   17 1
    20    2   18 1
    21   10   19 1
    22   13   20 1
    23   13   21 1
    24   15   22 1
    25   15   23 1
    26   15   24 1
    27   16   25 1
    28   16   26 1
    29   16   27 1
@<TRIPOS>PROPERTY_DATA
  Total_Score	| 2.4089
  Crash		| -0.2770
  Polar		| 1.1563
  FragIndex	| 1
  FragRMSD	| 0.340

