@<TRIPOS>MOLECULE
BindingDB_29218
 29 30 0 0 0
SMALL
NO_CHARGES


@<TRIPOS>ATOM
1    C        22.0495  -15.6052  -13.3851  C     
2    C        22.9404  -14.6102  -13.8220  C     
3    C        23.8394  -14.8655  -14.8750  C     
4    C        23.8509  -16.1340  -15.4932  C     
5    C        22.9379  -17.1258  -15.0663  C     
6    C        22.0188  -16.8803  -14.0035  C     
7    C        21.1175  -17.9219  -13.6491  C     
8    N        22.9101  -18.3454  -15.6880  N     
9    C        22.0674  -19.3044  -15.3272  C     
10   C        21.1731  -19.1013  -14.3170  C     
11   O        22.1113  -20.3701  -15.9237  O     
12   C        20.1139  -17.7373  -12.5990  C     
13   O        24.6690  -16.3596  -16.5687  O     
14   C        25.9305  -16.9608  -16.2353  C     
15   O        24.6200  -13.8443  -15.3457  O     
16   C        25.8303  -13.5926  -14.6107  C     
17   H        21.4113  -15.3722  -12.6214  H     
18   H        22.9222  -13.6877  -13.3804  H     
19   H        23.5285  -18.5166  -16.4168  H     
20   H        20.5448  -19.8396  -14.0890  H     
21   H        20.6033  -17.4647  -11.6629  H     
22   H        19.5158  -18.6313  -12.4053  H     
23   H        19.4269  -16.9380  -12.8843  H     
24   H        26.5332  -16.2915  -15.6220  H     
25   H        26.4704  -17.1491  -17.1634  H     
26   H        25.8029  -17.9126  -15.7177  H     
27   H        25.8568  -14.0522  -13.6181  H     
28   H        25.9365  -12.5154  -14.4923  H     
29   H        26.6839  -13.9489  -15.1841  H     
@<TRIPOS>BOND
     1    1    2 1
     2    1    6 2
     3    2    3 2
     4    3    4 1
     5    3   15 1
     6    4    5 2
     7    4   13 1
     8    5    6 1
     9    5    8 1
    10    6    7 1
    11    7   10 2
    12    7   12 1
    13    8    9 1
    14    9   10 1
    15    9   11 2
    16   13   14 1
    17   15   16 1
    18    1   17 1
    19    2   18 1
    20    8   19 1
    21   10   20 1
    22   12   21 1
    23   12   22 1
    24   12   23 1
    25   14   24 1
    26   14   25 1
    27   14   26 1
    28   16   27 1
    29   16   28 1
    30   16   29 1
@<TRIPOS>PROPERTY_DATA
  Total_Score	| 1.8944
  Crash		| -0.3347
  Polar		| 1.1564
  FragIndex	| 1
  FragRMSD	| 0.574

