@<TRIPOS>MOLECULE
BindingDB_29228
 37 38 0 0 0
SMALL
NO_CHARGES


@<TRIPOS>ATOM
1    C        22.1421  -15.6430  -13.6821  C     
2    C        23.1791  -14.7322  -14.0091  C     
3    C        24.1834  -15.1131  -14.9231  C     
4    C        24.1632  -16.4036  -15.4898  C     
5    C        23.1548  -17.3178  -15.1100  C     
6    C        22.1592  -16.9859  -14.1438  C     
7    C        21.2278  -18.0068  -13.7732  C     
8    N        23.0817  -18.5303  -15.7356  N     
9    C        22.1461  -19.4198  -15.4442  C     
10   C        21.2399  -19.1798  -14.4549  C     
11   O        22.1410  -20.4682  -16.0701  O     
12   C        20.3368  -17.8928  -12.6069  C     
13   O        25.0477  -16.7045  -16.4947  O     
14   C        26.1511  -17.5328  -16.0890  C     
15   O        23.1541  -13.4210  -13.5927  O     
16   C        22.6786  -13.1899  -12.2528  C     
17   O        21.0565  -15.1331  -13.0340  O     
18   C        20.0177  -14.7546  -13.9569  C     
19   O        25.0626  -14.1856  -15.4218  O     
20   C        26.2562  -13.9971  -14.6459  C     
21   H        23.7172  -18.7373  -16.4398  H     
22   H        20.5971  -19.9047  -14.2233  H     
23   H        20.8756  -17.4541  -11.7642  H     
24   H        19.9613  -18.8607  -12.2641  H     
25   H        19.4634  -17.2781  -12.8370  H     
26   H        26.7424  -17.0615  -15.3029  H     
27   H        26.7959  -17.6824  -16.9550  H     
28   H        25.8135  -18.5125  -15.7449  H     
29   H        21.5896  -13.1343  -12.2326  H     
30   H        23.0693  -12.2314  -11.9111  H     
31   H        23.0083  -13.9652  -11.5585  H     
32   H        19.4564  -15.6297  -14.2908  H     
33   H        20.3772  -14.2020  -14.8305  H     
34   H        19.3544  -14.0957  -13.4186  H     
35   H        26.0315  -13.5631  -13.6719  H     
36   H        26.9037  -13.3041  -15.1833  H     
37   H        26.8016  -14.9315  -14.5038  H     
@<TRIPOS>BOND
     1    1    2 1
     2    1    6 2
     3    1   17 1
     4    2    3 2
     5    2   15 1
     6    3    4 1
     7    3   19 1
     8    4    5 2
     9    4   13 1
    10    5    6 1
    11    5    8 1
    12    6    7 1
    13    7   10 2
    14    7   12 1
    15    8    9 1
    16    9   10 1
    17    9   11 2
    18   13   14 1
    19   15   16 1
    20   17   18 1
    21   19   20 1
    22    8   21 1
    23   10   22 1
    24   12   23 1
    25   12   24 1
    26   12   25 1
    27   14   26 1
    28   14   27 1
    29   14   28 1
    30   16   29 1
    31   16   30 1
    32   16   31 1
    33   18   32 1
    34   18   33 1
    35   18   34 1
    36   20   35 1
    37   20   36 1
    38   20   37 1
@<TRIPOS>PROPERTY_DATA
  Total_Score	| 2.5280
  Crash		| -1.5877
  Polar		| 1.1471
  FragIndex	| 1
  FragRMSD	| 0.592

