@<TRIPOS>MOLECULE
BindingDB_29216
 25 26 0 0 0
SMALL
NO_CHARGES


@<TRIPOS>ATOM
1    C        22.3254  -15.7203  -13.1401  C     
2    C        23.3418  -14.8048  -13.4668  C     
3    C        24.2072  -15.0672  -14.5354  C     
4    C        24.1153  -16.2694  -15.2620  C     
5    C        23.1226  -17.2247  -14.8975  C     
6    C        22.1899  -16.9483  -13.8526  C     
7    C        21.1392  -17.8859  -13.6255  C     
8    N        23.0374  -18.4264  -15.5431  N     
9    C        22.0678  -19.2998  -15.2896  C     
10   C        21.1032  -19.0230  -14.3647  C     
11   O        22.0991  -20.3831  -15.8526  O     
12   C        20.0649  -17.6205  -12.6607  C     
13   O        24.8829  -16.3216  -16.4029  O     
14   C        25.9974  -17.2117  -16.4639  C     
15   H        21.6933  -15.4814  -12.3759  H     
16   H        23.4224  -13.9204  -12.9638  H     
17   H        24.8941  -14.3578  -14.8056  H     
18   H        23.7778  -18.7285  -16.0605  H     
19   H        20.3871  -19.6998  -14.2183  H     
20   H        20.4803  -17.4448  -11.6743  H     
21   H        19.3563  -18.4460  -12.5699  H     
22   H        19.5098  -16.7270  -12.9522  H     
23   H        26.5636  -17.2366  -15.5222  H     
24   H        26.6830  -16.8860  -17.2564  H     
25   H        25.6486  -18.2080  -16.7562  H     
@<TRIPOS>BOND
     1    1    2 1
     2    1    6 2
     3    2    3 2
     4    3    4 1
     5    4    5 2
     6    4   13 1
     7    5    6 1
     8    5    8 1
     9    6    7 1
    10    7   10 2
    11    7   12 1
    12    8    9 1
    13    9   10 1
    14    9   11 2
    15   13   14 1
    16    1   15 1
    17    2   16 1
    18    3   17 1
    19    8   18 1
    20   10   19 1
    21   12   20 1
    22   12   21 1
    23   12   22 1
    24   14   23 1
    25   14   24 1
    26   14   25 1
@<TRIPOS>PROPERTY_DATA
  Total_Score	| 2.0760
  Crash		| -0.2487
  Polar		| 1.1577
  FragIndex	| 1
  FragRMSD	| 0.266

