@<TRIPOS>MOLECULE
BindingDB_29224
 33 34 0 0 0
SMALL
NO_CHARGES


@<TRIPOS>ATOM
1    C        22.1825  -15.5613  -13.4469  C     
2    C        23.1583  -14.6260  -13.8563  C     
3    C        24.0602  -14.9693  -14.8864  C     
4    C        23.9908  -16.2341  -15.5059  C     
5    C        22.9995  -17.1552  -15.1012  C     
6    C        22.0947  -16.8536  -14.0423  C     
7    C        21.1548  -17.8538  -13.6639  C     
8    N        22.8862  -18.3571  -15.7427  N     
9    C        22.0097  -19.2781  -15.3645  C     
10   C        21.1540  -19.0380  -14.3276  C     
11   O        21.9917  -20.3431  -15.9640  O     
12   C        20.2131  -17.6407  -12.5578  C     
13   O        24.8016  -16.5010  -16.5795  O     
14   C        25.8980  -17.3957  -16.3190  C     
15   O        24.9268  -14.0296  -15.3899  O     
16   O        23.2554  -13.3468  -13.3566  O     
17   C        22.5238  -13.0466  -12.1649  C     
18   C        26.1858  -13.9488  -14.7062  C     
19   H        21.5116  -15.2685  -12.7321  H     
20   H        23.4652  -18.5388  -16.5006  H     
21   H        20.5147  -19.7558  -14.0659  H     
22   H        20.7649  -17.4064  -11.6462  H     
23   H        19.5871  -18.5107  -12.3440  H     
24   H        19.5448  -16.8074  -12.7858  H     
25   H        26.5741  -16.9894  -15.5635  H     
26   H        26.4519  -17.5203  -17.2490  H     
27   H        25.5561  -18.3823  -16.0016  H     
28   H        21.4612  -13.1283  -12.3480  H     
29   H        22.7345  -12.0045  -11.8628  H     
30   H        22.8117  -13.6913  -11.3401  H     
31   H        26.0579  -13.6873  -13.6550  H     
32   H        26.7805  -13.1653  -15.1743  H     
33   H        26.7406  -14.8863  -14.7805  H     
@<TRIPOS>BOND
     1    1    2 1
     2    1    6 2
     3    2    3 2
     4    2   16 1
     5    3    4 1
     6    3   15 1
     7    4    5 2
     8    4   13 1
     9    5    6 1
    10    5    8 1
    11    6    7 1
    12    7   10 2
    13    7   12 1
    14    8    9 1
    15    9   10 1
    16    9   11 2
    17   13   14 1
    18   15   18 1
    19   16   17 1
    20    1   19 1
    21    8   20 1
    22   10   21 1
    23   12   22 1
    24   12   23 1
    25   12   24 1
    26   14   25 1
    27   14   26 1
    28   14   27 1
    29   17   28 1
    30   17   29 1
    31   17   30 1
    32   18   31 1
    33   18   32 1
    34   18   33 1
@<TRIPOS>PROPERTY_DATA
  Total_Score	| 3.1401
  Crash		| -0.6491
  Polar		| 1.1138
  FragIndex	| 1
  FragRMSD	| 0.560

