@<TRIPOS>MOLECULE
BindingDB_29229
 40 41 0 0 0
SMALL
NO_CHARGES


@<TRIPOS>ATOM
1    C        22.0137  -15.6186  -13.8029  C     
2    C        23.0630  -14.6830  -13.8683  C     
3    C        24.2786  -15.0843  -14.4681  C     
4    C        24.4465  -16.4192  -14.9351  C     
5    C        23.4041  -17.3924  -14.8086  C     
6    C        22.2141  -16.9864  -14.1206  C     
7    C        21.2517  -17.9704  -13.7876  C     
8    N        23.4373  -18.7084  -15.3397  N     
9    C        22.3724  -19.5208  -15.1628  C     
10   C        21.3395  -19.1860  -14.3539  C     
11   O        22.2718  -20.6141  -15.7098  O     
12   C        20.2608  -17.7745  -12.7209  C     
13   O        25.7041  -16.7850  -15.3631  O     
14   C        26.3138  -16.0260  -16.4207  C     
15   O        22.9106  -13.3652  -13.5018  O     
16   C        22.4260  -13.0525  -12.1805  C     
17   O        20.7549  -15.1504  -13.5702  O     
18   C        19.9343  -15.2123  -14.7577  C     
19   O        25.3201  -14.1906  -14.5635  O     
20   C        25.1742  -13.1648  -15.5683  C     
21   C        24.5503  -19.2048  -16.1344  C     
22   H        20.6687  -19.8863  -14.1295  H     
23   H        20.6953  -17.2106  -11.8930  H     
24   H        19.8843  -18.7091  -12.2954  H     
25   H        19.3964  -17.2244  -13.0959  H     
26   H        25.5816  -15.7251  -17.1760  H     
27   H        27.0662  -16.6567  -16.9015  H     
28   H        26.8304  -15.1466  -16.0226  H     
29   H        21.3344  -13.0037  -12.1877  H     
30   H        22.8038  -12.0722  -11.8980  H     
31   H        22.7701  -13.7701  -11.4290  H     
32   H        20.3755  -14.6104  -15.5552  H     
33   H        18.9532  -14.8012  -14.5124  H     
34   H        19.7855  -16.2501  -15.1077  H     
35   H        24.9104  -13.5972  -16.5412  H     
36   H        26.1334  -12.6638  -15.6768  H     
37   H        24.4280  -12.4107  -15.2797  H     
38   H        24.6959  -18.5474  -16.9931  H     
39   H        24.4241  -20.2147  -16.5322  H     
40   H        25.4583  -19.2377  -15.5310  H     
@<TRIPOS>BOND
     1    1    2 1
     2    1    6 2
     3    1   17 1
     4    2    3 2
     5    2   15 1
     6    3    4 1
     7    3   19 1
     8    4    5 2
     9    4   13 1
    10    5    6 1
    11    5    8 1
    12    6    7 1
    13    7   10 2
    14    7   12 1
    15    8    9 1
    16    8   21 1
    17    9   10 1
    18    9   11 2
    19   13   14 1
    20   15   16 1
    21   17   18 1
    22   19   20 1
    23   10   22 1
    24   12   23 1
    25   12   24 1
    26   12   25 1
    27   14   26 1
    28   14   27 1
    29   14   28 1
    30   16   29 1
    31   16   30 1
    32   16   31 1
    33   18   32 1
    34   18   33 1
    35   18   34 1
    36   20   35 1
    37   20   36 1
    38   20   37 1
    39   21   38 1
    40   21   39 1
    41   21   40 1
@<TRIPOS>PROPERTY_DATA
  Total_Score	| 3.1283
  Crash		| -0.9307
  Polar		| 1.1676
  FragIndex	| 1
  FragRMSD	| 0.609

