@<TRIPOS>MOLECULE
BindingDB_29222
 29 30 0 0 0
SMALL
NO_CHARGES


@<TRIPOS>ATOM
1    C        22.4747  -15.5562  -13.5814  C     
2    C        23.5786  -14.7555  -13.9504  C     
3    C        24.4935  -15.1910  -14.9170  C     
4    C        24.3376  -16.4519  -15.5139  C     
5    C        23.2570  -17.2738  -15.1275  C     
6    C        22.3204  -16.8679  -14.1256  C     
7    C        21.3202  -17.8226  -13.7604  C     
8    N        23.1095  -18.4929  -15.7294  N     
9    C        22.1423  -19.3321  -15.3939  C     
10   C        21.2587  -19.0129  -14.4098  C     
11   O        22.0776  -20.4046  -15.9756  O     
12   C        20.3655  -17.5803  -12.6807  C     
13   O        25.2108  -16.8411  -16.4946  O     
14   C        26.3636  -17.5395  -15.9940  C     
15   O        21.6128  -14.9991  -12.6717  O     
16   C        20.9268  -13.8067  -13.1163  C     
17   H        23.7050  -13.8306  -13.5306  H     
18   H        25.2695  -14.5840  -15.1918  H     
19   H        23.7320  -18.7529  -16.4278  H     
20   H        20.5635  -19.6862  -14.1721  H     
21   H        20.8941  -17.3054  -11.7664  H     
22   H        19.7391  -18.4434  -12.4395  H     
23   H        19.7005  -16.7727  -12.9756  H     
24   H        26.9646  -16.8985  -15.3439  H     
25   H        26.9777  -17.8313  -16.8464  H     
26   H        26.0805  -18.4458  -15.4521  H     
27   H        21.3659  -13.3263  -13.9966  H     
28   H        20.9553  -13.0861  -12.3005  H     
29   H        19.8814  -14.0375  -13.3301  H     
@<TRIPOS>BOND
     1    1    2 1
     2    1    6 2
     3    1   15 1
     4    2    3 2
     5    3    4 1
     6    4    5 2
     7    4   13 1
     8    5    6 1
     9    5    8 1
    10    6    7 1
    11    7   10 2
    12    7   12 1
    13    8    9 1
    14    9   10 1
    15    9   11 2
    16   13   14 1
    17   15   16 1
    18    2   17 1
    19    3   18 1
    20    8   19 1
    21   10   20 1
    22   12   21 1
    23   12   22 1
    24   12   23 1
    25   14   24 1
    26   14   25 1
    27   14   26 1
    28   16   27 1
    29   16   28 1
    30   16   29 1
@<TRIPOS>PROPERTY_DATA
  Total_Score	| 2.3109
  Crash		| -0.5302
  Polar		| 1.1369
  FragIndex	| 1
  FragRMSD	| 0.275

