@<TRIPOS>MOLECULE
BindingDB_29223
 32 33 0 0 0
SMALL
NO_CHARGES


@<TRIPOS>ATOM
1    C        22.3108  -15.5979  -13.3229  C     
2    C        23.4902  -14.8377  -13.3221  C     
3    C        24.6155  -15.2957  -14.0015  C     
4    C        24.5702  -16.4995  -14.7299  C     
5    C        23.4215  -17.3556  -14.6600  C     
6    C        22.2912  -16.9078  -13.8861  C     
7    C        21.1887  -17.7915  -13.7170  C     
8    N        23.3235  -18.6107  -15.3126  N     
9    C        22.1600  -19.2947  -15.2709  C     
10   C        21.1344  -18.9120  -14.4672  C     
11   O        21.9732  -20.3243  -15.9139  O     
12   C        20.1834  -17.6295  -12.6515  C     
13   O        25.7149  -16.8150  -15.4171  O     
14   C        26.1181  -15.8647  -16.4205  C     
15   O        21.1958  -14.9936  -12.8066  O     
16   C        20.8944  -13.7474  -13.4671  C     
17   C        24.4519  -19.2090  -16.0131  C     
18   H        23.5176  -13.9235  -12.8641  H     
19   H        25.4599  -14.7177  -14.0003  H     
20   H        20.3518  -19.5255  -14.3796  H     
21   H        20.6800  -17.3653  -11.7167  H     
22   H        19.6149  -18.5407  -12.4499  H     
23   H        19.4573  -16.8483  -12.8958  H     
24   H        25.2892  -15.5957  -17.0789  H     
25   H        26.9049  -16.3180  -17.0241  H     
26   H        26.5198  -14.9594  -15.9634  H     
27   H        20.8567  -13.8443  -14.5576  H     
28   H        21.6189  -12.9751  -13.1987  H     
29   H        19.9160  -13.4204  -13.1328  H     
30   H        24.7005  -18.6148  -16.8929  H     
31   H        24.2922  -20.2290  -16.3692  H     
32   H        25.3141  -19.2668  -15.3459  H     
@<TRIPOS>BOND
     1    1    2 1
     2    1    6 2
     3    1   15 1
     4    2    3 2
     5    3    4 1
     6    4    5 2
     7    4   13 1
     8    5    6 1
     9    5    8 1
    10    6    7 1
    11    7   10 2
    12    7   12 1
    13    8    9 1
    14    8   17 1
    15    9   10 1
    16    9   11 2
    17   13   14 1
    18   15   16 1
    19    2   18 1
    20    3   19 1
    21   10   20 1
    22   12   21 1
    23   12   22 1
    24   12   23 1
    25   14   24 1
    26   14   25 1
    27   14   26 1
    28   16   27 1
    29   16   28 1
    30   16   29 1
    31   17   30 1
    32   17   31 1
    33   17   32 1
@<TRIPOS>PROPERTY_DATA
  Total_Score	| 2.6538
  Crash		| -0.7627
  Polar		| 1.0616
  FragIndex	| 1
  FragRMSD	| 0.696

