@<TRIPOS>MOLECULE
BindingDB_50351177
 44 47 0 0 0
SMALL
NO_CHARGES


@<TRIPOS>ATOM
1    C        -4.0787  -32.3408    5.1214  C     
2    C        -5.3104  -32.2298    5.8261  C     
3    C        -6.0481  -31.0296    5.7837  C     
4    C        -3.5885  -31.2058    4.4241  C     
5    C        -4.3305  -30.0005    4.3696  C     
6    C        -5.5773  -29.9338    5.0431  C     
7    N        -6.3475  -28.8148    4.9429  N     
8    C        -5.9651  -27.7445    4.2236  C     
9    N        -4.7600  -27.7555    3.5927  N     
10   C        -3.9365  -28.8311    3.6482  C     
11   N        -2.7507  -28.7279    3.0232  N     
12   N        -6.7837  -26.6839    4.1378  N     
13   C        -5.9001  -33.3216    6.5116  C     
14   C        -7.2670  -35.4190    7.8638  C     
15   C        -6.2885  -34.6559    8.5355  C     
16   C        -5.5993  -33.6097    7.8703  C     
17   O        -4.7017  -32.8732    8.6119  O     
18   C        -3.3303  -33.3243    8.5473  C     
19   C        -2.6324  -33.1915    9.9057  C     
20   C        -3.3296  -33.6333    5.0543  C     
21   C        -7.5410  -35.1244    6.5253  C     
22   C        -6.8772  -34.1010    5.8547  C     
23   C        -7.3961  -34.0875    4.5909  C     
24   C        -8.3114  -35.0530    4.5051  C     
25   N        -8.4059  -35.6793    5.6663  N     
26   H        -6.9548  -30.9592    6.2616  H     
27   H        -2.7090  -31.2723    3.9151  H     
28   H        -2.5039  -27.9017    2.5806  H     
29   H        -2.1180  -29.4565    3.0549  H     
30   H        -6.5290  -25.9140    3.6059  H     
31   H        -7.6475  -26.6988    4.5935  H     
32   H        -7.7646  -36.1669    8.3449  H     
33   H        -6.0760  -34.8598    9.5098  H     
34   H        -3.2514  -34.3761    8.2343  H     
35   H        -2.7860  -32.6995    7.8309  H     
36   H        -2.6562  -32.1535   10.2401  H     
37   H        -1.5914  -33.5085    9.8221  H     
38   H        -3.1339  -33.8211   10.6462  H     
39   H        -3.1774  -34.0453    6.0486  H     
40   H        -2.3451  -33.5138    4.5919  H     
41   H        -3.9166  -34.3541    4.4772  H     
42   H        -7.1314  -33.4703    3.8565  H     
43   H        -8.8388  -35.2749    3.6938  H     
44   H        -9.0044  -36.4167    5.8598  H     
@<TRIPOS>BOND
     1    1    2 2
     2    1    4 1
     3    1   20 1
     4    2    3 1
     5    2   13 1
     6    3    6 2
     7    4    5 2
     8    5    6 1
     9    5   10 1
    10    6    7 1
    11    7    8 2
    12    8    9 1
    13    8   12 1
    14    9   10 2
    15   10   11 1
    16   13   16 1
    17   13   22 2
    18   14   15 1
    19   14   21 2
    20   15   16 2
    21   16   17 1
    22   17   18 1
    23   18   19 1
    24   21   22 1
    25   21   25 1
    26   22   23 1
    27   23   24 2
    28   24   25 1
    29    3   26 1
    30    4   27 1
    31   11   28 1
    32   11   29 1
    33   12   30 1
    34   12   31 1
    35   14   32 1
    36   15   33 1
    37   18   34 1
    38   18   35 1
    39   19   36 1
    40   19   37 1
    41   19   38 1
    42   20   39 1
    43   20   40 1
    44   20   41 1
    45   23   42 1
    46   24   43 1
    47   25   44 1
@<TRIPOS>PROPERTY_DATA
  Total_Score	| 7.3767
  Crash		| -0.8199
  Polar		| 2.3930
  FragIndex	| 1
  FragRMSD	| 0.778

