@<TRIPOS>MOLECULE
BindingDB_50351179
 42 44 0 0 0
SMALL
NO_CHARGES


@<TRIPOS>ATOM
1    C        -4.1511  -32.3439    5.0727  C     
2    C        -5.4517  -32.2968    5.6434  C     
3    C        -6.2023  -31.1003    5.5829  C     
4    C        -3.6340  -31.1832    4.4427  C     
5    C        -4.3887  -29.9886    4.3628  C     
6    C        -5.6750  -29.9563    4.9529  C     
7    N        -6.4143  -28.8067    4.9058  N     
8    C        -5.9528  -27.6751    4.3225  C     
9    N        -4.7227  -27.6799    3.7499  N     
10   C        -3.9304  -28.7821    3.7443  C     
11   N        -2.7411  -28.6776    3.1343  N     
12   N        -6.7293  -26.5792    4.3100  N     
13   C        -6.0651  -33.4170    6.2589  C     
14   C        -6.1744  -33.4558    7.6679  C     
15   C        -6.9089  -34.4830    8.3082  C     
16   C        -7.4857  -35.5051    7.5285  C     
17   C        -7.3223  -35.5074    6.1391  C     
18   C        -6.6381  -34.4551    5.4881  C     
19   C        -7.0438  -34.4868    9.6841  C     
20   O        -8.1457  -34.6565   10.2161  O     
21   O        -6.5237  -34.4198    4.1134  O     
22   C        -7.7061  -34.5987    3.3094  C     
23   C        -8.9450  -33.8112    3.7806  C     
24   C        -3.3272  -33.5835    5.1374  C     
25   H        -7.1379  -31.0526    6.0032  H     
26   H        -2.7020  -31.2172    4.0220  H     
27   H        -2.4807  -27.8355    2.7302  H     
28   H        -2.1396  -29.4362    3.1076  H     
29   H        -6.4175  -25.7764    3.8593  H     
30   H        -7.6065  -26.5926    4.7400  H     
31   H        -5.7415  -32.7185    8.2235  H     
32   H        -8.0100  -36.2644    7.9616  H     
33   H        -7.7163  -36.2756    5.5972  H     
34   H        -6.3004  -34.1556   10.2739  H     
35   H        -7.4490  -34.2478    2.3045  H     
36   H        -7.9472  -35.6614    3.2269  H     
37   H        -9.3318  -34.2441    4.6968  H     
38   H        -9.7407  -33.8580    3.0230  H     
39   H        -8.6856  -32.7679    3.9666  H     
40   H        -3.2077  -33.9033    6.1758  H     
41   H        -2.3280  -33.4535    4.7135  H     
42   H        -3.8262  -34.3755    4.5761  H     
@<TRIPOS>BOND
     1    1    2 2
     2    1    4 1
     3    1   24 1
     4    2    3 1
     5    2   13 1
     6    3    6 2
     7    4    5 2
     8    5    6 1
     9    5   10 1
    10    6    7 1
    11    7    8 2
    12    8    9 1
    13    8   12 1
    14    9   10 2
    15   10   11 1
    16   13   14 2
    17   13   18 1
    18   14   15 1
    19   15   16 2
    20   15   19 1
    21   16   17 1
    22   17   18 2
    23   18   21 1
    24   19   20 2
    25   21   22 1
    26   22   23 1
    27    3   25 1
    28    4   26 1
    29   11   27 1
    30   11   28 1
    31   12   29 1
    32   12   30 1
    33   14   31 1
    34   16   32 1
    35   17   33 1
    36   19   34 1
    37   22   35 1
    38   22   36 1
    39   23   37 1
    40   23   38 1
    41   23   39 1
    42   24   40 1
    43   24   41 1
    44   24   42 1
@<TRIPOS>PROPERTY_DATA
  Total_Score	| 7.6035
  Crash		| -1.2272
  Polar		| 2.4935
  FragIndex	| 1
  FragRMSD	| 0.978

