@<TRIPOS>MOLECULE
BindingDB_50351193
 33 35 0 0 0
SMALL
NO_CHARGES


@<TRIPOS>ATOM
1    C        -3.9217  -32.3604    5.0450  C     
2    C        -5.2452  -32.4108    5.5819  C     
3    C        -6.0601  -31.2544    5.5084  C     
4    C        -3.4939  -31.1846    4.3762  C     
5    C        -4.3246  -30.0496    4.2737  C     
6    C        -5.6031  -30.0876    4.8775  C     
7    N        -6.3940  -28.9770    4.8592  N     
8    C        -6.0014  -27.8220    4.2744  C     
9    N        -4.7949  -27.7624    3.6586  N     
10   C        -3.9544  -28.8296    3.6252  C     
11   N        -2.7936  -28.6790    2.9663  N     
12   N        -6.8218  -26.7622    4.3057  N     
13   C        -5.8066  -33.5820    6.1758  C     
14   C        -6.6486  -33.5045    7.3120  C     
15   C        -7.2311  -34.6610    7.8653  C     
16   C        -6.9682  -35.9189    7.3005  C     
17   C        -6.1365  -36.0158    6.1733  C     
18   C        -5.5846  -34.8571    5.5990  C     
19   C        -2.9452  -33.4681    5.2420  C     
20   H        -7.0105  -31.2591    5.8928  H     
21   H        -2.5608  -31.1464    3.9648  H     
22   H        -2.5748  -27.8306    2.5493  H     
23   H        -2.1737  -29.4184    2.9025  H     
24   H        -6.5554  -25.9337    3.8787  H     
25   H        -7.6743  -26.8158    4.7735  H     
26   H        -6.8450  -32.6010    7.7492  H     
27   H        -7.8430  -34.5853    8.6810  H     
28   H        -7.3705  -36.7611    7.7126  H     
29   H        -5.9524  -36.9311    5.7568  H     
30   H        -5.0094  -34.9521    4.7548  H     
31   H        -2.8025  -33.6421    6.3070  H     
32   H        -1.9628  -33.2574    4.8111  H     
33   H        -3.3061  -34.3862    4.7877  H     
@<TRIPOS>BOND
     1    1    2 2
     2    1    4 1
     3    1   19 1
     4    2    3 1
     5    2   13 1
     6    3    6 2
     7    4    5 2
     8    5    6 1
     9    5   10 1
    10    6    7 1
    11    7    8 2
    12    8    9 1
    13    8   12 1
    14    9   10 2
    15   10   11 1
    16   13   14 2
    17   13   18 1
    18   14   15 1
    19   15   16 2
    20   16   17 1
    21   17   18 2
    22    3   20 1
    23    4   21 1
    24   11   22 1
    25   11   23 1
    26   12   24 1
    27   12   25 1
    28   14   26 1
    29   15   27 1
    30   16   28 1
    31   17   29 1
    32   18   30 1
    33   19   31 1
    34   19   32 1
    35   19   33 1
@<TRIPOS>PROPERTY_DATA
  Total_Score	| 5.6772
  Crash		| -1.1379
  Polar		| 2.5456
  FragIndex	| 1
  FragRMSD	| 1.038

