@<TRIPOS>MOLECULE
BindingDB_50351174
 46 49 0 0 0
SMALL
NO_CHARGES


@<TRIPOS>ATOM
1    C        -4.0659  -32.3545    5.1415  C     
2    C        -5.2858  -32.2681    5.8795  C     
3    C        -6.0200  -31.0627    5.8572  C     
4    C        -3.5911  -31.2235    4.4311  C     
5    C        -4.3376  -30.0279    4.3971  C     
6    C        -5.5681  -29.9690    5.1007  C     
7    N        -6.3503  -28.8623    4.9982  N     
8    C        -5.9942  -27.7921    4.2506  C     
9    N        -4.8058  -27.8019    3.6010  N     
10   C        -3.9619  -28.8646    3.6570  C     
11   N        -2.7910  -28.7591    3.0050  N     
12   N        -6.8301  -26.7509    4.1583  N     
13   C        -5.9259  -33.3933    6.4688  C     
14   C        -7.3753  -35.4669    7.7589  C     
15   C        -6.4387  -34.7148    8.4796  C     
16   C        -5.6893  -33.7034    7.8371  C     
17   O        -4.8085  -32.9744    8.6086  O     
18   C        -3.6742  -33.7393    9.0996  C     
19   C        -2.4376  -32.8344    9.2633  C     
20   C        -3.2938  -33.6175    5.0807  C     
21   C        -7.6052  -35.1985    6.3916  C     
22   C        -6.8884  -34.1492    5.7381  C     
23   C        -7.2116  -33.9037    4.3814  C     
24   C        -8.1423  -34.6387    3.7403  C     
25   C        -8.8086  -35.6416    4.3777  C     
26   C        -8.5614  -35.9223    5.6716  C     
27   H        -6.9211  -30.9996    6.3461  H     
28   H        -2.7235  -31.2901    3.8932  H     
29   H        -2.5596  -27.9363    2.5437  H     
30   H        -2.1459  -29.4758    3.0410  H     
31   H        -6.6019  -25.9889    3.6001  H     
32   H        -7.6883  -26.7913    4.6076  H     
33   H        -7.8849  -36.2207    8.2360  H     
34   H        -6.3024  -34.9121    9.4796  H     
35   H        -3.9054  -34.2099   10.0826  H     
36   H        -3.4114  -34.5500    8.4249  H     
37   H        -2.2123  -32.3076    8.3258  H     
38   H        -1.5787  -33.4303    9.5541  H     
39   H        -2.6210  -32.0926   10.0530  H     
40   H        -3.0676  -33.9592    6.0724  H     
41   H        -2.3366  -33.5052    4.5420  H     
42   H        -3.8993  -34.3839    4.5652  H     
43   H        -6.7478  -33.1860    3.8783  H     
44   H        -8.3468  -34.4432    2.7855  H     
45   H        -9.4826  -36.1677    3.8795  H     
46   H        -9.0666  -36.6607    6.1094  H     
@<TRIPOS>BOND
     1    1    2 2
     2    1    4 1
     3    1   20 1
     4    2    3 1
     5    2   13 1
     6    3    6 2
     7    4    5 2
     8    5    6 1
     9    5   10 1
    10    6    7 1
    11    7    8 2
    12    8    9 1
    13    8   12 1
    14    9   10 2
    15   10   11 1
    16   13   16 1
    17   13   22 2
    18   14   15 1
    19   14   21 2
    20   15   16 2
    21   16   17 1
    22   17   18 1
    23   18   19 1
    24   21   22 1
    25   21   26 1
    26   22   23 1
    27   23   24 2
    28   24   25 1
    29   25   26 2
    30    3   27 1
    31    4   28 1
    32   11   29 1
    33   11   30 1
    34   12   31 1
    35   12   32 1
    36   14   33 1
    37   15   34 1
    38   18   35 1
    39   18   36 1
    40   19   37 1
    41   19   38 1
    42   19   39 1
    43   20   40 1
    44   20   41 1
    45   20   42 1
    46   23   43 1
    47   24   44 1
    48   25   45 1
    49   26   46 1
@<TRIPOS>PROPERTY_DATA
  Total_Score	| 7.6426
  Crash		| -0.7254
  Polar		| 2.4476
  FragIndex	| 1
  FragRMSD	| 0.678

