@<TRIPOS>MOLECULE
BindingDB_50351183
 37 39 0 0 0
SMALL
NO_CHARGES


@<TRIPOS>ATOM
1    C        -4.1503  -32.2525    5.1703  C     
2    C        -5.3730  -32.1598    5.8783  C     
3    C        -6.1041  -30.9577    5.8088  C     
4    C        -3.6259  -31.1572    4.4687  C     
5    C        -4.3647  -29.9546    4.3838  C     
6    C        -5.6098  -29.8623    5.0676  C     
7    N        -6.3594  -28.7300    4.9428  N     
8    C        -5.9592  -27.6740    4.2009  C     
9    N        -4.7710  -27.7219    3.5504  N     
10   C        -3.9725  -28.8237    3.6040  C     
11   N        -2.8174  -28.7786    2.9118  N     
12   N        -6.7475  -26.5946    4.1182  N     
13   C        -5.9372  -33.3065    6.4863  C     
14   C        -6.9166  -34.0506    5.7849  C     
15   C        -7.5293  -35.1729    6.3728  C     
16   C        -7.1655  -35.5742    7.6710  C     
17   C        -6.1914  -34.8482    8.3777  C     
18   C        -5.5580  -33.7278    7.7880  C     
19   O        -4.6675  -33.0546    8.5822  O     
20   C        -3.2939  -33.4933    8.4641  C     
21   C        -2.5658  -33.2052    9.7800  C     
22   H        -3.6342  -33.1384    5.1534  H     
23   H        -7.0064  -30.8765    6.2901  H     
24   H        -2.7377  -31.2583    3.9750  H     
25   H        -2.5779  -27.9820    2.4141  H     
26   H        -2.2059  -29.5308    2.9290  H     
27   H        -6.4914  -25.8415    3.5634  H     
28   H        -7.6011  -26.5736    4.5793  H     
29   H        -7.2021  -33.7663    4.8453  H     
30   H        -8.2303  -35.7039    5.8500  H     
31   H        -7.6228  -36.3833    8.1054  H     
32   H        -5.9491  -35.1363    9.3301  H     
33   H        -3.2071  -34.5674    8.2293  H     
34   H        -2.8058  -32.9384    7.6656  H     
35   H        -2.6854  -32.1535   10.0610  H     
36   H        -1.4933  -33.4120    9.6687  H     
37   H        -2.9682  -33.8389   10.5840  H     
@<TRIPOS>BOND
     1    1    2 2
     2    1    4 1
     3    2    3 1
     4    2   13 1
     5    3    6 2
     6    4    5 2
     7    5    6 1
     8    5   10 1
     9    6    7 1
    10    7    8 2
    11    8    9 1
    12    8   12 1
    13    9   10 2
    14   10   11 1
    15   13   14 2
    16   13   18 1
    17   14   15 1
    18   15   16 2
    19   16   17 1
    20   17   18 2
    21   18   19 1
    22   19   20 1
    23   20   21 1
    24    1   22 1
    25    3   23 1
    26    4   24 1
    27   11   25 1
    28   11   26 1
    29   12   27 1
    30   12   28 1
    31   14   29 1
    32   15   30 1
    33   16   31 1
    34   17   32 1
    35   20   33 1
    36   20   34 1
    37   21   35 1
    38   21   36 1
    39   21   37 1
@<TRIPOS>PROPERTY_DATA
  Total_Score	| 5.2957
  Crash		| -0.4289
  Polar		| 2.1998
  FragIndex	| 1
  FragRMSD	| 0.804

