@<TRIPOS>MOLECULE
BindingDB_50351185
 36 38 0 0 0
SMALL
NO_CHARGES


@<TRIPOS>ATOM
1    C        -4.2470  -32.3416    5.0790  C     
2    C        -5.5374  -32.2516    5.6756  C     
3    C        -6.2563  -31.0385    5.6101  C     
4    C        -3.7190  -31.2092    4.4081  C     
5    C        -4.4434  -29.9992    4.3220  C     
6    C        -5.7169  -29.9272    4.9393  C     
7    N        -6.4393  -28.7775    4.8767  N     
8    C        -5.9894  -27.6798    4.2337  C     
9    N        -4.7769  -27.7084    3.6260  N     
10   C        -3.9925  -28.8195    3.6440  C     
11   N        -2.8082  -28.7454    3.0121  N     
12   N        -6.7685  -26.5877    4.2235  N     
13   C        -6.1360  -33.3307    6.3794  C     
14   C        -5.8249  -33.4755    7.7532  C     
15   C        -6.4080  -34.5025    8.5147  C     
16   C        -7.3036  -35.3976    7.9110  C     
17   C        -7.6243  -35.2622    6.5500  C     
18   C        -7.0567  -34.2294    5.7642  C     
19   C        -3.4473  -33.5931    5.1536  C     
20   C        -7.4474  -34.1024    4.3342  C     
21   H        -7.1809  -30.9609    6.0457  H     
22   H        -2.7967  -31.2678    3.9707  H     
23   H        -2.5352  -27.9148    2.5897  H     
24   H        -2.2044  -29.5004    3.0083  H     
25   H        -6.4823  -25.7878    3.7531  H     
26   H        -7.6201  -26.5941    4.6945  H     
27   H        -5.1739  -32.8334    8.2119  H     
28   H        -6.1780  -34.5969    9.5061  H     
29   H        -7.7243  -36.1483    8.4636  H     
30   H        -8.2881  -35.9238    6.1383  H     
31   H        -3.3022  -33.8733    6.1971  H     
32   H        -2.4608  -33.4889    4.6987  H     
33   H        -3.9744  -34.3968    4.6398  H     
34   H        -7.9413  -33.1415    4.1681  H     
35   H        -8.1330  -34.8923    4.0179  H     
36   H        -6.5643  -34.1583    3.7012  H     
@<TRIPOS>BOND
     1    1    2 2
     2    1    4 1
     3    1   19 1
     4    2    3 1
     5    2   13 1
     6    3    6 2
     7    4    5 2
     8    5    6 1
     9    5   10 1
    10    6    7 1
    11    7    8 2
    12    8    9 1
    13    8   12 1
    14    9   10 2
    15   10   11 1
    16   13   14 2
    17   13   18 1
    18   14   15 1
    19   15   16 2
    20   16   17 1
    21   17   18 2
    22   18   20 1
    23    3   21 1
    24    4   22 1
    25   11   23 1
    26   11   24 1
    27   12   25 1
    28   12   26 1
    29   14   27 1
    30   15   28 1
    31   16   29 1
    32   17   30 1
    33   19   31 1
    34   19   32 1
    35   19   33 1
    36   20   34 1
    37   20   35 1
    38   20   36 1
@<TRIPOS>PROPERTY_DATA
  Total_Score	| 6.0492
  Crash		| -0.5949
  Polar		| 2.4583
  FragIndex	| 1
  FragRMSD	| 0.773

