@<TRIPOS>MOLECULE
BindingDB_50351196
 40 42 0 0 0
SMALL
NO_CHARGES


@<TRIPOS>ATOM
1    C        -4.0693  -32.3118    5.1474  C     
2    C        -5.3210  -32.2268    5.8226  C     
3    C        -6.0680  -31.0284    5.7443  C     
4    C        -3.5782  -31.1733    4.4613  C     
5    C        -4.3255  -29.9777    4.3849  C     
6    C        -5.5877  -29.9203    5.0247  C     
7    N        -6.3478  -28.7909    4.9146  N     
8    C        -5.9337  -27.7056    4.2205  C     
9    N        -4.7207  -27.7276    3.6164  N     
10   C        -3.9073  -28.8133    3.6750  C     
11   N        -2.7239  -28.7297    3.0454  N     
12   N        -6.7239  -26.6251    4.1276  N     
13   C        -5.9010  -33.3327    6.5033  C     
14   C        -6.8784  -34.1018    5.8265  C     
15   C        -7.5123  -35.1812    6.4642  C     
16   C        -7.1940  -35.4894    7.7970  C     
17   C        -6.2346  -34.7229    8.4837  C     
18   C        -5.5537  -33.6666    7.8403  C     
19   Br       -8.7610  -36.2096    5.5433  Br    
20   O        -4.6363  -32.9349    8.5623  O     
21   C        -3.2735  -33.4273    8.5735  C     
22   C        -2.6675  -33.3254    9.9887  C     
23   C        -3.3011  -33.5869    5.0629  C     
24   H        -6.9850  -30.9605    6.1943  H     
25   H        -2.6770  -31.2300    3.9806  H     
26   H        -2.4656  -27.9147    2.5910  H     
27   H        -2.1121  -29.4780    3.0616  H     
28   H        -6.4356  -25.8546    3.6092  H     
29   H        -7.5942  -26.6152    4.5662  H     
30   H        -7.1299  -33.8868    4.8573  H     
31   H        -7.6467  -36.2775    8.2623  H     
32   H        -6.0230  -34.9504    9.4576  H     
33   H        -3.1828  -34.4640    8.2328  H     
34   H        -2.6746  -32.8043    7.9083  H     
35   H        -2.6223  -32.2791   10.2991  H     
36   H        -1.6537  -33.7343    9.9928  H     
37   H        -3.2677  -33.8834   10.7126  H     
38   H        -3.0530  -33.9647    6.0556  H     
39   H        -2.3648  -33.4786    4.5117  H     
40   H        -3.9021  -34.3358    4.5448  H     
@<TRIPOS>BOND
     1    1    2 2
     2    1    4 1
     3    1   23 1
     4    2    3 1
     5    2   13 1
     6    3    6 2
     7    4    5 2
     8    5    6 1
     9    5   10 1
    10    6    7 1
    11    7    8 2
    12    8    9 1
    13    8   12 1
    14    9   10 2
    15   10   11 1
    16   13   14 2
    17   13   18 1
    18   14   15 1
    19   15   16 2
    20   15   19 1
    21   16   17 1
    22   17   18 2
    23   18   20 1
    24   20   21 1
    25   21   22 1
    26    3   24 1
    27    4   25 1
    28   11   26 1
    29   11   27 1
    30   12   28 1
    31   12   29 1
    32   14   30 1
    33   16   31 1
    34   17   32 1
    35   21   33 1
    36   21   34 1
    37   22   35 1
    38   22   36 1
    39   22   37 1
    40   23   38 1
    41   23   39 1
    42   23   40 1
@<TRIPOS>PROPERTY_DATA
  Total_Score	| 6.5880
  Crash		| -0.8161
  Polar		| 2.2694
  FragIndex	| 1
  FragRMSD	| 0.796

