@<TRIPOS>MOLECULE
BindingDB_50351178
 40 42 0 0 0
SMALL
NO_CHARGES


@<TRIPOS>ATOM
1    C        -4.0683  -32.2997    5.1539  C     
2    C        -5.3779  -32.3121    5.8253  C     
3    C        -6.0491  -31.0357    5.8238  C     
4    C        -3.6588  -31.1625    4.4352  C     
5    C        -4.4103  -30.0000    4.3132  C     
6    C        -5.6173  -29.9147    5.0306  C     
7    N        -6.3580  -28.7709    4.9752  N     
8    C        -5.9747  -27.7037    4.2412  C     
9    N        -4.7922  -27.7449    3.5589  N     
10   C        -4.0056  -28.8374    3.5768  C     
11   N        -2.8077  -28.7254    2.9280  N     
12   N        -6.7933  -26.6484    4.1115  N     
13   C        -6.1191  -33.5137    6.5362  C     
14   C        -6.8989  -34.4524    5.7753  C     
15   C        -7.8394  -35.3755    6.4505  C     
16   C        -7.8000  -35.6159    7.7963  C     
17   C        -6.9060  -34.8398    8.6025  C     
18   C        -6.0383  -33.7130    7.9888  C     
19   Cl       -8.7531  -36.4413    5.5418  Cl    
20   O        -4.9055  -33.0999    8.7506  O     
21   C        -3.6904  -33.8595    9.1582  C     
22   C        -2.4004  -32.9460    9.5954  C     
23   C        -3.0739  -33.4343    5.3190  C     
24   H        -6.8150  -30.7552    6.4468  H     
25   H        -2.8028  -31.2630    3.9206  H     
26   H        -2.6217  -27.9011    2.4336  H     
27   H        -2.1563  -29.4541    2.8964  H     
28   H        -6.5595  -25.9036    3.5437  H     
29   H        -7.6599  -26.6648    4.5398  H     
30   H        -6.8041  -34.6780    4.7569  H     
31   H        -8.3369  -36.2654    8.3877  H     
32   H        -6.7509  -34.9834    9.6453  H     
33   H        -3.8468  -34.7179    9.9204  H     
34   H        -3.3000  -34.3800    8.2055  H     
35   H        -2.3357  -32.1263    8.8451  H     
36   H        -1.5100  -33.5711    9.5135  H     
37   H        -2.5929  -32.5508   10.6070  H     
38   H        -3.4639  -34.1032    5.9497  H     
39   H        -1.9028  -33.2268    4.7853  H     
40   H        -3.5182  -34.0447    4.4424  H     
@<TRIPOS>BOND
     1    1    2 2
     2    1    4 1
     3    1   23 1
     4    2    3 1
     5    2   13 1
     6    3    6 2
     7    4    5 2
     8    5    6 1
     9    5   10 1
    10    6    7 1
    11    7    8 2
    12    8    9 1
    13    8   12 1
    14    9   10 2
    15   10   11 1
    16   13   14 2
    17   13   18 1
    18   14   15 1
    19   15   16 2
    20   15   19 1
    21   16   17 1
    22   17   18 2
    23   18   20 1
    24   20   21 1
    25   21   22 1
    26    3   24 1
    27    4   25 1
    28   11   26 1
    29   11   27 1
    30   12   28 1
    31   12   29 1
    32   14   30 1
    33   16   31 1
    34   17   32 1
    35   21   33 1
    36   21   34 1
    37   22   35 1
    38   22   36 1
    39   22   37 1
    40   23   38 1
    41   23   39 1
    42   23   40 1
@<TRIPOS>PROPERTY_DATA
  Total_Score	| 6.7911
  Crash		| -0.5908
  Polar		| 2.2207
  FragIndex	| 1
  FragRMSD	| 0.764

