@<TRIPOS>MOLECULE
BindingDB_50351190
 35 37 0 0 0
SMALL
NO_CHARGES


@<TRIPOS>ATOM
1    C        -3.8658  -32.2756    5.0928  C     
2    C        -5.2024  -32.3666    5.5943  C     
3    C        -6.0434  -31.2289    5.5085  C     
4    C        -3.4609  -31.1013    4.4088  C     
5    C        -4.3249  -29.9914    4.2785  C     
6    C        -5.6024  -30.0502    4.8830  C     
7    N        -6.4209  -28.9593    4.8541  N     
8    C        -6.0552  -27.8022    4.2484  C     
9    N        -4.8552  -27.7230    3.6255  N     
10   C        -3.9933  -28.7743    3.6038  C     
11   N        -2.8533  -28.6089    2.9107  N     
12   N        -6.8839  -26.7430    4.2592  N     
13   C        -5.7540  -33.5757    6.1311  C     
14   C        -6.6667  -33.5591    7.2120  C     
15   C        -7.2597  -34.7479    7.6873  C     
16   C        -6.9324  -35.9841    7.1020  C     
17   C        -6.0103  -36.0239    6.0409  C     
18   C        -5.4441  -34.8276    5.5428  C     
19   N        -7.5034  -37.1173    7.5589  N     
20   C        -2.8580  -33.3436    5.3460  C     
21   H        -6.9974  -31.2531    5.8789  H     
22   H        -2.5173  -31.0475    4.0215  H     
23   H        -2.6692  -27.7599    2.4756  H     
24   H        -2.2121  -29.3347    2.8490  H     
25   H        -6.6276  -25.9162    3.8163  H     
26   H        -7.7309  -26.7882    4.7322  H     
27   H        -6.9182  -32.6807    7.6685  H     
28   H        -7.9340  -34.7009    8.4542  H     
29   H        -5.7554  -36.9126    5.6062  H     
30   H        -4.7946  -34.8789    4.7419  H     
31   H        -7.2790  -37.9698    7.1520  H     
32   H        -8.1416  -37.0678    8.2892  H     
33   H        -2.7575  -33.4968    6.4212  H     
34   H        -1.8660  -33.0958    4.9496  H     
35   H        -3.1742  -34.2873    4.8954  H     
@<TRIPOS>BOND
     1    1    2 2
     2    1    4 1
     3    1   20 1
     4    2    3 1
     5    2   13 1
     6    3    6 2
     7    4    5 2
     8    5    6 1
     9    5   10 1
    10    6    7 1
    11    7    8 2
    12    8    9 1
    13    8   12 1
    14    9   10 2
    15   10   11 1
    16   13   14 2
    17   13   18 1
    18   14   15 1
    19   15   16 2
    20   16   17 1
    21   16   19 1
    22   17   18 2
    23    3   21 1
    24    4   22 1
    25   11   23 1
    26   11   24 1
    27   12   25 1
    28   12   26 1
    29   14   27 1
    30   15   28 1
    31   17   29 1
    32   18   30 1
    33   19   31 1
    34   19   32 1
    35   20   33 1
    36   20   34 1
    37   20   35 1
@<TRIPOS>PROPERTY_DATA
  Total_Score	| 5.8544
  Crash		| -1.1918
  Polar		| 2.4694
  FragIndex	| 1
  FragRMSD	| 0.949

