@<TRIPOS>MOLECULE
BindingDB_50351187
 41 43 0 0 0
SMALL
NO_CHARGES


@<TRIPOS>ATOM
1    C        -3.9575  -32.3340    5.1176  C     
2    C        -5.2172  -32.3202    5.7819  C     
3    C        -6.0200  -31.1579    5.7405  C     
4    C        -3.5437  -31.1779    4.4109  C     
5    C        -4.3468  -30.0163    4.3630  C     
6    C        -5.5911  -30.0199    5.0394  C     
7    N        -6.3831  -28.9106    5.0126  N     
8    C        -6.0181  -27.7836    4.3613  C     
9    N        -4.8318  -27.7467    3.7007  N     
10   C        -3.9920  -28.8145    3.6760  C     
11   N        -2.8403  -28.6791    2.9983  N     
12   N        -6.8338  -26.7199    4.3905  N     
13   C        -5.7434  -33.4601    6.4423  C     
14   C        -5.6878  -33.5789    7.8500  C     
15   C        -6.2186  -34.7172    8.4831  C     
16   C        -6.8332  -35.7349    7.7270  C     
17   C        -6.9031  -35.6220    6.3216  C     
18   C        -6.3464  -34.4929    5.6817  C     
19   O        -7.4314  -36.6516    5.5970  O     
20   C        -8.5385  -36.2832    4.7646  C     
21   O        -7.2588  -36.8694    8.3641  O     
22   C        -8.6705  -36.9158    8.6187  C     
23   C        -3.0860  -33.5388    5.1335  C     
24   H        -6.9330  -31.1419    6.2117  H     
25   H        -2.6504  -31.1910    3.9128  H     
26   H        -2.6166  -27.8361    2.5758  H     
27   H        -2.2091  -29.4111    2.9593  H     
28   H        -6.5830  -25.8984    3.9392  H     
29   H        -7.6714  -26.7683    4.8828  H     
30   H        -5.2264  -32.8603    8.4098  H     
31   H        -6.1320  -34.8176    9.4973  H     
32   H        -6.3689  -34.4365    4.6558  H     
33   H        -9.3261  -35.7818    5.3335  H     
34   H        -8.9554  -37.1994    4.3406  H     
35   H        -8.2025  -35.6355    3.9507  H     
36   H        -9.0172  -36.0236    9.1458  H     
37   H        -8.8572  -37.7828    9.2504  H     
38   H        -9.2310  -37.0381    7.6904  H     
39   H        -2.8614  -33.8272    6.1607  H     
40   H        -2.1392  -33.3794    4.6170  H     
41   H        -3.6035  -34.3594    4.6401  H     
@<TRIPOS>BOND
     1    1    2 2
     2    1    4 1
     3    1   23 1
     4    2    3 1
     5    2   13 1
     6    3    6 2
     7    4    5 2
     8    5    6 1
     9    5   10 1
    10    6    7 1
    11    7    8 2
    12    8    9 1
    13    8   12 1
    14    9   10 2
    15   10   11 1
    16   13   14 2
    17   13   18 1
    18   14   15 1
    19   15   16 2
    20   16   17 1
    21   16   21 1
    22   17   18 2
    23   17   19 1
    24   19   20 1
    25   21   22 1
    26    3   24 1
    27    4   25 1
    28   11   26 1
    29   11   27 1
    30   12   28 1
    31   12   29 1
    32   14   30 1
    33   15   31 1
    34   18   32 1
    35   20   33 1
    36   20   34 1
    37   20   35 1
    38   22   36 1
    39   22   37 1
    40   22   38 1
    41   23   39 1
    42   23   40 1
    43   23   41 1
@<TRIPOS>PROPERTY_DATA
  Total_Score	| 5.9621
  Crash		| -0.4427
  Polar		| 2.6500
  FragIndex	| 1
  FragRMSD	| 0.852

