@<TRIPOS>MOLECULE
BindingDB_50351176
 46 49 0 0 0
SMALL
NO_CHARGES


@<TRIPOS>ATOM
1    C        -3.8747  -32.3269    4.9374  C     
2    C        -5.1731  -32.3940    5.5019  C     
3    C        -5.9535  -31.2200    5.5357  C     
4    C        -3.4088  -31.1374    4.3412  C     
5    C        -4.2222  -29.9813    4.3144  C     
6    C        -5.4982  -30.0304    4.9329  C     
7    N        -6.3012  -28.9352    4.9353  N     
8    C        -5.9380  -27.7730    4.3364  C     
9    N        -4.7381  -27.6970    3.7027  N     
10   C        -3.8783  -28.7485    3.6710  C     
11   N        -2.7328  -28.5892    2.9840  N     
12   N        -6.7780  -26.7323    4.3853  N     
13   C        -5.7418  -33.6152    5.9475  C     
14   C        -6.8737  -34.1229    5.2639  C     
15   C        -7.5294  -35.3129    5.6622  C     
16   C        -7.0381  -35.9721    6.8119  C     
17   C        -5.8944  -35.5077    7.4822  C     
18   C        -5.2278  -34.3510    7.0419  C     
19   C        -8.6368  -35.8434    4.9190  C     
20   O        -4.0313  -34.0748    7.6506  O     
21   C        -4.0278  -33.3349    8.8846  C     
22   C        -2.6346  -33.2056    9.5556  C     
23   C        -8.8395  -37.2395    4.7630  C     
24   C        -9.9374  -37.7423    4.0300  C     
25   C       -10.8383  -36.8329    3.4502  C     
26   N       -10.6288  -35.5034    3.5795  N     
27   C        -9.5710  -34.9938    4.2738  C     
28   H        -3.2929  -33.1684    4.8876  H     
29   H        -6.8833  -31.2319    5.9697  H     
30   H        -2.4795  -31.1306    3.9143  H     
31   H        -2.5305  -27.7553    2.5415  H     
32   H        -2.1093  -29.3275    2.9159  H     
33   H        -6.5559  -25.9009    3.9322  H     
34   H        -7.6217  -26.8176    4.8658  H     
35   H        -7.2126  -33.6316    4.4312  H     
36   H        -7.4836  -36.8298    7.1584  H     
37   H        -5.5318  -36.0252    8.2871  H     
38   H        -4.3703  -32.3191    8.6580  H     
39   H        -4.7361  -33.7957    9.5832  H     
40   H        -2.2839  -34.1931    9.8634  H     
41   H        -2.7298  -32.5578   10.4288  H     
42   H        -1.9072  -32.7566    8.8701  H     
43   H        -8.1857  -37.9151    5.1723  H     
44   H       -10.0756  -38.7528    3.9263  H     
45   H       -11.6429  -37.1764    2.9118  H     
46   H        -9.4887  -33.9789    4.3313  H     
@<TRIPOS>BOND
     1    1    2 2
     2    1    4 1
     3    2    3 1
     4    2   13 1
     5    3    6 2
     6    4    5 2
     7    5    6 1
     8    5   10 1
     9    6    7 1
    10    7    8 2
    11    8    9 1
    12    8   12 1
    13    9   10 2
    14   10   11 1
    15   13   14 2
    16   13   18 1
    17   14   15 1
    18   15   16 2
    19   15   19 1
    20   16   17 1
    21   17   18 2
    22   18   20 1
    23   19   23 2
    24   19   27 1
    25   20   21 1
    26   21   22 1
    27   23   24 1
    28   24   25 2
    29   25   26 1
    30   26   27 2
    31    1   28 1
    32    3   29 1
    33    4   30 1
    34   11   31 1
    35   11   32 1
    36   12   33 1
    37   12   34 1
    38   14   35 1
    39   16   36 1
    40   17   37 1
    41   21   38 1
    42   21   39 1
    43   22   40 1
    44   22   41 1
    45   22   42 1
    46   23   43 1
    47   24   44 1
    48   25   45 1
    49   27   46 1
@<TRIPOS>PROPERTY_DATA
  Total_Score	| 5.6515
  Crash		| -0.9609
  Polar		| 2.5290
  FragIndex	| 1
  FragRMSD	| 1.018

