@<TRIPOS>MOLECULE
BindingDB_50351173
 56 58 0 0 0
SMALL
NO_CHARGES


@<TRIPOS>ATOM
1    C        -4.1448  -32.3449    5.0995  C     
2    C        -5.3987  -32.2427    5.7645  C     
3    C        -6.1232  -31.0312    5.7038  C     
4    C        -3.6289  -31.2052    4.4276  C     
5    C        -4.3539  -29.9911    4.3695  C     
6    C        -5.6166  -29.9211    5.0043  C     
7    N        -6.3723  -28.7895    4.9014  N     
8    C        -5.9552  -27.7059    4.2061  C     
9    N        -4.7389  -27.7293    3.6068  N     
10   C        -3.9269  -28.8176    3.6689  C     
11   N        -2.7296  -28.7207    3.0642  N     
12   N        -6.7648  -26.6426    4.1043  N     
13   C        -6.0079  -33.3314    6.4447  C     
14   C        -6.9424  -34.1418    5.7549  C     
15   C        -7.6718  -35.1955    6.3784  C     
16   C        -7.4429  -35.3205    7.7870  C     
17   C        -6.5111  -34.5356    8.4825  C     
18   C        -5.7457  -33.5645    7.8123  C     
19   C        -8.5156  -36.1373    5.6964  C     
20   O        -4.8703  -32.7881    8.5262  O     
21   C        -3.5304  -33.2771    8.7458  C     
22   C        -3.4086  -34.3944    9.8062  C     
23   C        -3.4104  -33.6437    5.0230  C     
24   O        -8.7201  -37.1572    6.3541  O     
25   N        -9.0770  -36.1574    4.4501  N     
26   C        -9.6008  -37.4248    3.9058  C     
27   C        -9.0712  -35.0193    3.5412  C     
28   C       -10.9955  -37.8055    4.4617  C     
29   C       -10.2292  -34.8513    2.5153  C     
30   H        -7.0423  -30.9557    6.1487  H     
31   H        -2.7333  -31.2740    3.9347  H     
32   H        -2.4693  -27.8953    2.6305  H     
33   H        -2.1042  -29.4522    3.1028  H     
34   H        -6.4922  -25.8657    3.5848  H     
35   H        -7.6421  -26.6555    4.5299  H     
36   H        -7.0924  -33.9198    4.7828  H     
37   H        -7.9590  -36.0051    8.3449  H     
38   H        -6.3915  -34.6659    9.4900  H     
39   H        -3.0773  -33.6145    7.8187  H     
40   H        -2.9343  -32.4314    9.0893  H     
41   H        -3.8778  -34.0749   10.7402  H     
42   H        -2.3546  -34.6122    9.9993  H     
43   H        -3.8892  -35.3121    9.4554  H     
44   H        -3.3158  -34.1094    6.0013  H     
45   H        -2.4055  -33.5265    4.6185  H     
46   H        -3.9662  -34.3306    4.3821  H     
47   H        -9.6735  -37.4119    2.8209  H     
48   H        -8.9007  -38.2430    4.1086  H     
49   H        -9.1412  -34.1053    4.1028  H     
50   H        -8.1231  -35.0126    3.0079  H     
51   H       -10.9558  -38.0160    5.5322  H     
52   H       -11.3552  -38.6987    3.9486  H     
53   H       -11.7076  -36.9959    4.2907  H     
54   H       -10.1709  -35.5732    1.7040  H     
55   H       -10.1952  -33.8538    2.0648  H     
56   H       -11.1930  -34.9502    3.0179  H     
@<TRIPOS>BOND
     1    1    2 2
     2    1    4 1
     3    1   23 1
     4    2    3 1
     5    2   13 1
     6    3    6 2
     7    4    5 2
     8    5    6 1
     9    5   10 1
    10    6    7 1
    11    7    8 2
    12    8    9 1
    13    8   12 1
    14    9   10 2
    15   10   11 1
    16   13   14 2
    17   13   18 1
    18   14   15 1
    19   15   16 2
    20   15   19 1
    21   16   17 1
    22   17   18 2
    23   18   20 1
    24   19   24 2
    25   19   25 am
    26   20   21 1
    27   21   22 1
    28   25   26 1
    29   25   27 1
    30   26   28 1
    31   27   29 1
    32    3   30 1
    33    4   31 1
    34   11   32 1
    35   11   33 1
    36   12   34 1
    37   12   35 1
    38   14   36 1
    39   16   37 1
    40   17   38 1
    41   21   39 1
    42   21   40 1
    43   22   41 1
    44   22   42 1
    45   22   43 1
    46   23   44 1
    47   23   45 1
    48   23   46 1
    49   26   47 1
    50   26   48 1
    51   27   49 1
    52   27   50 1
    53   28   51 1
    54   28   52 1
    55   28   53 1
    56   29   54 1
    57   29   55 1
    58   29   56 1
@<TRIPOS>PROPERTY_DATA
  Total_Score	| 8.1239
  Crash		| -1.3083
  Polar		| 2.3293
  FragIndex	| 1
  FragRMSD	| 0.836

