@<TRIPOS>MOLECULE
BindingDB_11383
 20 20 0 0 0
SMALL
NO_CHARGES


@<TRIPOS>ATOM
1    O        -8.0122    0.8389   17.1195  O     
2    S        -6.5383    1.4014   17.2890  S     
3    O        -6.4755    1.9539   18.7745  O     
4    N        -5.4693    0.1076   17.2269  N     
5    O        -5.2816   -0.5157   16.0999  O     
6    C        -6.2622    2.6901   16.1478  C     
7    C        -5.7996    2.4040   14.8405  C     
8    C        -5.6055    3.4487   13.9140  C     
9    C        -5.8568    4.7810   14.2899  C     
10   C        -6.3144    5.0682   15.5935  C     
11   C        -6.5269    4.0264   16.5125  C     
12   N        -5.6662    5.7891   13.4197  N     
13   H        -5.2155   -0.3250   18.0547  H     
14   H        -4.4126   -0.9884   16.2229  H     
15   H        -5.6090    1.4298   14.5663  H     
16   H        -5.2783    3.2266   12.9709  H     
17   H        -6.4970    6.0368   15.8748  H     
18   H        -6.8746    4.2557   17.4446  H     
19   H        -5.8487    6.7005   13.6930  H     
20   H        -5.3372    5.6161   12.5274  H     
@<TRIPOS>BOND
     1    1    2 2
     2    2    3 2
     3    2    4 1
     4    2    6 1
     5    4    5 1
     6    6    7 1
     7    6   11 2
     8    7    8 2
     9    8    9 1
    10    9   10 2
    11    9   12 1
    12   10   11 1
    13    4   13 1
    14    5   14 1
    15    7   15 1
    16    8   16 1
    17   10   17 1
    18   11   18 1
    19   12   19 1
    20   12   20 1
@<TRIPOS>PROPERTY_DATA
  Total_Score	| 4.4650
  Crash		| -0.9676
  Polar		| 2.4880
  FragIndex	| 1
  FragRMSD	| 0.466

