@<TRIPOS>MOLECULE
BindingDB_11375
 18 18 0 0 0
SMALL
NO_CHARGES


@<TRIPOS>ATOM
1    O        -6.6814    0.0965   16.0111  O     
2    S        -6.8600    1.4591   16.8077  S     
3    O        -8.4034    1.4782   17.1957  O     
4    N        -5.9229    1.2638   18.1838  N     
5    O        -5.1102    0.2589   18.2843  O     
6    C        -6.4202    2.8077   15.7955  C     
7    C        -5.9105    2.5913   14.4974  C     
8    C        -5.5594    3.6813   13.6836  C     
9    C        -5.7102    4.9955   14.1546  C     
10   C        -6.2174    5.2258   15.4472  C     
11   C        -6.5750    4.1359   16.2645  C     
12   Br       -5.2048    6.4023   13.0413  Br    
13   H        -5.9047    1.9716   18.8544  H     
14   H        -5.6788   -0.5386   18.2373  H     
15   H        -5.7854    1.6506   14.1356  H     
16   H        -5.1826    3.5119   12.7455  H     
17   H        -6.3202    6.1771   15.7996  H     
18   H        -6.9406    4.3127   17.2070  H     
@<TRIPOS>BOND
     1    1    2 2
     2    2    3 2
     3    2    4 1
     4    2    6 1
     5    4    5 1
     6    6    7 1
     7    6   11 2
     8    7    8 2
     9    8    9 1
    10    9   10 2
    11    9   12 1
    12   10   11 1
    13    4   13 1
    14    5   14 1
    15    7   15 1
    16    8   16 1
    17   10   17 1
    18   11   18 1
@<TRIPOS>PROPERTY_DATA
  Total_Score	| 4.1291
  Crash		| -1.5401
  Polar		| 2.9694
  FragIndex	| 1
  FragRMSD	| 1.344

