@<TRIPOS>MOLECULE
BindingDB_11376
 18 18 0 0 0
SMALL
NO_CHARGES


@<TRIPOS>ATOM
1    O        -8.1055    0.9707   17.1225  O     
2    S        -6.5790    1.4123   17.2432  S     
3    O        -6.4613    2.0186   18.7081  O     
4    N        -5.5577    0.0729   17.2388  N     
5    O        -5.2892   -0.5415   16.1154  O     
6    C        -6.2253    2.6977   16.1211  C     
7    C        -5.7143    2.3887   14.8338  C     
8    C        -5.4223    3.4149   13.9196  C     
9    C        -5.6283    4.7659   14.2775  C     
10   C        -6.1564    5.0835   15.5527  C     
11   C        -6.4673    4.0536   16.4684  C     
12   I        -5.1478    6.2369   12.9226  I     
13   H        -5.3310   -0.3456   18.0916  H     
14   H        -4.4100   -0.9672   16.2830  H     
15   H        -5.5380    1.4039   14.5597  H     
16   H        -5.0339    3.1783   13.0025  H     
17   H        -6.3038    6.0629   15.8168  H     
18   H        -6.8541    4.2962   17.3957  H     
@<TRIPOS>BOND
     1    1    2 2
     2    2    3 2
     3    2    4 1
     4    2    6 1
     5    4    5 1
     6    6    7 1
     7    6   11 2
     8    7    8 2
     9    8    9 1
    10    9   10 2
    11    9   12 1
    12   10   11 1
    13    4   13 1
    14    5   14 1
    15    7   15 1
    16    8   16 1
    17   10   17 1
    18   11   18 1
@<TRIPOS>PROPERTY_DATA
  Total_Score	| 3.8124
  Crash		| -1.1904
  Polar		| 2.4987
  FragIndex	| 1
  FragRMSD	| 0.500

