@<TRIPOS>MOLECULE
BindingDB_12414
 17 17 0 0 0
SMALL
NO_CHARGES


@<TRIPOS>ATOM
1    C        -5.6779    4.1378   13.7705  C     
2    C        -5.7601    2.9116   14.4610  C     
3    C        -6.0819    2.8875   15.8347  C     
4    C        -6.3409    4.1054   16.5034  C     
5    C        -6.2599    5.3286   15.8106  C     
6    C        -5.9300    5.3479   14.4454  C     
7    N        -7.6002    1.2505   17.5355  N     
8    S        -6.1503    1.3787   16.7064  S     
9    O        -6.1181    0.1011   15.7584  O     
10   O        -5.0142    1.3025   17.8132  O     
11   H        -5.4259    4.1543   12.7824  H     
12   H        -5.5725    2.0446   13.9553  H     
13   H        -6.5789    4.1123   17.4974  H     
14   H        -6.4368    6.2064   16.3062  H     
15   H        -5.8608    6.2376   13.9475  H     
16   H        -7.7885    0.4422   18.0413  H     
17   H        -8.3070    1.8972   17.3703  H     
@<TRIPOS>BOND
     1    1    2 2
     2    1    6 1
     3    2    3 1
     4    3    4 2
     5    3    8 1
     6    4    5 1
     7    5    6 2
     8    7    8 am
     9    8    9 2
    10    8   10 2
    11    1   11 1
    12    2   12 1
    13    4   13 1
    14    5   14 1
    15    6   15 1
    16    7   16 1
    17    7   17 1
@<TRIPOS>PROPERTY_DATA
  Total_Score	| 5.2869
  Crash		| -0.9385
  Polar		| 3.2076
  FragIndex	| 1
  FragRMSD	| 1.245

