@<TRIPOS>MOLECULE
BindingDB_50025093
 17 17 0 0 0
SMALL
NO_CHARGES


@<TRIPOS>ATOM
1    S        -6.1803    1.3209   16.7493  S     
2    C        -6.0833    2.7713   15.8002  C     
3    O        -6.1532   -0.0062   15.8836  O     
4    O        -4.9624    1.3278   17.7679  O     
5    N        -7.5882    1.3359   17.6600  N     
6    C        -5.7078    2.7057   14.4443  C     
7    C        -6.3962    4.0234   16.3764  C     
8    C        -5.9860    5.1153   14.2355  C     
9    C        -5.6549    3.8721   13.6699  C     
10   C        -6.3464    5.1945   15.5976  C     
11   Cl       -5.9977    6.4929   13.2505  Cl    
12   H        -7.6507    0.7944   18.4680  H     
13   H        -8.3921    1.7497   17.2814  H     
14   H        -5.4914    1.8049   14.0039  H     
15   H        -6.6780    4.0874   17.3586  H     
16   H        -5.3856    3.7966   12.6845  H     
17   H        -6.5915    6.0891   16.0286  H     
@<TRIPOS>BOND
     1    1    2 1
     2    1    3 2
     3    1    4 2
     4    1    5 am
     5    2    6 1
     6    2    7 2
     7    6    9 2
     8    7   10 1
     9    8    9 1
    10    8   10 2
    11    8   11 1
    12    5   12 1
    13    5   13 1
    14    6   14 1
    15    7   15 1
    16    9   16 1
    17   10   17 1
@<TRIPOS>PROPERTY_DATA
  Total_Score	| 4.6297
  Crash		| -1.1988
  Polar		| 3.1668
  FragIndex	| 1
  FragRMSD	| 1.256

