@<TRIPOS>MOLECULE
BindingDB_11374
 18 18 0 0 0
SMALL
NO_CHARGES


@<TRIPOS>ATOM
1    O        -7.8765    0.9007   16.9374  O     
2    S        -6.3832    1.4040   17.1691  S     
3    O        -6.3197    1.8279   18.7029  O     
4    N        -5.3894    0.0569   16.9373  N     
5    O        -4.2423    0.1648   16.3176  O     
6    C        -6.1886    2.7702   16.1062  C     
7    C        -5.8594    2.5882   14.7444  C     
8    C        -5.7853    3.6929   13.8787  C     
9    C        -6.0517    4.9901   14.3635  C     
10   C        -6.3603    5.1807   15.7214  C     
11   C        -6.4293    4.0764   16.5873  C     
12   Cl       -6.0582    6.2986   13.2819  Cl    
13   H        -5.5702   -0.7472   17.4734  H     
14   H        -3.8060   -0.6950   16.4649  H     
15   H        -5.6880    1.6562   14.3712  H     
16   H        -5.5482    3.5456   12.8972  H     
17   H        -6.5600    6.1184   16.0809  H     
18   H        -6.6826    4.2331   17.5618  H     
@<TRIPOS>BOND
     1    1    2 2
     2    2    3 2
     3    2    4 1
     4    2    6 1
     5    4    5 1
     6    6    7 1
     7    6   11 2
     8    7    8 2
     9    8    9 1
    10    9   10 2
    11    9   12 1
    12   10   11 1
    13    4   13 1
    14    5   14 1
    15    7   15 1
    16    8   16 1
    17   10   17 1
    18   11   18 1
@<TRIPOS>PROPERTY_DATA
  Total_Score	| 4.2077
  Crash		| -0.5684
  Polar		| 1.8063
  FragIndex	| 1
  FragRMSD	| 0.134

