@<TRIPOS>MOLECULE
BindingDB_11373
 18 18 0 0 0
SMALL
NO_CHARGES


@<TRIPOS>ATOM
1    O        -6.5146    0.1332   15.8270  O     
2    S        -6.8328    1.4095   16.7247  S     
3    O        -8.3911    1.3418   17.0370  O     
4    N        -5.9811    1.2066   18.1556  N     
5    O        -5.1451    0.2129   18.2760  O     
6    C        -6.4435    2.8830   15.8796  C     
7    C        -5.9618    2.8630   14.5508  C     
8    C        -5.7121    4.0705   13.8723  C     
9    C        -5.9226    5.3033   14.5211  C     
10   C        -6.3926    5.3328   15.8484  C     
11   C        -6.6549    4.1235   16.5217  C     
12   F        -5.6893    6.4100   13.8712  F     
13   H        -5.9824    1.9179   18.8120  H     
14   H        -5.7013   -0.5950   18.2587  H     
15   H        -5.7961    1.9751   14.0709  H     
16   H        -5.3768    4.0504   12.9065  H     
17   H        -6.5463    6.2244   16.3327  H     
18   H        -7.0027    4.1548   17.4837  H     
@<TRIPOS>BOND
     1    1    2 2
     2    2    3 2
     3    2    4 1
     4    2    6 1
     5    4    5 1
     6    6    7 1
     7    6   11 2
     8    7    8 2
     9    8    9 1
    10    9   10 2
    11    9   12 1
    12   10   11 1
    13    4   13 1
    14    5   14 1
    15    7   15 1
    16    8   16 1
    17   10   17 1
    18   11   18 1
@<TRIPOS>PROPERTY_DATA
  Total_Score	| 5.1512
  Crash		| -1.2722
  Polar		| 2.9429
  FragIndex	| 1
  FragRMSD	| 1.354

