@<TRIPOS>MOLECULE
BindingDB_11377
 21 21 0 0 0
SMALL
NO_CHARGES


@<TRIPOS>ATOM
1    O        -7.9371    0.8661   16.9324  O     
2    S        -6.4469    1.3618   17.1876  S     
3    O        -6.3504    1.7791   18.7216  O     
4    N        -5.4626    0.0334   16.8988  N     
5    O        -4.2895    0.1965   16.3565  O     
6    C        -6.1997    2.6947   16.0979  C     
7    C        -6.3870    4.0223   16.5338  C     
8    C        -6.1699    5.0974   15.6514  C     
9    C        -5.7598    4.8648   14.3199  C     
10   C        -5.5735    3.5311   13.8878  C     
11   C        -5.7942    2.4566   14.7690  C     
12   C        -5.5227    6.0148   13.4171  C     
13   H        -5.7068   -0.8320   17.2696  H     
14   H        -3.8397   -0.6624   16.4963  H     
15   H        -6.6733    4.2171   17.4959  H     
16   H        -6.3076    6.0548   15.9885  H     
17   H        -5.2692    3.3322   12.9304  H     
18   H        -5.6444    1.5013   14.4365  H     
19   H        -6.4369    6.6066   13.3236  H     
20   H        -5.2195    5.6944   12.4173  H     
21   H        -4.7309    6.6466   13.8303  H     
@<TRIPOS>BOND
     1    1    2 2
     2    2    3 2
     3    2    4 1
     4    2    6 1
     5    4    5 1
     6    6    7 1
     7    6   11 2
     8    7    8 2
     9    8    9 1
    10    9   10 2
    11    9   12 1
    12   10   11 1
    13    4   13 1
    14    5   14 1
    15    7   15 1
    16    8   16 1
    17   10   17 1
    18   11   18 1
    19   12   19 1
    20   12   20 1
    21   12   21 1
@<TRIPOS>PROPERTY_DATA
  Total_Score	| 4.4027
  Crash		| -0.4890
  Polar		| 1.7061
  FragIndex	| 1
  FragRMSD	| 0.205

