@<TRIPOS>MOLECULE
BindingDB_11372
 18 18 0 0 0
SMALL
NO_CHARGES


@<TRIPOS>ATOM
1    O        -6.5706    0.1264   15.8922  O     
2    S        -6.8080    1.4155   16.7873  S     
3    O        -8.3494    1.3508   17.1592  O     
4    N        -5.9108    1.1728   18.1862  N     
5    O        -5.0760    0.1824   18.2639  O     
6    C        -6.4336    2.8830   15.9288  C     
7    C        -5.9523    2.8465   14.6006  C     
8    C        -5.6953    4.0457   13.9099  C     
9    C        -5.9092    5.2866   14.5430  C     
10   C        -6.3783    5.3296   15.8700  C     
11   C        -6.6416    4.1311   16.5599  C     
12   H        -5.9280    1.8401   18.8886  H     
13   H        -5.5971   -0.6293   18.0720  H     
14   H        -5.7905    1.9542   14.1238  H     
15   H        -5.3484    4.0175   12.9460  H     
16   H        -5.7182    6.1546   14.0388  H     
17   H        -6.5333    6.2317   16.3303  H     
18   H        -6.9885    4.1755   17.5198  H     
@<TRIPOS>BOND
     1    1    2 2
     2    2    3 2
     3    2    4 1
     4    2    6 1
     5    4    5 1
     6    6    7 1
     7    6   11 2
     8    7    8 2
     9    8    9 1
    10    9   10 2
    11   10   11 1
    12    4   12 1
    13    5   13 1
    14    7   14 1
    15    8   15 1
    16    9   16 1
    17   10   17 1
    18   11   18 1
@<TRIPOS>PROPERTY_DATA
  Total_Score	| 5.1685
  Crash		| -1.1594
  Polar		| 2.8901
  FragIndex	| 1
  FragRMSD	| 1.328

