@<TRIPOS>MOLECULE
BindingDB_11385
 22 22 0 0 0
SMALL
NO_CHARGES


@<TRIPOS>ATOM
1    O        -7.8739    0.8715   16.9268  O     
2    S        -6.3660    1.3419   17.1169  S     
3    O        -6.2391    1.7194   18.6573  O     
4    N        -5.4120    0.0130   16.7465  N     
5    O        -4.2103    0.1752   16.2730  O     
6    C        -6.2195    2.7489   16.1001  C     
7    C        -5.8236    2.6194   14.7488  C     
8    C        -5.6740    3.7612   13.9303  C     
9    C        -5.9329    5.0384   14.4635  C     
10   C        -6.3443    5.1728   15.8056  C     
11   C        -6.4940    4.0357   16.6132  C     
12   O        -5.7962    6.1665   13.7036  O     
13   C        -4.4254    6.4690   13.3517  C     
14   H        -5.6647   -0.8421   17.1103  H     
15   H        -3.7351   -0.6404   16.5487  H     
16   H        -5.6081    1.6961   14.3581  H     
17   H        -5.3651    3.6706   12.9566  H     
18   H        -6.5521    6.1027   16.1862  H     
19   H        -6.7817    4.1585   17.5900  H     
20   H        -3.7866    6.5910   14.2399  H     
21   H        -4.4127    7.4199   12.8077  H     
22   H        -4.0090    5.6695   12.7108  H     
@<TRIPOS>BOND
     1    1    2 2
     2    2    3 2
     3    2    4 1
     4    2    6 1
     5    4    5 1
     6    6    7 1
     7    6   11 2
     8    7    8 2
     9    8    9 1
    10    9   10 2
    11    9   12 1
    12   10   11 1
    13   12   13 1
    14    4   14 1
    15    5   15 1
    16    7   16 1
    17    8   17 1
    18   10   18 1
    19   11   19 1
    20   13   20 1
    21   13   21 1
    22   13   22 1
@<TRIPOS>PROPERTY_DATA
  Total_Score	| 4.8299
  Crash		| -0.4480
  Polar		| 1.8924
  FragIndex	| 1
  FragRMSD	| 0.104

