@<TRIPOS>MOLECULE
BindingDB_14697
 75 78 0 0 0
SMALL
NO_CHARGES


@<TRIPOS>ATOM
1    C        20.3986   14.3127   22.5193  C     
2    C        19.0087   14.1090   22.7151  C     
3    C        18.3989   12.8885   22.3629  C     
4    C        19.1705   11.8459   21.8164  C     
5    C        20.5520   12.0277   21.6238  C     
6    C        21.1567   13.2527   21.9630  C     
7    C        21.0202   15.5511   22.8523  C     
8    C        22.3076   18.0386   23.4450  C     
9    C        21.1416   17.9944   22.6483  C     
10   C        20.5060   16.7738   22.3591  C     
11   C        22.1759   15.5980   23.6634  C     
12   C        22.8157   16.8196   23.9510  C     
13   C        22.9950   19.3376   23.6977  C     
14   C        20.5671   19.5603   26.2569  C     
15   C        21.9851   20.0332   25.8619  C     
16   C        21.4971   21.2902   23.8104  C     
17   C        19.2853   21.4459   24.9748  C     
18   C        19.5069   20.6885   26.3089  C     
19   N        22.1345   20.2706   24.4339  N     
20   O        21.6620   21.4426   22.6021  O     
21   C        20.5346   22.2139   24.4440  C     
22   N        20.0695   23.2555   23.5597  N     
23   C        20.7689   24.2996   23.1270  C     
24   O        21.9204   24.4756   23.5095  O     
25   C        20.1582   25.2070   22.1562  C     
26   N        20.9148   26.4265   22.0196  N     
27   C        20.4494   27.6679   21.9517  C     
28   C        21.3792   28.7573   21.7948  C     
29   O        19.2480   27.9070   21.9565  O     
30   C        20.0183   24.5280   20.7571  C     
31   C        19.2695   25.3838   19.7957  C     
32   C        17.1499   26.3065   19.0281  C     
33   C        17.8658   25.4113   19.8318  C     
34   C        19.9361   26.2347   18.8850  C     
35   C        19.2424   27.1772   18.0793  C     
36   C        17.8037   27.2273   18.1678  C     
37   P        20.1558   28.0896   17.0879  P     
38   O        19.7420   29.4746   17.0016  O     
39   O        21.6397   28.2494   17.4891  O     
40   O        20.1767   27.4928   15.6642  O     
41   P        16.8341   28.2095   17.3185  P     
42   O        16.8370   27.7174   15.9640  O     
43   O        15.3544   28.2653   17.7733  O     
44   O        17.2871   29.6830   17.3304  O     
45   H        18.4277   14.8408   23.1282  H     
46   H        17.3969   12.7512   22.5165  H     
47   H        18.7323   10.9545   21.5669  H     
48   H        21.1109   11.2702   21.2251  H     
49   H        22.1576   13.3607   21.7908  H     
50   H        20.7574   18.8592   22.2537  H     
51   H        19.6760   16.7892   21.7645  H     
52   H        22.5785   14.7363   24.0421  H     
53   H        23.6526   16.8141   24.5428  H     
54   H        23.9255   19.2003   24.2518  H     
55   H        23.3099   19.7213   22.7225  H     
56   H        20.2402   18.7781   25.5705  H     
57   H        20.6195   19.1106   27.2545  H     
58   H        22.2562   20.9346   26.4198  H     
59   H        22.6762   19.2600   26.2075  H     
60   H        18.9278   20.7459   24.2115  H     
61   H        18.4748   22.1581   25.1618  H     
62   H        18.5553   20.2421   26.6099  H     
63   H        19.7878   21.4021   27.0864  H     
64   H        21.0211   22.7079   25.2965  H     
65   H        19.1585   23.1707   23.2261  H     
66   H        19.1551   25.4397   22.5304  H     
67   H        21.8779   26.3344   21.9305  H     
68   H        22.0536   28.7889   22.6524  H     
69   H        20.8688   29.7195   21.7250  H     
70   H        21.9669   28.6128   20.8867  H     
71   H        21.0177   24.2935   20.3704  H     
72   H        19.4851   23.5736   20.8416  H     
73   H        16.1313   26.2775   19.1125  H     
74   H        17.3497   24.7871   20.4649  H     
75   H        20.9535   26.1847   18.8575  H     
@<TRIPOS>BOND
     1    1    2 2
     2    1    6 1
     3    1    7 1
     4    2    3 1
     5    3    4 2
     6    4    5 1
     7    5    6 2
     8    7   10 1
     9    7   11 2
    10    8    9 1
    11    8   12 2
    12    8   13 1
    13    9   10 2
    14   11   12 1
    15   13   19 1
    16   14   15 1
    17   14   18 1
    18   15   19 1
    19   16   19 1
    20   16   20 2
    21   16   21 1
    22   17   18 1
    23   17   21 1
    24   21   22 1
    25   22   23 am
    26   23   24 2
    27   23   25 1
    28   25   26 1
    29   25   30 1
    30   26   27 am
    31   27   28 1
    32   27   29 2
    33   30   31 1
    34   31   33 1
    35   31   34 2
    36   32   33 2
    37   32   36 1
    38   34   35 1
    39   35   36 2
    40   35   37 1
    41   36   41 1
    42   37   38 2
    43   37   39 1
    44   37   40 1
    45   41   42 2
    46   41   43 1
    47   41   44 1
    48    2   45 1
    49    3   46 1
    50    4   47 1
    51    5   48 1
    52    6   49 1
    53    9   50 1
    54   10   51 1
    55   11   52 1
    56   12   53 1
    57   13   54 1
    58   13   55 1
    59   14   56 1
    60   14   57 1
    61   15   58 1
    62   15   59 1
    63   17   60 1
    64   17   61 1
    65   18   62 1
    66   18   63 1
    67   21   64 1
    68   22   65 1
    69   25   66 1
    70   26   67 1
    71   28   68 1
    72   28   69 1
    73   28   70 1
    74   30   71 1
    75   30   72 1
    76   32   73 1
    77   33   74 1
    78   34   75 1
@<TRIPOS>PROPERTY_DATA
  Total_Score	| 9.4329
  Crash		| -1.6849
  Polar		| 7.6891
  FragIndex	| 1
  FragRMSD	| 1.127

