@<TRIPOS>MOLECULE
BindingDB_14695
 78 81 0 0 0
SMALL
NO_CHARGES


@<TRIPOS>ATOM
1    C        20.3848   14.4312   22.6528  C     
2    C        21.1511   13.4094   22.0352  C     
3    C        20.5610   12.2004   21.6321  C     
4    C        19.1842   11.9845   21.8405  C     
5    C        18.4058   12.9859   22.4495  C     
6    C        18.9982   14.1961   22.8510  C     
7    C        20.9856   15.6680   23.0224  C     
8    C        22.3386   18.1238   23.6168  C     
9    C        22.6175   16.9475   24.3478  C     
10   C        21.9429   15.7420   24.0666  C     
11   C        20.6856   16.8575   22.3151  C     
12   C        21.3500   18.0610   22.6054  C     
13   C        23.0507   19.4010   23.8819  C     
14   C        20.5248   19.7233   26.3146  C     
15   C        21.9498   20.2133   25.9495  C     
16   C        21.5188   21.3235   23.8079  C     
17   C        19.2635   21.5255   24.9011  C     
18   C        19.4512   20.8365   26.2784  C     
19   N        22.1543   20.3642   24.5153  N     
20   O        21.7332   21.4118   22.6015  O     
21   C        20.5255   22.2718   24.3608  C     
22   N        20.0692   23.2658   23.4156  N     
23   C        20.6980   24.3797   23.0490  C     
24   O        21.7742   24.6781   23.5642  O     
25   C        20.0904   25.2358   22.0314  C     
26   N        20.8550   26.4434   21.8136  N     
27   C        20.3897   27.6813   21.7332  C     
28   C        21.3072   28.7533   21.4264  C     
29   O        19.2013   27.9400   21.8588  O     
30   C        19.9555   24.4738   20.6776  C     
31   C        19.3407   25.3200   19.6145  C     
32   C        17.3551   26.2203   18.5126  C     
33   C        17.9384   25.4121   19.4986  C     
34   C        20.1432   26.1112   18.7590  C     
35   C        19.5724   26.9612   17.7803  C     
36   C        18.1586   26.9921   17.6436  C     
37   C        16.9985   28.9811   17.0129  C     
38   O        17.5462   27.7005   16.6341  O     
39   C        15.5812   28.8739   17.3788  C     
40   O        15.1881   28.9642   18.6680  O     
41   O        14.6528   28.6062   16.4344  O     
42   P        20.5178   27.8795   16.8587  P     
43   O        21.9047   27.9210   17.2578  O     
44   O        20.4623   27.3746   15.4082  O     
45   O        20.0393   29.3416   16.8688  O     
46   H        22.1491   13.5481   21.8584  H     
47   H        21.1268   11.4734   21.1890  H     
48   H        18.7565   11.1034   21.5489  H     
49   H        17.4059   12.8289   22.5994  H     
50   H        18.4110   14.9049   23.2949  H     
51   H        23.3124   16.9586   25.0995  H     
52   H        22.1629   14.9120   24.6225  H     
53   H        20.0042   16.8443   21.5507  H     
54   H        21.1207   18.8915   22.0569  H     
55   H        23.9224   19.2364   24.5199  H     
56   H        23.4740   19.7619   22.9404  H     
57   H        20.2338   18.9047   25.6498  H     
58   H        20.5472   19.3198   27.3338  H     
59   H        22.1743   21.1511   26.4659  H     
60   H        22.6379   19.4809   26.3818  H     
61   H        18.9190   20.7897   24.1672  H     
62   H        18.4502   22.2480   25.0370  H     
63   H        18.4938   20.3985   26.5776  H     
64   H        19.7055   21.5925   27.0258  H     
65   H        20.9753   22.8153   25.1968  H     
66   H        19.2078   23.0988   23.0000  H     
67   H        19.0827   25.4852   22.3839  H     
68   H        21.8042   26.3274   21.6356  H     
69   H        22.0947   28.7891   22.1839  H     
70   H        20.8039   29.7252   21.4066  H     
71   H        21.7576   28.5841   20.4464  H     
72   H        20.9388   24.1219   20.3561  H     
73   H        19.3400   23.5774   20.8094  H     
74   H        16.3356   26.2560   18.4362  H     
75   H        17.3301   24.8813   20.1305  H     
76   H        21.1600   26.0738   18.8763  H     
77   H        17.5624   29.4495   17.8262  H     
78   H        17.0700   29.6383   16.1462  H     
@<TRIPOS>BOND
     1    1    2 2
     2    1    6 1
     3    1    7 1
     4    2    3 1
     5    3    4 2
     6    4    5 1
     7    5    6 2
     8    7   10 1
     9    7   11 2
    10    8    9 1
    11    8   12 2
    12    8   13 1
    13    9   10 2
    14   11   12 1
    15   13   19 1
    16   14   15 1
    17   14   18 1
    18   15   19 1
    19   16   19 1
    20   16   20 2
    21   16   21 1
    22   17   18 1
    23   17   21 1
    24   21   22 1
    25   22   23 am
    26   23   24 2
    27   23   25 1
    28   25   26 1
    29   25   30 1
    30   26   27 am
    31   27   28 1
    32   27   29 2
    33   30   31 1
    34   31   33 1
    35   31   34 2
    36   32   33 2
    37   32   36 1
    38   34   35 1
    39   35   36 2
    40   35   42 1
    41   36   38 1
    42   37   38 1
    43   37   39 1
    44   39   40 2
    45   39   41 1
    46   42   43 2
    47   42   44 1
    48   42   45 1
    49    2   46 1
    50    3   47 1
    51    4   48 1
    52    5   49 1
    53    6   50 1
    54    9   51 1
    55   10   52 1
    56   11   53 1
    57   12   54 1
    58   13   55 1
    59   13   56 1
    60   14   57 1
    61   14   58 1
    62   15   59 1
    63   15   60 1
    64   17   61 1
    65   17   62 1
    66   18   63 1
    67   18   64 1
    68   21   65 1
    69   22   66 1
    70   25   67 1
    71   26   68 1
    72   28   69 1
    73   28   70 1
    74   28   71 1
    75   30   72 1
    76   30   73 1
    77   32   74 1
    78   33   75 1
    79   34   76 1
    80   37   77 1
    81   37   78 1
@<TRIPOS>PROPERTY_DATA
  Total_Score	| 12.7183
  Crash		| -1.5931
  Polar		| 11.0753
  FragIndex	| 1
  FragRMSD	| 0.586

