@<TRIPOS>MOLECULE
BindingDB_26204
 75 78 0 0 0
SMALL
NO_CHARGES


@<TRIPOS>ATOM
1    C        35.2640   -2.9938   10.3166  C     
2    C        34.1520   -2.2094    9.5656  C     
3    C        32.6869   -2.7523    9.6331  C     
4    C        35.3803   -4.4845    9.8806  C     
5    C        36.2881   -5.8419   11.6698  C     
6    C        36.6779   -5.1841   10.3461  C     
7    N        34.3203   -5.2745   10.4458  N     
8    C        34.7828   -6.1670   11.4973  C     
9    C        34.0991   -6.0958   12.7872  C     
10   O        33.1947   -5.2880   12.9621  O     
11   N        34.5285   -6.8632   13.7778  N     
12   C        33.5050   -8.2274   15.4957  C     
13   C        31.7933   -9.9380   15.0263  C     
14   C        32.4586   -8.7455   14.6904  C     
15   C        33.8510   -8.9661   16.6630  C     
16   C        33.1978  -10.1618   16.9947  C     
17   C        32.1684  -10.6513   16.1761  C     
18   C        33.0544   -5.2368    9.9924  C     
19   O        32.2618   -6.0753   10.4149  O     
20   C        32.5463   -4.2119    9.0659  C     
21   N        31.1586   -4.4271    8.7243  N     
22   C        30.6091   -4.4320    7.5159  C     
23   C        34.0630   -6.8827   15.1402  C     
24   C        35.1825   -6.3584   15.9954  C     
25   C        36.4904   -6.8980   15.8985  C     
26   C        34.9367   -5.3523   16.9618  C     
27   C        35.9802   -4.8724   17.7789  C     
28   C        37.2757   -5.3937   17.6424  C     
29   C        37.5353   -6.4081   16.7031  C     
30   O        31.2831   -4.2795    6.5024  O     
31   C        29.1719   -4.6360    7.3891  C     
32   N        28.5422   -3.4069    6.8818  N     
33   C        28.8131   -5.8567    6.4916  C     
34   C        29.5937   -7.1487    6.8408  C     
35   C        32.0147   -2.5639   11.0324  C     
36   N        31.3732   -1.2526   11.1986  N     
37   H        36.2129   -2.4928   10.1047  H     
38   H        35.1005   -2.9324   11.3956  H     
39   H        34.1616   -1.1820    9.9390  H     
40   H        34.4460   -2.1544    8.5132  H     
41   H        32.1270   -2.1094    8.9444  H     
42   H        35.3766   -4.5446    8.7887  H     
43   H        36.8807   -6.7440   11.8565  H     
44   H        36.4652   -5.1282   12.4817  H     
45   H        36.9618   -5.9634    9.6288  H     
46   H        37.5253   -4.5005   10.4598  H     
47   H        34.6827   -7.1886   11.1144  H     
48   H        35.2801   -7.4424   13.5758  H     
49   H        31.0232  -10.2793   14.4491  H     
50   H        32.1541   -8.2436   13.8532  H     
51   H        34.5675   -8.6280   17.3148  H     
52   H        33.4590  -10.6654   17.8499  H     
53   H        31.6788  -11.5104   16.4265  H     
54   H        33.1387   -4.2885    8.1484  H     
55   H        30.5438   -4.5176    9.4728  H     
56   H        33.2152   -6.2055   15.2487  H     
57   H        36.6955   -7.6378   15.2262  H     
58   H        34.0041   -4.9546   17.0791  H     
59   H        35.7887   -4.1476   18.4775  H     
60   H        38.0365   -5.0348   18.2306  H     
61   H        38.4752   -6.7926   16.6127  H     
62   H        28.7253   -4.8153    8.3721  H     
63   H        28.6901   -2.6365    7.5334  H     
64   H        27.5404   -3.5717    6.7750  H     
65   H        28.9137   -3.1595    5.9599  H     
66   H        27.7480   -6.0680    6.6001  H     
67   H        28.9935   -5.6062    5.4434  H     
68   H        30.6474   -7.0419    6.5683  H     
69   H        29.1864   -7.9936    6.2896  H     
70   H        29.5221   -7.3645    7.9100  H     
71   H        31.2309   -3.3081   11.1853  H     
72   H        32.7481   -2.6853   11.8284  H     
73   H        32.0579   -0.5074   11.0643  H     
74   H        30.9822   -1.1882   12.1418  H     
75   H        30.6170   -1.1532   10.5162  H     
@<TRIPOS>BOND
     1    1    2 1
     2    4    1 1
     3    2    3 1
     4    3   20 1
     5    3   35 1
     6    4    6 1
     7    4    7 1
     8    5    6 1
     9    5    8 1
    10    7    8 1
    11    7   18 1
    12    8    9 1
    13    9   10 2
    14    9   11 am
    15   11   23 1
    16   12   14 2
    17   12   15 1
    18   12   23 1
    19   13   14 1
    20   13   17 2
    21   15   16 2
    22   16   17 1
    23   18   19 2
    24   18   20 1
    25   20   21 1
    26   21   22 am
    27   22   30 2
    28   22   31 1
    29   23   24 1
    30   24   25 2
    31   24   26 1
    32   25   29 1
    33   26   27 2
    34   27   28 1
    35   28   29 2
    36   31   32 1
    37   31   33 1
    38   33   34 1
    39   35   36 1
    40    1   37 1
    41    1   38 1
    42    2   39 1
    43    2   40 1
    44    3   41 1
    45    4   42 1
    46    5   43 1
    47    5   44 1
    48    6   45 1
    49    6   46 1
    50    8   47 1
    51   11   48 1
    52   13   49 1
    53   14   50 1
    54   15   51 1
    55   16   52 1
    56   17   53 1
    57   20   54 1
    58   21   55 1
    59   23   56 1
    60   25   57 1
    61   26   58 1
    62   27   59 1
    63   28   60 1
    64   29   61 1
    65   31   62 1
    66   32   63 1
    67   32   64 1
    68   32   65 1
    69   33   66 1
    70   33   67 1
    71   34   68 1
    72   34   69 1
    73   34   70 1
    74   35   71 1
    75   35   72 1
    76   36   73 1
    77   36   74 1
    78   36   75 1
@<TRIPOS>PROPERTY_DATA
  Total_Score	| 9.6966
  Crash		| -1.5903
  Polar		| 5.0088
  FragIndex	| 1
  FragRMSD	| 0.412

