@<TRIPOS>MOLECULE
BindingDB_13213
 75 78 0 0 0
SMALL
NO_CHARGES


@<TRIPOS>ATOM
1    C        29.5669   -4.0419    7.3673  C     
2    C        31.0083   -4.0965    7.5917  C     
3    O        31.7463   -4.2630    6.6301  O     
4    N        31.5032   -4.0364    8.8189  N     
5    C        29.0281   -5.3196    6.6263  C     
6    C        29.7230   -6.6389    7.0262  C     
7    C        32.9019   -4.0830    9.1807  C     
8    C        33.2381   -5.2473   10.0039  C     
9    C        35.7520   -3.3546   10.5290  C     
10   C        34.7663   -2.3586    9.8513  C     
11   C        33.2604   -2.7447    9.9047  C     
12   O        32.3247   -6.0352   10.2619  O     
13   C        35.6464   -4.8124    9.9866  C     
14   C        36.8068   -5.7466   10.3994  C     
15   C        34.7782   -6.4800   11.4992  C     
16   C        36.3134   -6.3572   11.7065  C     
17   N        34.4674   -5.4866   10.4827  N     
18   C        34.0543   -6.3894   12.7641  C     
19   O        33.0775   -5.6476   12.8717  O     
20   N        34.4715   -7.0748   13.8292  N     
21   C        33.8984   -7.0724   15.1563  C     
22   C        33.4434   -8.4764   15.4330  C     
23   C        31.8434  -10.2927   15.0027  C     
24   C        32.5868  -11.1549   15.8269  C     
25   C        33.7613  -10.6994   16.4387  C     
26   C        34.1867   -9.3685   16.2416  C     
27   C        32.2818   -8.9718   14.7852  C     
28   C        34.7472   -6.4203   16.2106  C     
29   C        36.2174   -5.1081   18.2547  C     
30   C        35.1684   -5.9648   18.5965  C     
31   C        34.4422   -6.6286   17.5810  C     
32   C        35.8072   -5.5358   15.8929  C     
33   C        36.5267   -4.8734   16.8937  C     
34   N        29.1068   -2.7838    6.6565  N     
35   C        28.4937   -1.7747    7.5780  C     
36   C        30.1084   -2.1089    5.7623  C     
37   H        29.0632   -4.0794    8.3335  H     
38   H        30.8628   -3.9843    9.5477  H     
39   H        27.9605   -5.4344    6.8631  H     
40   H        29.1206   -5.1960    5.5475  H     
41   H        30.7345   -6.6638    6.5921  H     
42   H        29.1674   -7.4983    6.6481  H     
43   H        29.8047   -6.7325    8.1161  H     
44   H        33.5139   -4.1463    8.2781  H     
45   H        36.7678   -2.9827   10.3583  H     
46   H        35.5830   -3.3514   11.6109  H     
47   H        34.8918   -1.3841   10.3343  H     
48   H        35.0601   -2.2368    8.8061  H     
49   H        32.7174   -1.9182    9.4302  H     
50   H        32.9366   -2.7785   10.9480  H     
51   H        35.6662   -4.7803    8.8916  H     
52   H        36.9361   -6.5426    9.6575  H     
53   H        37.7619   -5.2345   10.5222  H     
54   H        34.5661   -7.4626   11.0733  H     
55   H        36.7724   -7.3291   11.9118  H     
56   H        36.5640   -5.6709   12.5282  H     
57   H        35.2728   -7.6104   13.7141  H     
58   H        33.0003   -6.4461   15.1696  H     
59   H        31.0000  -10.6274   14.5417  H     
60   H        32.2894  -12.1228   15.9573  H     
61   H        34.3270  -11.3307   17.0067  H     
62   H        35.0426   -9.0612   16.7152  H     
63   H        31.7405   -8.3763   14.1595  H     
64   H        36.7279   -4.6016   18.9835  H     
65   H        34.9203   -6.1109   19.5825  H     
66   H        33.6948   -7.2728   17.8569  H     
67   H        36.0625   -5.3718   14.9213  H     
68   H        37.2748   -4.2295   16.6461  H     
69   H        28.3549   -3.0811    6.0270  H     
70   H        27.6115   -2.1963    8.0697  H     
71   H        28.1650   -0.8864    7.0338  H     
72   H        29.2024   -1.4619    8.3482  H     
73   H        30.8715   -1.5828    6.3518  H     
74   H        29.6197   -1.3837    5.1172  H     
75   H        30.6175   -2.8362    5.1232  H     
@<TRIPOS>BOND
     1    1    2 1
     2    1    5 1
     3    1   34 1
     4    2    3 2
     5    2    4 am
     6    7    4 1
     7    5    6 1
     8    7    8 1
     9    7   11 1
    10    8   12 2
    11    8   17 1
    12    9   10 1
    13   13    9 1
    14   10   11 1
    15   13   14 1
    16   13   17 1
    17   14   16 1
    18   15   16 1
    19   15   17 1
    20   15   18 1
    21   18   19 2
    22   18   20 am
    23   20   21 1
    24   21   22 1
    25   21   28 1
    26   22   26 2
    27   22   27 1
    28   23   24 1
    29   23   27 2
    30   24   25 2
    31   25   26 1
    32   28   31 2
    33   28   32 1
    34   29   30 2
    35   29   33 1
    36   30   31 1
    37   32   33 2
    38   34   35 1
    39   34   36 1
    40    1   37 1
    41    4   38 1
    42    5   39 1
    43    5   40 1
    44    6   41 1
    45    6   42 1
    46    6   43 1
    47    7   44 1
    48    9   45 1
    49    9   46 1
    50   10   47 1
    51   10   48 1
    52   11   49 1
    53   11   50 1
    54   13   51 1
    55   14   52 1
    56   14   53 1
    57   15   54 1
    58   16   55 1
    59   16   56 1
    60   20   57 1
    61   21   58 1
    62   23   59 1
    63   24   60 1
    64   25   61 1
    65   26   62 1
    66   27   63 1
    67   29   64 1
    68   30   65 1
    69   31   66 1
    70   32   67 1
    71   33   68 1
    72   34   69 1
    73   35   70 1
    74   35   71 1
    75   35   72 1
    76   36   73 1
    77   36   74 1
    78   36   75 1
@<TRIPOS>PROPERTY_DATA
  Total_Score	| 8.8238
  Crash		| -2.9922
  Polar		| 5.9494
  FragIndex	| 1
  FragRMSD	| 0.892

