@<TRIPOS>MOLECULE
BindingDB_26205
 78 81 0 0 0
SMALL
NO_CHARGES


@<TRIPOS>ATOM
1    C        35.4649   -3.1373   10.3113  C     
2    C        34.3461   -2.2728    9.6743  C     
3    C        32.8718   -2.7787    9.8303  C     
4    C        35.4884   -4.6100    9.8083  C     
5    C        36.3846   -6.0567   11.5071  C     
6    C        36.7655   -5.3782   10.1971  C     
7    N        34.4158   -5.4001   10.3573  N     
8    C        34.8748   -6.3716   11.3456  C     
9    C        34.2090   -6.3856   12.6403  C     
10   O        33.2118   -5.7011   12.8331  O     
11   N        34.7042   -7.1190   13.6509  N     
12   C        33.7949   -5.8027   15.5712  C     
13   C        34.0692   -3.3555   15.6774  C     
14   C        34.5800   -4.6295   15.3679  C     
15   C        32.5002   -5.6373   16.1215  C     
16   C        31.9949   -4.3710   16.4355  C     
17   C        32.7806   -3.2239   16.2104  C     
18   C        33.1527   -5.3061    9.9127  C     
19   O        32.3381   -6.1608   10.2532  O     
20   C        32.6492   -4.1685    9.1144  C     
21   N        31.2450   -4.3058    8.7989  N     
22   C        30.6818   -4.3523    7.5946  C     
23   C        34.3483   -7.1044   15.0554  C     
24   C        33.5689   -8.3475   15.3819  C     
25   C        33.8617   -9.0984   16.5493  C     
26   C        32.4638   -8.7466   14.5924  C     
27   C        31.6963   -9.8709   14.9306  C     
28   C        32.0137  -10.6179   16.0824  C     
29   C        33.0965  -10.2327   16.8876  C     
30   O        31.3572   -4.2623    6.5764  O     
31   C        29.2520   -4.5988    7.4702  C     
32   N        28.5844   -3.3971    6.9456  N     
33   C        28.9007   -5.8285    6.5824  C     
34   C        29.6140   -7.1392    6.9949  C     
35   C        32.3449   -2.7653   11.3061  C     
36   C        32.2339   -1.3950   12.0204  C     
37   N        31.2239   -0.5330   11.4006  N     
38   H        36.4199   -2.6681   10.0543  H     
39   H        35.3797   -3.1163   11.3999  H     
40   H        34.4239   -1.2665   10.0864  H     
41   H        34.5656   -2.1798    8.6101  H     
42   H        32.2707   -2.0521    9.2758  H     
43   H        35.4521   -4.6123    8.7150  H     
44   H        36.9740   -6.9664   11.6717  H     
45   H        36.5745   -5.3608   12.3337  H     
46   H        36.9872   -6.1497    9.4481  H     
47   H        37.6475   -4.7406   10.3032  H     
48   H        34.7678   -7.3695   10.9132  H     
49   H        35.4561   -7.6931   13.4176  H     
50   H        34.6371   -2.5216   15.5039  H     
51   H        35.5114   -4.6948   14.9597  H     
52   H        31.8928   -6.4425   16.2936  H     
53   H        31.0497   -4.2738   16.8187  H     
54   H        32.4014   -2.2950   16.4290  H     
55   H        33.2158   -4.1663    8.1791  H     
56   H        30.6378   -4.3783    9.5530  H     
57   H        35.3108   -7.2037   15.5601  H     
58   H        34.6304   -8.8257   17.1661  H     
59   H        32.2127   -8.2199   13.7526  H     
60   H        30.9026  -10.1489   14.3495  H     
61   H        31.4608  -11.4375   16.3242  H     
62   H        33.3263  -10.7744   17.7268  H     
63   H        28.8101   -4.7735    8.4553  H     
64   H        28.6675   -2.6229    7.6053  H     
65   H        27.5964   -3.6039    6.7958  H     
66   H        28.9700   -3.1250    6.0380  H     
67   H        27.8198   -6.0065    6.6384  H     
68   H        29.1403   -5.6100    5.5368  H     
69   H        30.6838   -7.0701    6.7847  H     
70   H        29.2106   -7.9803    6.4295  H     
71   H        29.4694   -7.3336    8.0581  H     
72   H        31.3504   -3.2172   11.3327  H     
73   H        32.9935   -3.3854   11.9198  H     
74   H        31.9360   -1.5616   13.0577  H     
75   H        33.1936   -0.8790   12.0305  H     
76   H        31.4593   -0.3673   10.4219  H     
77   H        31.1897    0.3608   11.8952  H     
78   H        30.3101   -0.9858   11.4591  H     
@<TRIPOS>BOND
     1    1    2 1
     2    4    1 1
     3    2    3 1
     4    3   20 1
     5    3   35 1
     6    4    6 1
     7    4    7 1
     8    5    6 1
     9    5    8 1
    10    7    8 1
    11    7   18 1
    12    8    9 1
    13    9   10 2
    14    9   11 am
    15   11   23 1
    16   12   14 2
    17   12   15 1
    18   12   23 1
    19   13   14 1
    20   13   17 2
    21   15   16 2
    22   16   17 1
    23   18   19 2
    24   18   20 1
    25   20   21 1
    26   21   22 am
    27   22   30 2
    28   22   31 1
    29   23   24 1
    30   24   25 2
    31   24   26 1
    32   25   29 1
    33   26   27 2
    34   27   28 1
    35   28   29 2
    36   31   32 1
    37   31   33 1
    38   33   34 1
    39   35   36 1
    40   36   37 1
    41    1   38 1
    42    1   39 1
    43    2   40 1
    44    2   41 1
    45    3   42 1
    46    4   43 1
    47    5   44 1
    48    5   45 1
    49    6   46 1
    50    6   47 1
    51    8   48 1
    52   11   49 1
    53   13   50 1
    54   14   51 1
    55   15   52 1
    56   16   53 1
    57   17   54 1
    58   20   55 1
    59   21   56 1
    60   23   57 1
    61   25   58 1
    62   26   59 1
    63   27   60 1
    64   28   61 1
    65   29   62 1
    66   31   63 1
    67   32   64 1
    68   32   65 1
    69   32   66 1
    70   33   67 1
    71   33   68 1
    72   34   69 1
    73   34   70 1
    74   34   71 1
    75   35   72 1
    76   35   73 1
    77   36   74 1
    78   36   75 1
    79   37   76 1
    80   37   77 1
    81   37   78 1
@<TRIPOS>PROPERTY_DATA
  Total_Score	| 10.8394
  Crash		| -1.7005
  Polar		| 5.1535
  FragIndex	| 1
  FragRMSD	| 0.960

