@<TRIPOS>MOLECULE
BindingDB_13152
 71 73 0 0 0
SMALL
NO_CHARGES


@<TRIPOS>ATOM
1    C        29.2201   -4.6391    7.4654  C     
2    N        28.5806   -3.4170    6.9482  N     
3    C        30.6509   -4.4134    7.6152  C     
4    O        31.3491   -4.3334    6.6148  O     
5    C        32.5482   -4.0077    9.1941  C     
6    C        33.0757   -4.9797   10.1748  C     
7    N        31.1786   -4.3097    8.8254  N     
8    C        32.6748   -2.5222    9.7066  C     
9    C        33.2281   -1.5892    8.5851  C     
10   C        31.3732   -1.9210   10.3103  C     
11   O        32.2625   -5.6547   10.8071  O     
12   C        36.7426   -4.8659   10.5231  C     
13   C        35.4663   -4.4938    9.7558  C     
14   C        36.4056   -6.2476   11.0838  C     
15   N        34.3891   -5.1665   10.4363  N     
16   C        34.8843   -6.1731   11.3534  C     
17   C        34.5808   -5.9052   12.7605  C     
18   O        34.6607   -4.7602   13.1868  O     
19   N        34.3220   -6.9281   13.5638  N     
20   C        34.0063   -6.8839   14.9716  C     
21   C        33.4510   -8.2161   15.4036  C     
22   C        33.8762   -8.9491   16.5488  C     
23   C        33.2488  -10.1475   16.9267  C     
24   C        32.1768  -10.6489   16.1710  C     
25   C        31.7382   -9.9569   15.0299  C     
26   C        32.3680   -8.7542   14.6572  C     
27   C        35.1722   -6.3616   15.7700  C     
28   C        37.5402   -6.4633   16.4190  C     
29   C        37.3557   -5.3759   17.2956  C     
30   C        36.0808   -4.8112   17.4473  C     
31   C        34.9943   -5.2999   16.6944  C     
32   C        36.4532   -6.9611   15.6806  C     
33   C        28.8723   -5.8441    6.5416  C     
34   C        29.5630   -7.1670    6.9429  C     
35   H        28.7492   -4.8255    8.4372  H     
36   H        28.7086   -2.6460    7.6041  H     
37   H        27.5810   -3.5945    6.8276  H     
38   H        28.9532   -3.1625    6.0309  H     
39   H        33.1707   -4.1487    8.3075  H     
40   H        30.5489   -4.3651    9.5697  H     
41   H        33.4081   -2.4697   10.5082  H     
42   H        34.2371   -1.9004    8.2987  H     
43   H        33.2873   -0.5549    8.9331  H     
44   H        32.5914   -1.6232    7.6993  H     
45   H        30.6334   -1.7186    9.5279  H     
46   H        31.5869   -0.9901   10.8316  H     
47   H        30.9372   -2.6189   11.0294  H     
48   H        37.6218   -4.8863    9.8748  H     
49   H        36.9113   -4.1595   11.3416  H     
50   H        35.3662   -3.4097    9.7419  H     
51   H        35.5277   -4.8562    8.7286  H     
52   H        36.6117   -6.9993   10.3135  H     
53   H        37.0004   -6.4832   11.9678  H     
54   H        34.4545   -7.1398   11.0659  H     
55   H        34.3041   -7.8039   13.1490  H     
56   H        33.1783   -6.1794   15.0789  H     
57   H        34.6383   -8.6153   17.1447  H     
58   H        33.5627  -10.6485   17.7592  H     
59   H        31.7126  -11.5129   16.4532  H     
60   H        30.9533  -10.3193   14.4808  H     
61   H        32.0217   -8.2697   13.8267  H     
62   H        38.4634   -6.8863   16.3231  H     
63   H        38.1488   -5.0000   17.8179  H     
64   H        35.9389   -4.0365   18.1013  H     
65   H        34.0728   -4.8792   16.8264  H     
66   H        36.6046   -7.7588   15.0563  H     
67   H        27.7877   -6.0108    6.5806  H     
68   H        29.1269   -5.6030    5.5069  H     
69   H        30.6310   -7.1172    6.7252  H     
70   H        29.1377   -7.9976    6.3770  H     
71   H        29.4232   -7.3691    8.0070  H     
@<TRIPOS>BOND
     1    1    2 1
     2    1    3 1
     3    1   33 1
     4    3    4 2
     5    3    7 am
     6    5    6 1
     7    5    7 1
     8    5    8 1
     9    6   11 2
    10    6   15 am
    11    8    9 1
    12    8   10 1
    13   12   13 1
    14   12   14 1
    15   13   15 1
    16   14   16 1
    17   15   16 1
    18   16   17 1
    19   17   18 2
    20   17   19 am
    21   19   20 1
    22   20   21 1
    23   20   27 1
    24   21   22 2
    25   21   26 1
    26   22   23 1
    27   23   24 2
    28   24   25 1
    29   25   26 2
    30   27   31 1
    31   27   32 2
    32   28   29 2
    33   28   32 1
    34   29   30 1
    35   30   31 2
    36   33   34 1
    37    1   35 1
    38    2   36 1
    39    2   37 1
    40    2   38 1
    41    5   39 1
    42    7   40 1
    43    8   41 1
    44    9   42 1
    45    9   43 1
    46    9   44 1
    47   10   45 1
    48   10   46 1
    49   10   47 1
    50   12   48 1
    51   12   49 1
    52   13   50 1
    53   13   51 1
    54   14   52 1
    55   14   53 1
    56   16   54 1
    57   19   55 1
    58   20   56 1
    59   22   57 1
    60   23   58 1
    61   24   59 1
    62   25   60 1
    63   26   61 1
    64   28   62 1
    65   29   63 1
    66   30   64 1
    67   31   65 1
    68   32   66 1
    69   33   67 1
    70   33   68 1
    71   34   69 1
    72   34   70 1
    73   34   71 1
@<TRIPOS>PROPERTY_DATA
  Total_Score	| 8.8271
  Crash		| -1.6923
  Polar		| 4.7255
  FragIndex	| 1
  FragRMSD	| 0.326

