@<TRIPOS>MOLECULE
BindingDB_13151
 68 70 0 0 0
SMALL
NO_CHARGES


@<TRIPOS>ATOM
1    C        29.2242   -4.6879    7.4586  C     
2    N        28.6010   -3.4469    6.9710  N     
3    C        30.6587   -4.5040    7.6191  C     
4    O        31.3655   -4.4266    6.6183  O     
5    C        32.5390   -4.0852    9.2097  C     
6    C        33.0878   -5.0282   10.1996  C     
7    N        31.1795   -4.4171    8.8324  N     
8    C        28.8659   -5.8628    6.5157  C     
9    C        32.6107   -2.5924    9.7143  C     
10   C        33.0897   -1.6191    8.5925  C     
11   C        31.2920   -2.0581   10.3531  C     
12   O        32.2847   -5.6975   10.8494  O     
13   C        36.7598   -4.8922   10.5038  C     
14   C        35.4642   -4.5262    9.7599  C     
15   C        36.4402   -6.2633   11.1021  C     
16   N        34.4020   -5.2123   10.4491  N     
17   C        34.9181   -6.1991   11.3725  C     
18   C        34.6304   -5.9232   12.7785  C     
19   O        34.5951   -4.7540   13.1617  O     
20   N        34.4454   -6.9317   13.6118  N     
21   C        34.0855   -6.8682   15.0034  C     
22   C        33.4789   -8.1839   15.4248  C     
23   C        33.8228   -8.8887   16.6146  C     
24   C        33.1711  -10.0768   16.9762  C     
25   C        32.1578  -10.6009   16.1646  C     
26   C        31.7916   -9.9362   14.9856  C     
27   C        32.4452   -8.7391   14.6319  C     
28   C        35.2502   -6.3472   15.8075  C     
29   C        37.3715   -6.7218   16.9945  C     
30   C        37.3907   -5.3806   17.4108  C     
31   C        36.3488   -4.5241   17.0347  C     
32   C        35.2905   -5.0012   16.2349  C     
33   C        36.3064   -7.2054   16.2117  C     
34   H        28.7585   -4.9018    8.4258  H     
35   H        28.9656   -3.1867    6.0514  H     
36   H        28.7422   -2.6855    7.6370  H     
37   H        27.6037   -3.6150    6.8475  H     
38   H        33.1643   -4.2039    8.3177  H     
39   H        30.5470   -4.4781    9.5713  H     
40   H        29.3939   -6.7720    6.8156  H     
41   H        29.1334   -5.6196    5.4854  H     
42   H        27.7922   -6.0601    6.5602  H     
43   H        33.3563   -2.5077   10.5101  H     
44   H        34.0675   -1.9275    8.2111  H     
45   H        33.1833   -0.6006    8.9773  H     
46   H        32.3818   -1.6180    7.7601  H     
47   H        30.5396   -1.8711    9.5802  H     
48   H        31.4702   -1.1288   10.8924  H     
49   H        30.8903   -2.7952   11.0531  H     
50   H        37.6226   -4.9268    9.8339  H     
51   H        36.9513   -4.1750   11.3082  H     
52   H        35.3564   -3.4441    9.7695  H     
53   H        35.5115   -4.8809    8.7307  H     
54   H        36.6626   -7.0344   10.3568  H     
55   H        37.0414   -6.4665   11.9955  H     
56   H        34.4957   -7.1760   11.1045  H     
57   H        34.4958   -7.8216   13.2213  H     
58   H        33.2557   -6.1554   15.0748  H     
59   H        34.5300   -8.5265   17.2517  H     
60   H        33.4244  -10.5571   17.8454  H     
61   H        31.6766  -11.4621   16.4336  H     
62   H        31.0486  -10.3166   14.3970  H     
63   H        32.1453   -8.2738   13.7719  H     
64   H        38.1282   -7.3508   17.2752  H     
65   H        38.1590   -5.0310   17.9957  H     
66   H        36.3451   -3.5507   17.3507  H     
67   H        34.5385   -4.3566   15.9823  H     
68   H        36.3045   -8.1885   15.9314  H     
@<TRIPOS>BOND
     1    1    2 1
     2    1    3 1
     3    1    8 1
     4    3    4 2
     5    3    7 am
     6    5    6 1
     7    5    7 1
     8    5    9 1
     9    6   12 2
    10    6   16 am
    11    9   10 1
    12    9   11 1
    13   13   14 1
    14   13   15 1
    15   14   16 1
    16   15   17 1
    17   16   17 1
    18   17   18 1
    19   18   19 2
    20   18   20 am
    21   20   21 1
    22   21   22 1
    23   21   28 1
    24   22   23 2
    25   22   27 1
    26   23   24 1
    27   24   25 2
    28   25   26 1
    29   26   27 2
    30   28   32 1
    31   28   33 2
    32   29   30 2
    33   29   33 1
    34   30   31 1
    35   31   32 2
    36    1   34 1
    37    2   35 1
    38    2   36 1
    39    2   37 1
    40    5   38 1
    41    7   39 1
    42    8   40 1
    43    8   41 1
    44    8   42 1
    45    9   43 1
    46   10   44 1
    47   10   45 1
    48   10   46 1
    49   11   47 1
    50   11   48 1
    51   11   49 1
    52   13   50 1
    53   13   51 1
    54   14   52 1
    55   14   53 1
    56   15   54 1
    57   15   55 1
    58   17   56 1
    59   20   57 1
    60   21   58 1
    61   23   59 1
    62   24   60 1
    63   25   61 1
    64   26   62 1
    65   27   63 1
    66   29   64 1
    67   30   65 1
    68   31   66 1
    69   32   67 1
    70   33   68 1
@<TRIPOS>PROPERTY_DATA
  Total_Score	| 7.3403
  Crash		| -1.4332
  Polar		| 4.8983
  FragIndex	| 1
  FragRMSD	| 0.458

