@<TRIPOS>MOLECULE
BindingDB_13211
 69 72 0 0 0
SMALL
NO_CHARGES


@<TRIPOS>ATOM
1    C        29.1680   -4.5728    7.4107  C     
2    C        30.6071   -4.3713    7.5280  C     
3    O        31.2553   -4.1976    6.5003  O     
4    N        31.1803   -4.3941    8.7189  N     
5    C        28.8061   -5.7921    6.5132  C     
6    C        29.4365   -7.1277    6.9619  C     
7    N        28.5356   -3.3509    6.9089  N     
8    C        32.5925   -4.2830    9.0106  C     
9    C        33.0599   -5.3672    9.8909  C     
10   C        35.3864   -3.2164   10.2497  C     
11   C        34.2995   -2.3544    9.5549  C     
12   C        32.8386   -2.8809    9.6511  C     
13   O        32.2481   -6.1858   10.3043  O     
14   C        35.4125   -4.6954    9.7671  C     
15   C        36.6712   -5.4841   10.1845  C     
16   C        34.7548   -6.3602   11.3948  C     
17   C        36.2766   -6.0863   11.5394  C     
18   N        34.3265   -5.4548   10.3355  N     
19   C        34.0630   -6.2619   12.6698  C     
20   O        33.0705   -5.5266   12.7598  O     
21   N        34.4848   -6.9687   13.7264  N     
22   C        33.9462   -6.9974   15.0608  C     
23   C        33.5663   -8.4174   15.3562  C     
24   C        31.9405  -10.2676   15.1533  C     
25   C        32.8041  -11.1191   15.8720  C     
26   C        34.0519  -10.6362   16.2989  C     
27   C        34.4344   -9.3045   16.0395  C     
28   C        32.3258   -8.9344   14.8928  C     
29   C        34.8367   -6.3642   16.0889  C     
30   C        36.4334   -5.1054   18.0806  C     
31   C        35.2389   -5.7558   18.4355  C     
32   C        34.4468   -6.3801   17.4494  C     
33   C        36.0323   -5.6785   15.7450  C     
34   C        36.8188   -5.0465   16.7257  C     
35   H        28.7329   -4.7606    8.4021  H     
36   H        30.5946   -4.5065    9.4863  H     
37   H        27.7172   -5.9125    6.5160  H     
38   H        29.1012   -5.5803    5.4764  H     
39   H        30.5105   -7.1220    6.7749  H     
40   H        28.9941   -7.9525    6.4024  H     
41   H        29.2544   -7.2973    8.0233  H     
42   H        28.7286   -2.5689    7.5396  H     
43   H        27.5281   -3.5033    6.8478  H     
44   H        28.8794   -3.1309    5.9716  H     
45   H        33.1574   -4.3448    8.0777  H     
46   H        36.3557   -2.7506   10.0419  H     
47   H        35.2320   -3.1860   11.3315  H     
48   H        34.3305   -1.3558   10.0026  H     
49   H        34.5644   -2.2411    8.4998  H     
50   H        32.2135   -2.1443    9.1366  H     
51   H        32.5280   -2.8855   10.6996  H     
52   H        35.3921   -4.7121    8.6728  H     
53   H        36.8611   -6.2910    9.4655  H     
54   H        37.5709   -4.8667   10.2543  H     
55   H        34.6269   -7.3818   11.0150  H     
56   H        36.8390   -6.9983   11.7431  H     
57   H        36.4878   -5.3512   12.3221  H     
58   H        35.2767   -7.5148   13.5746  H     
59   H        33.0280   -6.3995   15.0906  H     
60   H        31.0525  -10.6229   14.8052  H     
61   H        32.5363  -12.0889   16.0480  H     
62   H        34.6935  -11.2693   16.7865  H     
63   H        35.3588   -8.9900   16.3424  H     
64   H        31.6805   -8.3464   14.3672  H     
65   H        36.9998   -4.6460   18.7931  H     
66   H        34.9430   -5.7710   19.4146  H     
67   H        33.5735   -6.8275   17.7327  H     
68   H        36.3496   -5.6255   14.7775  H     
69   H        37.6575   -4.5383   16.4586  H     
@<TRIPOS>BOND
     1    1    2 1
     2    1    5 1
     3    1    7 1
     4    2    3 2
     5    2    4 am
     6    8    4 1
     7    5    6 1
     8    8    9 1
     9    8   12 1
    10    9   13 2
    11    9   18 1
    12   10   11 1
    13   14   10 1
    14   11   12 1
    15   14   15 1
    16   14   18 1
    17   15   17 1
    18   16   17 1
    19   16   18 1
    20   16   19 1
    21   19   20 2
    22   19   21 am
    23   21   22 1
    24   22   23 1
    25   22   29 1
    26   23   27 2
    27   23   28 1
    28   24   25 1
    29   24   28 2
    30   25   26 2
    31   26   27 1
    32   29   32 2
    33   29   33 1
    34   30   31 2
    35   30   34 1
    36   31   32 1
    37   33   34 2
    38    1   35 1
    39    4   36 1
    40    5   37 1
    41    5   38 1
    42    6   39 1
    43    6   40 1
    44    6   41 1
    45    7   42 1
    46    7   43 1
    47    7   44 1
    48    8   45 1
    49   10   46 1
    50   10   47 1
    51   11   48 1
    52   11   49 1
    53   12   50 1
    54   12   51 1
    55   14   52 1
    56   15   53 1
    57   15   54 1
    58   16   55 1
    59   17   56 1
    60   17   57 1
    61   21   58 1
    62   22   59 1
    63   24   60 1
    64   25   61 1
    65   26   62 1
    66   27   63 1
    67   28   64 1
    68   30   65 1
    69   31   66 1
    70   32   67 1
    71   33   68 1
    72   34   69 1
@<TRIPOS>PROPERTY_DATA
  Total_Score	| 9.6726
  Crash		| -1.9765
  Polar		| 5.1768
  FragIndex	| 1
  FragRMSD	| 0.707

