@<TRIPOS>MOLECULE
BindingDB_26212
 66 69 0 0 0
SMALL
NO_CHARGES


@<TRIPOS>ATOM
1    C        36.6628   -5.0855   10.2914  C     
2    C        34.7843   -6.1498   11.4155  C     
3    C        36.2707   -5.7453   11.6179  C     
4    C        34.0533   -6.1078   12.6811  C     
5    O        33.0331   -5.4288   12.7903  O     
6    C        35.3409   -4.4562    9.7903  C     
7    C        34.0613   -2.2377    9.4211  C     
8    C        32.6458   -2.8627    9.5149  C     
9    C        32.5039   -4.3027    8.9286  C     
10   C        33.0440   -5.3092    9.8616  C     
11   C        35.1732   -2.9669   10.2092  C     
12   N        34.3093   -5.2900   10.3407  N     
13   O        32.2921   -6.1872   10.2640  O     
14   N        31.0906   -4.5117    8.6639  N     
15   C        30.4956   -4.6042    7.4828  C     
16   O        31.1303   -4.5308    6.4392  O     
17   C        29.0423   -4.7166    7.4111  C     
18   C        28.5866   -5.8761    6.4864  C     
19   N        28.4687   -3.4434    6.9406  N     
20   N        34.5266   -6.7948   13.7237  N     
21   C        34.0300   -6.8263   15.0699  C     
22   C        33.4832   -8.1691   15.4434  C     
23   C        31.8341   -9.9486   15.0184  C     
24   C        32.4671   -8.7547   14.6395  C     
25   C        33.8077   -8.8255   16.6660  C     
26   C        33.1928  -10.0284   17.0305  C     
27   C        32.1974  -10.5981   16.2149  C     
28   C        35.1605   -6.3301   15.9163  C     
29   C        36.4232   -6.9821   15.8960  C     
30   C        35.0069   -5.1860   16.7274  C     
31   C        36.0650   -4.7255   17.5351  C     
32   C        37.3010   -5.3967   17.5187  C     
33   C        37.4848   -6.5156   16.6925  C     
34   H        37.4769   -4.3630   10.4202  H     
35   H        37.0023   -5.8572    9.5871  H     
36   H        34.7672   -7.1784   11.0422  H     
37   H        36.9064   -6.6095   11.8392  H     
38   H        36.3925   -5.0132   12.4256  H     
39   H        35.3635   -4.5347    8.6960  H     
40   H        34.3550   -2.1723    8.3704  H     
41   H        34.0119   -1.2148    9.7997  H     
42   H        32.3120   -2.8484   10.5552  H     
43   H        31.9828   -2.1897    8.9639  H     
44   H        33.0671   -4.3574    7.9896  H     
45   H        34.9667   -2.9103   11.2815  H     
46   H        36.1127   -2.4358   10.0294  H     
47   H        30.5030   -4.5416    9.4389  H     
48   H        28.6173   -4.9029    8.4002  H     
49   H        28.9188   -5.6918    5.4622  H     
50   H        27.5005   -5.9638    6.4930  H     
51   H        29.0078   -6.8266    6.8378  H     
52   H        28.6569   -2.6976    7.6122  H     
53   H        27.4580   -3.5609    6.8325  H     
54   H        28.8475   -3.1932    6.0192  H     
55   H        35.3452   -7.2982   13.5572  H     
56   H        33.1786   -6.1470   15.1754  H     
57   H        31.0923  -10.3508   14.4376  H     
58   H        32.1592   -8.2953   13.7715  H     
59   H        34.4971   -8.4096   17.2983  H     
60   H        33.4564  -10.4881   17.9031  H     
61   H        31.7328  -11.4633   16.4978  H     
62   H        36.5762   -7.8008   15.3072  H     
63   H        34.1184   -4.6797   16.7499  H     
64   H        35.9254   -3.9185   18.1423  H     
65   H        38.0674   -5.0551   18.1004  H     
66   H        38.3797   -7.0067   16.6802  H     
@<TRIPOS>BOND
     1    1    3 1
     2    1    6 1
     3    2    3 1
     4    2    4 1
     5    2   12 1
     6    4    5 2
     7    4   20 am
     8    6   11 1
     9    6   12 1
    10    7    8 1
    11    7   11 1
    12    8    9 1
    13    9   10 1
    14    9   14 1
    15   10   12 1
    16   10   13 2
    17   14   15 am
    18   15   16 2
    19   15   17 1
    20   17   18 1
    21   17   19 1
    22   20   21 1
    23   21   22 1
    24   21   28 1
    25   22   24 2
    26   22   25 1
    27   23   24 1
    28   23   27 2
    29   25   26 2
    30   26   27 1
    31   28   29 2
    32   28   30 1
    33   29   33 1
    34   30   31 2
    35   31   32 1
    36   32   33 2
    37    1   34 1
    38    1   35 1
    39    2   36 1
    40    3   37 1
    41    3   38 1
    42    6   39 1
    43    7   40 1
    44    7   41 1
    45    8   42 1
    46    8   43 1
    47    9   44 1
    48   11   45 1
    49   11   46 1
    50   14   47 1
    51   17   48 1
    52   18   49 1
    53   18   50 1
    54   18   51 1
    55   19   52 1
    56   19   53 1
    57   19   54 1
    58   20   55 1
    59   21   56 1
    60   23   57 1
    61   24   58 1
    62   25   59 1
    63   26   60 1
    64   27   61 1
    65   29   62 1
    66   30   63 1
    67   31   64 1
    68   32   65 1
    69   33   66 1
@<TRIPOS>PROPERTY_DATA
  Total_Score	| 8.5149
  Crash		| -1.5912
  Polar		| 5.4042
  FragIndex	| 1
  FragRMSD	| 0.452

