@<TRIPOS>MOLECULE
BindingDB_13212
 72 75 0 0 0
SMALL
NO_CHARGES


@<TRIPOS>ATOM
1    C        29.3356   -4.5217    7.6025  C     
2    C        30.7864   -4.4215    7.7673  C     
3    O        31.4976   -4.3884    6.7736  O     
4    N        31.2979   -4.2968    8.9893  N     
5    C        28.9030   -5.6976    6.6728  C     
6    C        29.5787   -7.0616    6.9649  C     
7    C        32.6811   -4.0890    9.3420  C     
8    C        33.2360   -5.2313   10.0681  C     
9    C        35.3166   -2.9900   10.7738  C     
10   C        34.1909   -2.1297   10.1518  C     
11   C        32.7855   -2.7813   10.1810  C     
12   O        32.4543   -6.1005   10.4506  O     
13   C        35.5520   -4.3605   10.0677  C     
14   C        36.8946   -4.9946   10.5084  C     
15   C        35.0956   -6.5355   10.9930  C     
16   C        36.5811   -6.4912   10.5638  C     
17   N        34.5427   -5.3567   10.3600  N     
18   C        34.8781   -6.5675   12.4434  C     
19   O        34.1937   -5.6991   12.9704  O     
20   N        35.3878   -7.5582   13.1702  N     
21   C        35.3085   -7.7551   14.5956  C     
22   C        35.4834   -6.4779   15.3691  C     
23   C        34.6092   -4.4691   16.4913  C     
24   C        35.9093   -3.9488   16.5988  C     
25   C        37.0025   -4.6935   16.1231  C     
26   C        36.7879   -5.9436   15.5125  C     
27   C        34.3976   -5.7217   15.8810  C     
28   C        34.1441   -8.5955   15.0278  C     
29   C        31.9671  -10.1404   16.0188  C     
30   C        33.2324  -10.2400   16.6206  C     
31   C        34.3043   -9.4727   16.1299  C     
32   C        32.8612   -8.5212   14.4255  C     
33   C        31.7852   -9.2897   14.9148  C     
34   N        28.6811   -3.2571    7.1406  N     
35   C        29.4621   -2.0097    7.0037  C     
36   H        28.8940   -4.7334    8.5802  H     
37   H        30.6680   -4.3256    9.7315  H     
38   H        27.8217   -5.8375    6.7799  H     
39   H        29.0951   -5.4218    5.6306  H     
40   H        30.6452   -7.0068    6.7474  H     
41   H        29.1416   -7.8406    6.3352  H     
42   H        29.4353   -7.3501    8.0106  H     
43   H        33.2674   -3.9631    8.4251  H     
44   H        36.2379   -2.4027   10.7129  H     
45   H        35.1005   -3.1562   11.8347  H     
46   H        34.1385   -1.1865   10.7055  H     
47   H        34.4590   -1.8851    9.1199  H     
48   H        32.0860   -2.0400    9.7832  H     
49   H        32.4897   -2.9764   11.2172  H     
50   H        35.6039   -4.2103    8.9884  H     
51   H        37.7006   -4.7789    9.7990  H     
52   H        37.1964   -4.6548   11.5047  H     
53   H        34.6610   -7.4475   10.5690  H     
54   H        36.6913   -6.9162    9.5583  H     
55   H        37.2557   -7.0208   11.2409  H     
56   H        35.9290   -8.2059   12.6883  H     
57   H        36.1933   -8.3597   14.8052  H     
58   H        33.8139   -3.9240   16.8332  H     
59   H        36.0616   -3.0292   17.0147  H     
60   H        37.9486   -4.3175   16.1982  H     
61   H        37.5951   -6.4525   15.1487  H     
62   H        33.4378   -6.0595   15.7838  H     
63   H        31.1818  -10.6767   16.3928  H     
64   H        33.3723  -10.8621   17.4200  H     
65   H        35.2134   -9.5573   16.5923  H     
66   H        32.6941   -7.9051   13.6269  H     
67   H        30.8632   -9.2227   14.4793  H     
68   H        28.2508   -3.4325    6.2380  H     
69   H        27.9252   -3.0601    7.7956  H     
70   H        29.9520   -1.7535    7.9433  H     
71   H        28.7920   -1.1884    6.7243  H     
72   H        30.2087   -2.1203    6.2187  H     
@<TRIPOS>BOND
     1    1    2 1
     2    1    5 1
     3    1   34 1
     4    2    3 2
     5    2    4 am
     6    7    4 1
     7    5    6 1
     8    7    8 1
     9    7   11 1
    10    8   12 2
    11    8   17 1
    12    9   10 1
    13   13    9 1
    14   10   11 1
    15   13   14 1
    16   13   17 1
    17   14   16 1
    18   15   16 1
    19   15   17 1
    20   15   18 1
    21   18   19 2
    22   18   20 am
    23   20   21 1
    24   21   22 1
    25   21   28 1
    26   22   26 2
    27   22   27 1
    28   23   24 1
    29   23   27 2
    30   24   25 2
    31   25   26 1
    32   28   31 2
    33   28   32 1
    34   29   30 2
    35   29   33 1
    36   30   31 1
    37   32   33 2
    38   34   35 1
    39    1   36 1
    40    4   37 1
    41    5   38 1
    42    5   39 1
    43    6   40 1
    44    6   41 1
    45    6   42 1
    46    7   43 1
    47    9   44 1
    48    9   45 1
    49   10   46 1
    50   10   47 1
    51   11   48 1
    52   11   49 1
    53   13   50 1
    54   14   51 1
    55   14   52 1
    56   15   53 1
    57   16   54 1
    58   16   55 1
    59   20   56 1
    60   21   57 1
    61   23   58 1
    62   24   59 1
    63   25   60 1
    64   26   61 1
    65   27   62 1
    66   29   63 1
    67   30   64 1
    68   31   65 1
    69   32   66 1
    70   33   67 1
    71   34   68 1
    72   34   69 1
    73   35   70 1
    74   35   71 1
    75   35   72 1
@<TRIPOS>PROPERTY_DATA
  Total_Score	| 10.3720
  Crash		| -2.2647
  Polar		| 6.7135
  FragIndex	| 1
  FragRMSD	| 0.841

