@<TRIPOS>MOLECULE
BindingDB_50042436
 65 65 0 0 0
SMALL
NO_CHARGES


@<TRIPOS>ATOM
1    C        16.5697   14.9088   -5.1084  C     
2    C        14.3756   16.8926   -5.7590  C     
3    C        11.8011   17.7366   -6.9902  C     
4    N        12.2237   17.9134   -5.7423  N     
5    N        14.3319   15.6868   -5.2131  N     
6    C        17.6686   14.8065   -5.9171  C     
7    C        13.5630   17.9760   -5.2200  C     
8    C        15.1927   14.5751   -5.5012  C     
9    C        10.3635   17.7627   -7.2916  C     
10   O         9.9900   16.7927   -8.2862  O     
11   O        16.7587   15.3241   -3.9661  O     
12   O        15.0821   17.1084   -6.7362  O     
13   O        12.5920   17.5393   -7.8999  O     
14   O        18.4910   15.8838   -6.0890  O     
15   C        14.2010   19.4139   -5.3325  C     
16   O        17.9792   13.6188   -6.5174  O     
17   C        10.0402   15.4704   -7.9265  C     
18   C        14.7120   13.2962   -4.7728  C     
19   C        15.4140   19.7311   -4.3946  C     
20   C         9.9273   19.1422   -7.8599  C     
21   C        19.1597   13.3431   -7.2667  C     
22   C        11.1144   14.6860   -8.3918  C     
23   C         8.9745   14.8534   -7.2408  C     
24   C        16.5710   18.7067   -4.5110  C     
25   C        15.9839   21.1626   -4.6628  C     
26   C        13.3719   12.7157   -5.2938  C     
27   C         8.3982   19.2575   -8.1014  C     
28   C        18.8552   12.2899   -8.3523  C     
29   C         8.9843   13.4573   -7.0237  C     
30   C        11.1311   13.2980   -8.1689  C     
31   C        10.0580   12.6778   -7.4979  C     
32   H        11.5159   18.0741   -5.0952  H     
33   H        13.6737   15.5354   -4.5189  H     
34   H        13.4601   17.8009   -4.1485  H     
35   H        15.1491   14.3607   -6.5786  H     
36   H         9.7877   17.6039   -6.3727  H     
37   H        14.5001   19.6066   -6.3670  H     
38   H        13.4202   20.1327   -5.0879  H     
39   H        15.4688   12.5033   -4.8871  H     
40   H        14.6029   13.4811   -3.6907  H     
41   H        15.0641   19.7324   -3.3576  H     
42   H        10.2121   19.9432   -7.1641  H     
43   H        10.4364   19.3404   -8.8203  H     
44   H        19.5160   14.2590   -7.7471  H     
45   H        19.9429   12.9672   -6.6016  H     
46   H        11.8864   15.1260   -8.9149  H     
47   H         8.1807   15.4193   -6.9134  H     
48   H        16.2705   17.7695   -4.0615  H     
49   H        17.4685   19.0542   -3.9937  H     
50   H        16.8203   18.5400   -5.5572  H     
51   H        16.4345   21.2111   -5.6647  H     
52   H        16.7590   21.4283   -3.9264  H     
53   H        15.1954   21.9238   -4.5962  H     
54   H        12.5481   13.3756   -5.0057  H     
55   H        13.1863   11.7295   -4.8634  H     
56   H        13.3690   12.6281   -6.3927  H     
57   H         8.0707   18.5870   -8.9160  H     
58   H         8.1325   20.2903   -8.3798  H     
59   H         7.8457   18.9889   -7.1874  H     
60   H        18.5569   11.3447   -7.8921  H     
61   H        19.7425   12.1228   -8.9597  H     
62   H        18.0426   12.6476   -8.9868  H     
63   H         8.1963   13.0140   -6.5591  H     
64   H        11.9022   12.7373   -8.5254  H     
65   H        10.0544   11.6753   -7.3733  H     
@<TRIPOS>BOND
     1    1    6 1
     2    1    8 1
     3    1   11 2
     4    2    5 am
     5    2    7 1
     6    2   12 2
     7    3    4 am
     8    3    9 1
     9    3   13 2
    10    4    7 1
    11    5    8 1
    12    6   14 2
    13    6   16 1
    14    7   15 1
    15    8   18 1
    16    9   10 1
    17    9   20 1
    18   10   17 1
    19   15   19 1
    20   16   21 1
    21   17   22 2
    22   17   23 1
    23   18   26 1
    24   19   24 1
    25   19   25 1
    26   20   27 1
    27   21   28 1
    28   22   30 1
    29   23   29 2
    30   29   31 1
    31   30   31 2
    32    4   32 1
    33    5   33 1
    34    7   34 1
    35    8   35 1
    36    9   36 1
    37   15   37 1
    38   15   38 1
    39   18   39 1
    40   18   40 1
    41   19   41 1
    42   20   42 1
    43   20   43 1
    44   21   44 1
    45   21   45 1
    46   22   46 1
    47   23   47 1
    48   24   48 1
    49   24   49 1
    50   24   50 1
    51   25   51 1
    52   25   52 1
    53   25   53 1
    54   26   54 1
    55   26   55 1
    56   26   56 1
    57   27   57 1
    58   27   58 1
    59   27   59 1
    60   28   60 1
    61   28   61 1
    62   28   62 1
    63   29   63 1
    64   30   64 1
    65   31   65 1
@<TRIPOS>PROPERTY_DATA
  Total_Score	| 4.2941
  Crash		| -1.3963
  Polar		| 0.9082
  FragIndex	| 1
  FragRMSD	| 1.106

