@<TRIPOS>MOLECULE
BindingDB_50183977
 51 54 0 0 0
SMALL
NO_CHARGES


@<TRIPOS>ATOM
1    N         0.5932   11.9059    3.6379  N     
2    C         0.0669   11.6199    4.8659  C     
3    C         1.8035   11.4329    3.2287  C     
4    C         2.5372   10.6337    4.1226  C     
5    C         2.0120   10.3628    5.3849  C     
6    N         2.8752    9.5799    6.0783  N     
7    C         3.9454    9.3599    5.2712  C     
8    C         3.7618    9.9923    4.0456  C     
9    N        -1.1505   12.1354    5.1690  N     
10   C        -1.9175   11.9456    6.2848  C     
11   C        -1.9725   10.7356    7.0154  C     
12   C        -2.8747   10.5519    8.0903  C     
13   C        -3.7392   11.6174    8.4384  C     
14   C        -3.7033   12.8335    7.7207  C     
15   C        -2.7907   12.9875    6.6587  C     
16   N         0.7933   10.8511    5.7231  N     
17   O        -4.4933   13.8918    8.0788  O     
18   C        -5.7262   13.9913    7.3493  C     
19   O        -4.6994   11.4235    9.3995  O     
20   C        -4.1955   11.3799   10.7393  C     
21   O        -2.9737    9.3956    8.8376  O     
22   C        -2.2790    8.1946    8.4434  C     
23   C         2.7005    9.0748    7.3525  C     
24   C         3.2187    7.8034    7.7052  C     
25   C         3.0458    7.2772    8.9977  C     
26   C         2.3341    8.0016    9.9768  C     
27   C         1.8094    9.2662    9.6399  C     
28   C         1.9925    9.7921    8.3485  C     
29   C         2.1749    7.4349   11.3319  C     
30   H         2.1597   11.6489    2.2978  H     
31   H         4.7795    8.8219    5.5098  H     
32   H         4.3993    9.9805    3.2476  H     
33   H        -1.5316   12.7225    4.4927  H     
34   H        -1.4008    9.9391    6.7230  H     
35   H        -2.7722   13.8731    6.1455  H     
36   H        -5.5445   14.1401    6.2818  H     
37   H        -6.2731   14.8547    7.7253  H     
38   H        -6.3501   13.1071    7.4919  H     
39   H        -3.4397   10.5957   10.8612  H     
40   H        -5.0287   11.1563   11.4122  H     
41   H        -3.7708   12.3443   11.0415  H     
42   H        -2.4564    7.9582    7.3869  H     
43   H        -2.6557    7.3731    9.0535  H     
44   H        -1.2006    8.2974    8.6171  H     
45   H         3.7148    7.2339    7.0175  H     
46   H         3.4380    6.3589    9.2225  H     
47   H         1.2950    9.8177   10.3337  H     
48   H         1.6250   10.7244    8.1516  H     
49   H         1.6503    6.4774   11.2792  H     
50   H         1.6142    8.0941   11.9973  H     
51   H         3.1633    7.2736   11.7631  H     
@<TRIPOS>BOND
     1    1    2 1
     2    1    3 2
     3    2    9 1
     4    2   16 2
     5    3    4 1
     6    4    5 2
     7    4    8 1
     8    5    6 1
     9    5   16 1
    10    6    7 1
    11    6   23 1
    12    7    8 2
    13    9   10 1
    14   10   11 1
    15   10   15 2
    16   11   12 2
    17   12   13 1
    18   12   21 1
    19   13   14 2
    20   13   19 1
    21   14   15 1
    22   14   17 1
    23   17   18 1
    24   19   20 1
    25   21   22 1
    26   23   24 2
    27   23   28 1
    28   24   25 1
    29   25   26 2
    30   26   27 1
    31   26   29 1
    32   27   28 2
    33    3   30 1
    34    7   31 1
    35    8   32 1
    36    9   33 1
    37   11   34 1
    38   15   35 1
    39   18   36 1
    40   18   37 1
    41   18   38 1
    42   20   39 1
    43   20   40 1
    44   20   41 1
    45   22   42 1
    46   22   43 1
    47   22   44 1
    48   24   45 1
    49   25   46 1
    50   27   47 1
    51   28   48 1
    52   29   49 1
    53   29   50 1
    54   29   51 1
@<TRIPOS>PROPERTY_DATA
  Total_Score	| 8.7051
  Crash		| -1.2300
  Polar		| 2.0165
  FragIndex	| 1
  FragRMSD	| 0.533

