@<TRIPOS>MOLECULE
BindingDB_50181983
 42 45 0 0 0
SMALL
NO_CHARGES


@<TRIPOS>ATOM
1    N         0.5436   11.9597    4.0321  N     
2    C         0.0128   11.6610    5.2505  C     
3    N         0.7195   10.8757    6.1347  N     
4    C         1.7426   11.4855    3.6331  C     
5    C         2.4433   10.6492    4.5162  C     
6    C         1.9236   10.3689    5.7811  C     
7    N         2.7899    9.5199    6.3969  N     
8    C         3.7967    9.3050    5.5454  C     
9    C         3.6060    9.9703    4.4039  C     
10   C         2.6514    8.9690    7.6499  C     
11   C         3.2581    7.7491    8.0286  C     
12   C         3.1325    7.2794    9.3467  C     
13   C         2.4109    8.0262   10.2927  C     
14   C         1.8078    9.2310    9.8853  C     
15   N         1.9620    9.6511    8.6060  N     
16   N        -1.2248   12.1436    5.4668  N     
17   C        -2.0393   12.0194    6.5489  C     
18   C        -2.2307   10.8299    7.3260  C     
19   C        -3.1654   10.8550    8.3872  C     
20   C        -3.9489   11.9930    8.6302  C     
21   C        -3.8322   13.1201    7.8031  C     
22   C        -2.8712   13.1352    6.7776  C     
23   C        -1.6001    9.5146    7.0396  C     
24   O        -4.6292   14.2103    8.0014  O     
25   C        -5.8210   14.1874    7.1968  C     
26   H         2.1003   11.6928    2.7006  H     
27   H         4.5870    8.7364    5.7148  H     
28   H         4.2265    9.9573    3.6263  H     
29   H         3.7686    7.2024    7.3321  H     
30   H         3.5745    6.3997    9.6316  H     
31   H         2.3507    7.7125   11.2575  H     
32   H         1.2868    9.8163   10.5352  H     
33   H        -1.5815   12.6949    4.7499  H     
34   H        -3.3221   10.0325    8.9711  H     
35   H        -4.6120   11.9973    9.4065  H     
36   H        -2.8041   13.9628    6.1842  H     
37   H        -2.4062    8.7870    6.8126  H     
38   H        -1.0621    9.1606    7.9261  H     
39   H        -0.9251    9.5560    6.1811  H     
40   H        -5.6149   14.0029    6.1468  H     
41   H        -6.2941   15.1589    7.2765  H     
42   H        -6.5106   13.4312    7.5659  H     
@<TRIPOS>BOND
     1    1    2 2
     2    1    4 1
     3    2    3 1
     4    2   16 1
     5    3    6 2
     6    4    5 2
     7    5    6 1
     8    5    9 1
     9    6    7 1
    10    7    8 1
    11    7   10 1
    12    8    9 2
    13   10   11 2
    14   10   15 1
    15   11   12 1
    16   12   13 2
    17   13   14 1
    18   14   15 2
    19   16   17 1
    20   17   18 2
    21   17   22 1
    22   18   19 1
    23   18   23 1
    24   19   20 2
    25   20   21 1
    26   21   22 2
    27   21   24 1
    28   24   25 1
    29    4   26 1
    30    8   27 1
    31    9   28 1
    32   11   29 1
    33   12   30 1
    34   13   31 1
    35   14   32 1
    36   16   33 1
    37   19   34 1
    38   20   35 1
    39   22   36 1
    40   23   37 1
    41   23   38 1
    42   23   39 1
    43   25   40 1
    44   25   41 1
    45   25   42 1
@<TRIPOS>PROPERTY_DATA
  Total_Score	| 7.7317
  Crash		| -1.3199
  Polar		| 1.9882
  FragIndex	| 1
  FragRMSD	| 1.010

