@<TRIPOS>MOLECULE
BindingDB_50184049
 55 58 0 0 0
SMALL
NO_CHARGES


@<TRIPOS>ATOM
1    N         0.6451   11.8849    3.8182  N     
2    C         0.0620   11.6407    5.0291  C     
3    C         1.8741   11.3954    3.4938  C     
4    C         2.5520   10.6141    4.4404  C     
5    C         1.9632   10.3981    5.6839  C     
6    N         2.7548    9.5962    6.4307  N     
7    C         3.8328    9.2800    5.6717  C     
8    C         3.7431    9.9101    4.4319  C     
9    N        -1.1838   12.1142    5.2572  N     
10   C        -1.9849   11.9017    6.3447  C     
11   C        -2.0021   10.6817    7.0632  C     
12   C        -2.8840   10.4910    8.1475  C     
13   C        -3.7917   11.5159    8.5085  C     
14   C        -3.7826   12.7335    7.7960  C     
15   C        -2.8789   12.9201    6.7319  C     
16   N         0.7394   10.9075    5.9539  N     
17   O        -4.5906   13.7679    8.1782  O     
18   C        -5.7629   13.9263    7.3627  C     
19   O        -4.6287   11.3900    9.5852  O     
20   C        -5.6456   10.3786    9.4632  C     
21   O        -2.8595    9.2954    8.8107  O     
22   C        -2.1618    9.3657   10.0682  C     
23   C         2.4955    9.1179    7.6915  C     
24   C         1.8601    9.8893    8.6936  C     
25   C         1.6668    9.3394    9.9747  C     
26   C         2.0684    8.0209   10.2421  C     
27   C         2.6610    7.2563    9.2139  C     
28   N         2.8646    7.8452    8.0044  N     
29   C         3.1096    5.8639    9.4484  C     
30   C         3.2931    5.0134    8.1601  C     
31   C         3.9145    3.7060    8.4423  C     
32   O         3.2297    2.5554    8.2545  O     
33   O         5.2218    3.6435    8.7830  O     
34   H         2.2699   11.5671    2.5737  H     
35   H         4.6044    8.6704    5.9528  H     
36   H         4.4003    9.8292    3.6558  H     
37   H        -1.5585   12.6854    4.5676  H     
38   H        -1.4044    9.8997    6.7829  H     
39   H        -2.8865   13.8013    6.2166  H     
40   H        -5.5047   14.1319    6.3212  H     
41   H        -6.3290   14.7755    7.7458  H     
42   H        -6.4027   13.0434    7.4085  H     
43   H        -6.2736   10.5302    8.5815  H     
44   H        -6.2904   10.4394   10.3437  H     
45   H        -5.1983    9.3811    9.4267  H     
46   H        -1.1634    9.8070    9.9677  H     
47   H        -2.0517    8.3508   10.4519  H     
48   H        -2.7427    9.9439   10.7909  H     
49   H         1.5770   10.8556    8.5134  H     
50   H         1.2364    9.9030   10.7122  H     
51   H         1.9279    7.6267   11.1767  H     
52   H         4.0541    5.9127    9.9928  H     
53   H         2.3855    5.3477   10.0866  H     
54   H         2.3180    4.8590    7.6879  H     
55   H         3.9354    5.5382    7.4474  H     
@<TRIPOS>BOND
     1    1    2 1
     2    1    3 2
     3    2    9 1
     4    2   16 2
     5    3    4 1
     6    4    5 2
     7    4    8 1
     8    5    6 1
     9    5   16 1
    10    6    7 1
    11    6   23 1
    12    7    8 2
    13    9   10 1
    14   10   11 1
    15   10   15 2
    16   11   12 2
    17   12   13 1
    18   12   21 1
    19   13   14 2
    20   13   19 1
    21   14   15 1
    22   14   17 1
    23   17   18 1
    24   19   20 1
    25   21   22 1
    26   23   24 2
    27   23   28 1
    28   24   25 1
    29   25   26 2
    30   26   27 1
    31   27   28 2
    32   27   29 1
    33   29   30 1
    34   30   31 1
    35   31   32 1
    36   31   33 2
    37    3   34 1
    38    7   35 1
    39    8   36 1
    40    9   37 1
    41   11   38 1
    42   15   39 1
    43   18   40 1
    44   18   41 1
    45   18   42 1
    46   20   43 1
    47   20   44 1
    48   20   45 1
    49   22   46 1
    50   22   47 1
    51   22   48 1
    52   24   49 1
    53   25   50 1
    54   26   51 1
    55   29   52 1
    56   29   53 1
    57   30   54 1
    58   30   55 1
@<TRIPOS>PROPERTY_DATA
  Total_Score	| 10.1022
  Crash		| -0.9697
  Polar		| 3.7955
  FragIndex	| 1
  FragRMSD	| 0.251

