@<TRIPOS>MOLECULE
BindingDB_50181982
 39 42 0 0 0
SMALL
NO_CHARGES


@<TRIPOS>ATOM
1    N         0.6418   11.8586    3.7674  N     
2    C         0.0357   11.6014    4.9644  C     
3    N         0.7050   10.8605    5.8934  N     
4    C         1.8746   11.3745    3.4507  C     
5    C         2.5406   10.5990    4.4097  C     
6    C         1.9441   10.3677    5.6456  C     
7    N         2.7803    9.5942    6.3860  N     
8    C         3.8450    9.3569    5.6103  C     
9    C         3.7304    9.9540    4.4209  C     
10   C         2.5891    9.0913    7.6511  C     
11   C         1.7511    9.6990    8.6253  C     
12   C         1.5913    9.0976    9.8825  C     
13   C         2.2706    7.8973   10.1903  C     
14   C         3.1071    7.3310    9.2114  C     
15   N         3.2361    7.9390    8.0087  N     
16   N        -1.1919   12.1231    5.1579  N     
17   C        -1.9869   12.0449    6.2597  C     
18   C        -2.8325   13.1452    6.4986  C     
19   C        -3.7146   13.1543    7.5998  C     
20   C        -3.7715   12.0389    8.4566  C     
21   C        -2.9698   10.9116    8.1982  C     
22   C        -2.0710   10.9131    7.1165  C     
23   O        -4.4664   14.2621    7.8801  O     
24   C        -5.7824   14.2295    7.2914  C     
25   H         2.2798   11.5528    2.5344  H     
26   H         4.6355    8.8101    5.8696  H     
27   H         4.3850    9.9141    3.6749  H     
28   H         1.2726   10.5784    8.4355  H     
29   H         0.9880    9.5270   10.5900  H     
30   H         2.1770    7.4619   11.1072  H     
31   H         3.6322    6.4782    9.4118  H     
32   H        -1.5291   12.6841    4.4453  H     
33   H        -2.8007   13.9636    5.8886  H     
34   H        -4.3779   12.0428    9.2753  H     
35   H        -3.0140   10.0985    8.8104  H     
36   H        -1.5145   10.0776    6.9333  H     
37   H        -5.7525   14.0720    6.2101  H     
38   H        -6.2588   15.1820    7.4742  H     
39   H        -6.3764   13.4313    7.7641  H     
@<TRIPOS>BOND
     1    1    2 2
     2    1    4 1
     3    2    3 1
     4    2   16 1
     5    3    6 2
     6    4    5 2
     7    5    6 1
     8    5    9 1
     9    6    7 1
    10    7    8 1
    11    7   10 1
    12    8    9 2
    13   10   11 2
    14   10   15 1
    15   11   12 1
    16   12   13 2
    17   13   14 1
    18   14   15 2
    19   16   17 1
    20   17   18 2
    21   17   22 1
    22   18   19 1
    23   19   20 2
    24   19   23 1
    25   20   21 1
    26   21   22 2
    27   23   24 1
    28    4   25 1
    29    8   26 1
    30    9   27 1
    31   11   28 1
    32   12   29 1
    33   13   30 1
    34   14   31 1
    35   16   32 1
    36   18   33 1
    37   20   34 1
    38   21   35 1
    39   22   36 1
    40   24   37 1
    41   24   38 1
    42   24   39 1
@<TRIPOS>PROPERTY_DATA
  Total_Score	| 7.2168
  Crash		| -0.6406
  Polar		| 2.0798
  FragIndex	| 1
  FragRMSD	| 0.128

