@<TRIPOS>MOLECULE
BindingDB_50186226
 62 63 0 0 0
SMALL
NO_CHARGES


@<TRIPOS>ATOM
1    C         7.9481    4.1863   25.6637  C     
2    C         6.8678    4.8137   26.3069  C     
3    C         6.0828    4.1096   27.2291  C     
4    C         6.3738    2.7620   27.5520  C     
5    C         7.4886    2.1307   26.9292  C     
6    C         8.2808    2.8513   25.9938  C     
7    Cl        9.6396    2.1577   25.2436  Cl    
8    Cl        7.9270    0.5376   27.3512  Cl    
9    C         5.5296    2.0943   28.4388  C     
10   O         4.9485    1.0803   28.0687  O     
11   C         5.4834    2.3982   29.7667  C     
12   C         4.5762    3.4476   30.2489  C     
13   C         6.2350    1.6935   30.6376  C     
14   C         5.3192    4.6781   30.8301  C     
15   C         4.1002   11.9210   27.6525  C     
16   C         4.5495   10.9369   28.5497  C     
17   C         5.8721   10.4202   28.4784  C     
18   C         6.7278   10.9525   27.4739  C     
19   C         6.2875   11.9406   26.5589  C     
20   C         4.9614   12.4159   26.6652  C     
21   C         6.2948    9.4180   29.3645  C     
22   N         7.4539    8.7976   29.2675  N     
23   O         5.5869    9.0376   30.2893  O     
24   C         7.2168   12.4946   25.5369  C     
25   N         7.8934   11.4707   24.8085  N     
26   C         7.3636   10.6371   23.9179  C     
27   C         8.1436    9.5118   23.4338  C     
28   O         6.1771   10.6980   23.6051  O     
29   C         8.0941    9.2976   21.8924  C     
30   C         8.8745    8.0324   21.4275  C     
31   N         8.3273    6.8636   22.0583  N     
32   C         8.9861    5.9006   22.6865  C     
33   C         8.2732    4.8691   23.4159  C     
34   O        10.2134    5.8659   22.6873  O     
35   O         8.6912    4.9414   24.7944  O     
36   H         6.6404    5.7859   26.0930  H     
37   H         5.2791    4.5878   27.6482  H     
38   H         3.9191    3.8105   29.4474  H     
39   H         3.9242    3.0273   31.0245  H     
40   H         6.1920    1.8772   31.6161  H     
41   H         6.8463    0.9680   30.3300  H     
42   H         5.8290    4.4021   31.7572  H     
43   H         4.5991    5.4717   31.0506  H     
44   H         6.0572    5.0699   30.1257  H     
45   H         3.1437   12.2768   27.7281  H     
46   H         3.8939   10.5980   29.2639  H     
47   H         7.6905   10.6153   27.3977  H     
48   H         4.6146   13.1292   26.0210  H     
49   H         7.6821    8.1058   29.9096  H     
50   H         8.0845    9.0239   28.5660  H     
51   H         6.7023   13.1549   24.8296  H     
52   H         7.9755   13.0865   26.0572  H     
53   H         8.8295   11.3360   25.0384  H     
54   H         9.1915    9.6163   23.7304  H     
55   H         7.7549    8.6111   23.9203  H     
56   H         7.0533    9.1943   21.5638  H     
57   H         8.5120   10.1709   21.3863  H     
58   H         8.7459    7.9252   20.3436  H     
59   H         9.9446    8.1607   21.6409  H     
60   H         7.3613    6.7849   22.0370  H     
61   H         7.1893    5.0091   23.3171  H     
62   H         8.5228    3.8960   22.9908  H     
@<TRIPOS>BOND
     1    1    2 2
     2    1    6 1
     3    1   35 1
     4    2    3 1
     5    3    4 2
     6    4    5 1
     7    4    9 1
     8    5    6 2
     9    5    8 1
    10    6    7 1
    11    9   10 2
    12    9   11 1
    13   11   12 1
    14   11   13 2
    15   12   14 1
    16   15   16 2
    17   15   20 1
    18   16   17 1
    19   17   18 2
    20   17   21 1
    21   18   19 1
    22   19   20 2
    23   19   24 1
    24   21   22 am
    25   21   23 2
    26   24   25 1
    27   25   26 am
    28   26   27 1
    29   26   28 2
    30   27   29 1
    31   29   30 1
    32   30   31 1
    33   31   32 am
    34   32   33 1
    35   32   34 2
    36   33   35 1
    37    2   36 1
    38    3   37 1
    39   12   38 1
    40   12   39 1
    41   13   40 1
    42   13   41 1
    43   14   42 1
    44   14   43 1
    45   14   44 1
    46   15   45 1
    47   16   46 1
    48   18   47 1
    49   20   48 1
    50   22   49 1
    51   22   50 1
    52   24   51 1
    53   24   52 1
    54   25   53 1
    55   27   54 1
    56   27   55 1
    57   29   56 1
    58   29   57 1
    59   30   58 1
    60   30   59 1
    61   31   60 1
    62   33   61 1
    63   33   62 1
@<TRIPOS>PROPERTY_DATA
  Total_Score	| 3.3298
  Crash		| -0.9117
  Polar		| 3.8459
  FragIndex	| 1
  FragRMSD	| 0.200

