@<TRIPOS>MOLECULE
BindingDB_50186229
 96 98 0 0 0
SMALL
NO_CHARGES


@<TRIPOS>ATOM
1    C         4.7645   11.2287   26.0899  C     
2    C         4.0352   11.7534   27.1759  C     
3    C         3.8653   10.9875   28.3614  C     
4    C         4.4382    9.6874   28.4526  C     
5    C         5.1935    9.1944   27.3631  C     
6    C         5.3427    9.9501   26.1887  C     
7    C         4.2622    8.8545   29.5686  C     
8    O         5.0047    9.0817   30.5223  O     
9    C         3.3882    7.7788   29.5877  C     
10   C         2.9625    7.1929   28.3038  C     
11   C         2.9767    7.2823   30.7854  C     
12   C         1.9212    6.0458   28.2807  C     
13   C         6.6804    8.5337   17.6598  C     
14   C         5.3088    8.2828   17.4064  C     
15   C         4.3934    9.3269   17.1271  C     
16   C         4.8994   10.6523   17.1142  C     
17   C         6.2664   10.9350   17.3537  C     
18   C         7.1425    9.8655   17.6150  C     
19   C         3.0363    9.0799   16.8823  C     
20   N         2.5189    7.8709   16.7906  N     
21   O         2.2341    9.9879   16.7282  O     
22   C         6.7361   12.3482   17.3644  C     
23   N         6.2920   12.9877   18.5578  N     
24   C         6.7547   12.8016   19.7978  C     
25   C         6.2459   13.5558   20.9146  C     
26   O         7.6819   12.0218   20.0133  O     
27   C         7.6168    7.4302   18.0076  C     
28   N         8.0419    7.5833   19.3615  N     
29   C         9.2933    7.5234   19.8290  C     
30   C         9.5504    7.7854   21.2229  C     
31   O        10.2388    7.2838   19.0759  O     
32   N         6.4226   12.8415   22.1383  N     
33   N         8.7216    6.9670   22.0506  N     
34   C         5.9687   13.2165   23.3341  C     
35   O         5.4122   14.3039   23.4869  O     
36   C         6.1384   12.3580   24.4830  C     
37   O         4.8320   11.9178   24.9048  O     
38   Cl        3.3645   13.3088   27.0138  Cl    
39   Cl        2.9627   11.6335   29.6579  Cl    
40   C         9.0955    5.9119   22.7669  C     
41   C         8.1337    5.1817   23.5603  C     
42   O        10.2536    5.5030   22.7519  O     
43   O         8.6484    5.0596   24.9046  O     
44   C         7.8970    4.2675   25.7380  C     
45   C         8.2412    2.9239   26.0243  C     
46   C         7.4490    2.1596   26.9225  C     
47   C         6.3251    2.7581   27.5663  C     
48   C         6.0171    4.1076   27.2854  C     
49   C         6.7940    4.8546   26.3816  C     
50   Cl        9.6376    2.2752   25.2999  Cl    
51   Cl        7.8973    0.5546   27.2772  Cl    
52   C         5.5039    2.0638   28.4535  C     
53   C         5.5049    2.3332   29.7902  C     
54   O         4.9351    1.0420   28.0876  O     
55   C         4.6074    3.3527   30.3380  C     
56   C         6.2738    1.5838   30.6091  C     
57   C         5.3438    4.5887   30.9116  C     
58   H         5.5993    8.2517   27.3974  H     
59   H         5.8475    9.5558   25.3958  H     
60   H         2.5596    7.9880   27.6820  H     
61   H         3.8531    6.8219   27.7911  H     
62   H         2.3635    6.5047   30.8537  H     
63   H         3.2501    7.7038   31.6389  H     
64   H         2.2678    5.2184   28.8905  H     
65   H         1.7888    5.6808   27.2635  H     
66   H         0.9676    6.3978   28.6631  H     
67   H         4.9789    7.3172   17.4520  H     
68   H         4.2698   11.4366   16.9233  H     
69   H         8.1334   10.0582   17.8033  H     
70   H         1.5720    7.7626   16.6107  H     
71   H         3.0754    7.0848   16.8916  H     
72   H         7.8228   12.3878   17.2446  H     
73   H         6.3087   12.8746   16.5043  H     
74   H         5.5815   13.6425   18.4602  H     
75   H         6.7707   14.5187   20.9419  H     
76   H         5.1790   13.7651   20.7906  H     
77   H         7.1308    6.4538   17.9166  H     
78   H         8.4494    7.4431   17.2946  H     
79   H         7.3499    7.7355   20.0226  H     
80   H        10.6172    7.6451   21.4425  H     
81   H         9.3158    8.8333   21.4349  H     
82   H         6.8938   11.9881   22.0989  H     
83   H         7.7833    7.2107   22.0928  H     
84   H         6.7513   11.4920   24.1974  H     
85   H         6.6607   12.9007   25.2868  H     
86   H         7.1743    5.7068   23.5892  H     
87   H         7.9752    4.1984   23.0968  H     
88   H         5.2161    4.5685   27.7237  H     
89   H         6.5604    5.8325   26.1976  H     
90   H         3.9084    3.7032   29.5708  H     
91   H         3.9995    2.9074   31.1319  H     
92   H         6.2536    1.7197   31.5922  H     
93   H         6.8604    0.8586   30.2608  H     
94   H         5.8543    4.3346   31.8408  H     
95   H         4.6164    5.3680   31.1381  H     
96   H         6.0713    4.9835   30.1970  H     
@<TRIPOS>BOND
     1    1    2 2
     2    1    6 1
     3    1   37 1
     4    2    3 1
     5    2   38 1
     6    3    4 2
     7    3   39 1
     8    4    5 1
     9    4    7 1
    10    5    6 2
    11    7    8 2
    12    7    9 1
    13    9   10 1
    14    9   11 2
    15   10   12 1
    16   13   14 2
    17   13   18 1
    18   13   27 1
    19   14   15 1
    20   15   16 2
    21   15   19 1
    22   16   17 1
    23   17   18 2
    24   17   22 1
    25   19   20 am
    26   19   21 2
    27   22   23 1
    28   23   24 am
    29   24   25 1
    30   24   26 2
    31   25   32 1
    32   27   28 1
    33   28   29 am
    34   29   30 1
    35   29   31 2
    36   30   33 1
    37   32   34 am
    38   33   40 am
    39   34   35 2
    40   34   36 1
    41   36   37 1
    42   40   41 1
    43   40   42 2
    44   41   43 1
    45   43   44 1
    46   44   45 2
    47   44   49 1
    48   45   46 1
    49   45   50 1
    50   46   47 2
    51   46   51 1
    52   47   48 1
    53   47   52 1
    54   48   49 2
    55   52   53 1
    56   52   54 2
    57   53   55 1
    58   53   56 2
    59   55   57 1
    60    5   58 1
    61    6   59 1
    62   10   60 1
    63   10   61 1
    64   11   62 1
    65   11   63 1
    66   12   64 1
    67   12   65 1
    68   12   66 1
    69   14   67 1
    70   16   68 1
    71   18   69 1
    72   20   70 1
    73   20   71 1
    74   22   72 1
    75   22   73 1
    76   23   74 1
    77   25   75 1
    78   25   76 1
    79   27   77 1
    80   27   78 1
    81   28   79 1
    82   30   80 1
    83   30   81 1
    84   32   82 1
    85   33   83 1
    86   36   84 1
    87   36   85 1
    88   41   86 1
    89   41   87 1
    90   48   88 1
    91   49   89 1
    92   55   90 1
    93   55   91 1
    94   56   92 1
    95   56   93 1
    96   57   94 1
    97   57   95 1
    98   57   96 1
@<TRIPOS>PROPERTY_DATA
  Total_Score	| 4.5010
  Crash		| -1.8196
  Polar		| 5.5915
  FragIndex	| 1
  FragRMSD	| 0.517

