@<TRIPOS>MOLECULE
BindingDB_50300261
 36 37 0 0 0
SMALL
NO_CHARGES


@<TRIPOS>ATOM
1    C         6.2042    4.1308   27.1844  C     
2    C         7.0440    4.8298   26.3087  C     
3    C         8.0989    4.1638   25.6568  C     
4    C         8.3746    2.8108   25.9576  C     
5    C         7.5379    2.1047   26.8638  C     
6    C         6.4333    2.7642   27.4754  C     
7    O         8.8584    4.9074   24.7958  O     
8    C         8.5875    4.6750   23.3988  C     
9    C         8.9114    5.9079   22.6770  C     
10   O         7.9912    6.7654   22.1875  O     
11   N         8.6201    7.7618   21.6311  N     
12   C         9.9346    7.5423   21.7714  C     
13   N        10.1349    6.3894   22.4226  N     
14   C        10.9794    8.4549   21.2922  C     
15   C         5.5454    2.1163   28.3325  C     
16   O         4.9259    1.1416   27.9195  O     
17   C         5.4886    2.3970   29.6620  C     
18   C         4.5687    3.4202   30.1602  C     
19   C         6.2572    1.6898   30.5183  C     
20   Cl        7.9114    0.4909   27.2618  Cl    
21   Cl        9.7048    2.0653   25.2088  Cl    
22   C         5.2914    4.6223   30.8254  C     
23   H         5.4078    4.6313   27.5910  H     
24   H         6.8630    5.8176   26.1152  H     
25   H         9.2187    3.8638   23.0261  H     
26   H         7.5385    4.4277   23.1996  H     
27   H        10.8965    8.5638   20.2095  H     
28   H        11.9715    8.0697   21.5404  H     
29   H        10.8487    9.4310   21.7650  H     
30   H         3.9377    3.8110   29.3556  H     
31   H         3.8925    2.9675   30.8899  H     
32   H         6.2005    1.8459   31.4981  H     
33   H         6.8768    0.9792   30.1982  H     
34   H         5.7823    4.3066   31.7474  H     
35   H         4.5634    5.4003   31.0683  H     
36   H         6.0435    5.0473   30.1560  H     
@<TRIPOS>BOND
     1    1    2 2
     2    1    6 1
     3    2    3 1
     4    3    4 2
     5    3    7 1
     6    4    5 1
     7    4   21 1
     8    5    6 2
     9    5   20 1
    10    6   15 1
    11    7    8 1
    12    8    9 1
    13    9   10 1
    14    9   13 2
    15   10   11 1
    16   11   12 2
    17   12   13 1
    18   12   14 1
    19   15   16 2
    20   15   17 1
    21   17   18 1
    22   17   19 2
    23   18   22 1
    24    1   23 1
    25    2   24 1
    26    8   25 1
    27    8   26 1
    28   14   27 1
    29   14   28 1
    30   14   29 1
    31   18   30 1
    32   18   31 1
    33   19   32 1
    34   19   33 1
    35   22   34 1
    36   22   35 1
    37   22   36 1
@<TRIPOS>PROPERTY_DATA
  Total_Score	| 2.5052
  Crash		| -0.5235
  Polar		| 1.2157
  FragIndex	| 1
  FragRMSD	| 0.723

