@<TRIPOS>MOLECULE
BindingDB_50300265
 47 49 0 0 0
SMALL
NO_CHARGES


@<TRIPOS>ATOM
1    C         6.3345    4.2484   27.4179  C     
2    C         7.1033    4.9560   26.4903  C     
3    C         8.1262    4.3100   25.7668  C     
4    C         8.4098    2.9496   26.0318  C     
5    C         7.6362    2.2327   26.9819  C     
6    C         6.5649    2.8802   27.6635  C     
7    O         8.8159    5.0258   24.8234  O     
8    C         8.2187    4.9761   23.5078  C     
9    C         8.8456    5.9680   22.6324  C     
10   O        10.1237    5.9616   22.1623  O     
11   N        10.2660    6.9807   21.3633  N     
12   C         9.0943    7.6425   21.3423  C     
13   N         8.2114    7.0213   22.1283  N     
14   C         8.7694    8.7643   20.5529  C     
15   C         5.6777    2.1851   28.4865  C     
16   O         5.0649    1.2344   28.0161  O     
17   C         5.5264    2.4509   29.8184  C     
18   C         4.5391    3.4332   30.2515  C     
19   C         6.1898    1.6954   30.7135  C     
20   Cl        8.0045    0.5986   27.3245  Cl    
21   C         8.4299    9.9971   21.1524  C     
22   C         8.0345   11.0877   20.3505  C     
23   C         7.9356   10.9474   18.9463  C     
24   C         8.3063    9.7147   18.3553  C     
25   C         8.7292    8.6356   19.1477  C     
26   O         7.5493   11.9192   18.0217  O     
27   Cl        9.6730    2.2046   25.1679  Cl    
28   C         7.4580   13.2835   18.4729  C     
29   C         5.1575    4.7063   30.8947  C     
30   H         5.5679    4.7336   27.8909  H     
31   H         6.9013    5.9338   26.3098  H     
32   H         8.3282    3.9759   23.0695  H     
33   H         7.1414    5.2011   23.5567  H     
34   H         3.9130    3.7617   29.4131  H     
35   H         3.8643    2.9645   30.9756  H     
36   H         6.0343    1.8158   31.6916  H     
37   H         6.8203    0.9785   30.4440  H     
38   H         8.4757   10.1015   22.1701  H     
39   H         7.7981   11.9896   20.7931  H     
40   H         8.2353    9.5832   17.3409  H     
41   H         8.9709    7.7473   18.7013  H     
42   H         6.7434   13.3653   19.3026  H     
43   H         7.1016   13.9165   17.6418  H     
44   H         8.4451   13.6255   18.7939  H     
45   H         5.6732    4.4583   31.8177  H     
46   H         4.3702    5.4223   31.1269  H     
47   H         5.8611    5.1718   30.2043  H     
@<TRIPOS>BOND
     1    1    2 2
     2    1    6 1
     3    2    3 1
     4    3    4 2
     5    3    7 1
     6    4    5 1
     7    4   27 1
     8    5    6 2
     9    5   20 1
    10    6   15 1
    11    7    8 1
    12    8    9 1
    13    9   10 1
    14    9   13 2
    15   10   11 1
    16   11   12 2
    17   12   13 1
    18   12   14 1
    19   14   21 2
    20   14   25 1
    21   15   16 2
    22   15   17 1
    23   17   18 1
    24   17   19 2
    25   18   29 1
    26   21   22 1
    27   22   23 2
    28   23   24 1
    29   23   26 1
    30   24   25 2
    31   26   28 1
    32    1   30 1
    33    2   31 1
    34    8   32 1
    35    8   33 1
    36   18   34 1
    37   18   35 1
    38   19   36 1
    39   19   37 1
    40   21   38 1
    41   22   39 1
    42   24   40 1
    43   25   41 1
    44   28   42 1
    45   28   43 1
    46   28   44 1
    47   29   45 1
    48   29   46 1
    49   29   47 1
@<TRIPOS>PROPERTY_DATA
  Total_Score	| 3.1071
  Crash		| -1.0040
  Polar		| 1.7234
  FragIndex	| 1
  FragRMSD	| 0.331

