@<TRIPOS>MOLECULE
BindingDB_50300263
 43 45 0 0 0
SMALL
NO_CHARGES


@<TRIPOS>ATOM
1    C         6.1733    4.0800   27.1308  C     
2    C         6.9967    4.7258   26.1978  C     
3    C         8.0737    4.0421   25.6067  C     
4    C         8.3394    2.7053   25.9687  C     
5    C         7.5157    2.0478   26.9172  C     
6    C         6.4150    2.7366   27.5042  C     
7    O         8.8492    4.7300   24.7091  O     
8    C         8.3236    4.7682   23.3672  C     
9    C         8.8046    5.9903   22.7345  C     
10   O         7.9951    6.9516   22.2453  O     
11   N         8.7463    7.8918   21.7622  N     
12   C        10.0372    7.5493   21.9387  C     
13   N        10.0795    6.3472   22.5425  N     
14   C        11.1479    8.3004   21.4889  C     
15   C         5.5398    2.1334   28.4016  C     
16   O         4.9391    1.1260   28.0564  O     
17   C         5.5057    2.4707   29.7223  C     
18   C         4.5962    3.5192   30.1914  C     
19   C         6.2532    1.7695   30.5967  C     
20   Cl        7.8918    0.4566   27.3901  Cl    
21   C        11.1115    8.9392   20.2273  C     
22   C        12.2555    9.5849   19.7248  C     
23   C        13.4538    9.5840   20.4615  C     
24   C        13.4861    8.9949   21.7368  C     
25   C        12.3318    8.3853   22.2570  C     
26   F        14.5309   10.1253   19.9594  F     
27   Cl        9.6567    1.9260   25.2310  Cl    
28   C         5.3321    4.7103   30.8509  C     
29   H         5.3801    4.6015   27.5175  H     
30   H         6.7999    5.6977   25.9357  H     
31   H         8.6894    3.9065   22.8003  H     
32   H         7.2270    4.7699   23.3278  H     
33   H         3.9940    3.9124   29.3692  H     
34   H         3.8942    3.0916   30.9133  H     
35   H         6.2054    1.9571   31.5730  H     
36   H         6.8666    1.0423   30.3013  H     
37   H        10.2662    8.9302   19.6551  H     
38   H        12.2126   10.0354   18.8096  H     
39   H        14.3501    9.0026   22.2843  H     
40   H        12.3750    7.9899   23.1980  H     
41   H         5.8184    4.3968   31.7768  H     
42   H         4.6160    5.4985   31.0854  H     
43   H         6.0885    5.1172   30.1780  H     
@<TRIPOS>BOND
     1    1    2 2
     2    1    6 1
     3    2    3 1
     4    3    4 2
     5    3    7 1
     6    4    5 1
     7    4   27 1
     8    5    6 2
     9    5   20 1
    10    6   15 1
    11    7    8 1
    12    8    9 1
    13    9   10 1
    14    9   13 2
    15   10   11 1
    16   11   12 2
    17   12   13 1
    18   12   14 1
    19   14   21 2
    20   14   25 1
    21   15   16 2
    22   15   17 1
    23   17   18 1
    24   17   19 2
    25   18   28 1
    26   21   22 1
    27   22   23 2
    28   23   24 1
    29   23   26 1
    30   24   25 2
    31    1   29 1
    32    2   30 1
    33    8   31 1
    34    8   32 1
    35   18   33 1
    36   18   34 1
    37   19   35 1
    38   19   36 1
    39   21   37 1
    40   22   38 1
    41   24   39 1
    42   25   40 1
    43   28   41 1
    44   28   42 1
    45   28   43 1
@<TRIPOS>PROPERTY_DATA
  Total_Score	| 3.6095
  Crash		| -1.1644
  Polar		| 1.0918
  FragIndex	| 1
  FragRMSD	| 0.745

