@<TRIPOS>MOLECULE
BindingDB_50186225
 99 101 0 0 0
SMALL
NO_CHARGES


@<TRIPOS>ATOM
1    C         7.2219    4.5369   25.5967  C     
2    C         6.3802    5.1437   26.5496  C     
3    C         5.6522    4.3316   27.4577  C     
4    C         5.8010    2.9058   27.4376  C     
5    C         6.6432    2.3365   26.4447  C     
6    C         7.3477    3.1388   25.5417  C     
7    Cl        6.2850    6.8485   26.5513  Cl    
8    Cl        4.5547    5.1044   28.5192  Cl    
9    C         5.1642    2.0361   28.3492  C     
10   C         5.1005    2.2557   29.6975  C     
11   O         4.8312    0.9120   27.9823  O     
12   C         3.9126    2.4522   30.3006  C     
13   O         8.0129    5.3046   24.7878  O     
14   C         6.3401    2.2350   30.4753  C     
15   C        10.3268    2.6553   22.6971  C     
16   C         2.6384    9.8184   23.9500  C     
17   C         2.9967    8.6044   23.3179  C     
18   C         2.8465    8.4546   21.9132  C     
19   C         2.2588    9.4974   21.1310  C     
20   C         1.8829   10.6936   21.7931  C     
21   C         2.0675   10.8460   23.1733  C     
22   Cl        3.6333    7.3602   24.2911  Cl    
23   Cl        3.2628    6.9539   21.2120  Cl    
24   C         2.0563    9.4125   19.7396  C     
25   C         0.9376    9.8786   19.0750  C     
26   O         2.9462    8.8873   19.0734  O     
27   C        -0.2792    9.0575   18.9542  C     
28   C         0.9670   11.0698   18.4151  C     
29   C        -0.5614    8.5991   17.5009  C     
30   O         2.8327    9.9430   25.3128  O     
31   C        10.0597    8.4296   24.6624  C     
32   C        11.3443    8.9917   24.4933  C     
33   C        12.5101    8.3140   24.9379  C     
34   C        12.3502    7.0469   25.5638  C     
35   C        11.0731    6.4843   25.7751  C     
36   C         9.9356    7.2057   25.3494  C     
37   C        13.7900    8.8393   24.7219  C     
38   N        13.9994   10.0517   24.2513  N     
39   O        14.8099    8.2017   24.9792  O     
40   C        10.9120    5.1056   26.3020  C     
41   N        10.9259    4.1823   25.2096  N     
42   C        10.4472    2.9464   25.2451  C     
43   C        10.5625    2.0382   24.1037  C     
44   O         9.8839    2.5235   26.2478  O     
45   C         8.8855    9.0875   24.0411  C     
46   N         8.5633   10.2976   24.7241  N     
47   C         7.6047   11.1447   24.3753  C     
48   C         7.3139   12.2971   25.2117  C     
49   O         6.9567   10.9909   23.3443  O     
50   C         5.8769   12.8675   25.0517  C     
51   N         4.8660   12.0200   25.6104  N     
52   C         3.5620   12.2494   25.5607  C     
53   O         3.1239   13.2988   25.1070  O     
54   C         2.6304   11.2112   25.9788  C     
55   N         9.1318    3.4304   22.7176  N     
56   C         9.0389    4.7450   22.8358  C     
57   C         7.8004    5.2531   23.3660  C     
58   O        10.0323    5.4666   22.8539  O     
59   H         6.7700    1.3158   26.3926  H     
60   H         7.9717    2.6968   24.8601  H     
61   H         3.8487    2.6072   31.2820  H     
62   H         3.0655    2.4599   29.7773  H     
63   H         6.8566    1.2870   30.3144  H     
64   H         6.1711    2.3440   31.5495  H     
65   H         6.9918    3.0504   30.1551  H     
66   H        11.2085    3.2345   22.3984  H     
67   H        10.2030    1.8443   21.9678  H     
68   H         1.4845   11.4812   21.2685  H     
69   H         1.7750   11.7185   23.6104  H     
70   H        -0.2266    8.1552   19.5678  H     
71   H        -1.1439    9.6210   19.3253  H     
72   H         0.1740   11.3970   17.9096  H     
73   H         1.7480   11.6707   18.4852  H     
74   H        -0.6172    9.4552   16.8277  H     
75   H        -1.5137    8.0658   17.4616  H     
76   H         0.2264    7.9266   17.1564  H     
77   H        11.4387    9.8961   24.0071  H     
78   H        13.1771    6.5009   25.8540  H     
79   H         8.9962    6.8298   25.5183  H     
80   H        14.9083   10.3750   24.1393  H     
81   H        13.2544   10.6379   24.0095  H     
82   H        11.7286    4.8527   26.9838  H     
83   H         9.9807    5.0293   26.8640  H     
84   H        11.3316    4.4775   24.3820  H     
85   H         9.8626    1.1976   24.2181  H     
86   H        11.5656    1.6024   24.1082  H     
87   H         9.1284    9.2984   22.9962  H     
88   H         8.0114    8.4406   24.0488  H     
89   H         9.0903   10.5221   25.5077  H     
90   H         7.4632   12.0470   26.2682  H     
91   H         8.0335   13.0868   24.9645  H     
92   H         5.8385   13.8408   25.5471  H     
93   H         5.6714   13.0190   23.9868  H     
94   H         5.1533   11.1748   25.9876  H     
95   H         1.5937   11.5294   25.8253  H     
96   H         2.7576   11.0429   27.0560  H     
97   H         8.3044    2.9296   22.7728  H     
98   H         6.9522    4.6271   23.0616  H     
99   H         7.6169    6.2668   22.9949  H     
@<TRIPOS>BOND
     1    1    2 2
     2    1    6 1
     3    1   13 1
     4    2    3 1
     5    2    7 1
     6    3    4 2
     7    3    8 1
     8    4    5 1
     9    4    9 1
    10    5    6 2
    11    9   10 1
    12    9   11 2
    13   10   12 2
    14   10   14 1
    15   13   57 1
    16   15   43 1
    17   15   55 1
    18   16   17 2
    19   16   21 1
    20   16   30 1
    21   17   18 1
    22   17   22 1
    23   18   19 2
    24   18   23 1
    25   19   20 1
    26   19   24 1
    27   20   21 2
    28   24   25 1
    29   24   26 2
    30   25   27 1
    31   25   28 2
    32   27   29 1
    33   30   54 1
    34   31   32 2
    35   31   36 1
    36   31   45 1
    37   32   33 1
    38   33   34 2
    39   33   37 1
    40   34   35 1
    41   35   36 2
    42   35   40 1
    43   37   38 am
    44   37   39 2
    45   40   41 1
    46   41   42 am
    47   42   43 1
    48   42   44 2
    49   45   46 1
    50   46   47 am
    51   47   48 1
    52   47   49 2
    53   48   50 1
    54   50   51 1
    55   51   52 am
    56   52   53 2
    57   52   54 1
    58   55   56 am
    59   56   57 1
    60   56   58 2
    61    5   59 1
    62    6   60 1
    63   12   61 1
    64   12   62 1
    65   14   63 1
    66   14   64 1
    67   14   65 1
    68   15   66 1
    69   15   67 1
    70   20   68 1
    71   21   69 1
    72   27   70 1
    73   27   71 1
    74   28   72 1
    75   28   73 1
    76   29   74 1
    77   29   75 1
    78   29   76 1
    79   32   77 1
    80   34   78 1
    81   36   79 1
    82   38   80 1
    83   38   81 1
    84   40   82 1
    85   40   83 1
    86   41   84 1
    87   43   85 1
    88   43   86 1
    89   45   87 1
    90   45   88 1
    91   46   89 1
    92   48   90 1
    93   48   91 1
    94   50   92 1
    95   50   93 1
    96   51   94 1
    97   54   95 1
    98   54   96 1
    99   55   97 1
   100   57   98 1
   101   57   99 1
@<TRIPOS>PROPERTY_DATA
  Total_Score	| 1.8493
  Crash		| -4.6764
  Polar		| 2.5907
  FragIndex	| 1
  FragRMSD	| 0.553

