@<TRIPOS>MOLECULE
BindingDB_50300264
 46 48 0 0 0
SMALL
NO_CHARGES


@<TRIPOS>ATOM
1    C         5.5981    3.6566   26.5023  C     
2    C         6.2764    4.2413   25.4246  C     
3    C         7.5565    3.7884   25.0574  C     
4    C         8.1348    2.6901   25.7369  C     
5    C         7.4496    2.0909   26.8274  C     
6    C         6.1905    2.6088   27.2429  C     
7    O         8.1699    4.3868   23.9878  O     
8    C         8.8579    5.6063   24.3175  C     
9    C         9.1544    6.2915   23.0573  C     
10   O        10.3162    6.1885   22.3723  O     
11   N        10.2002    6.8907   21.2840  N     
12   C         8.9781    7.4541   21.2768  C     
13   N         8.3144    7.0839   22.3822  N     
14   C         8.4577    8.2650   20.2576  C     
15   C         5.4759    2.0784   28.3060  C     
16   O         4.8396    1.0516   28.1107  O     
17   C         5.5818    2.5562   29.5800  C     
18   C         4.6903    3.6312   30.0281  C     
19   C         6.3489    1.8906   30.4663  C     
20   Cl        8.1268    0.7319   27.6025  Cl    
21   C         7.7499    9.4482   20.5657  C     
22   C         7.2399   10.2555   19.5347  C     
23   C         7.3900    9.8859   18.1781  C     
24   C         8.0864    8.6905   17.8804  C     
25   C         8.6249    7.8950   18.9061  C     
26   C         6.8150   10.7573   17.1163  C     
27   F         6.9711   10.2763   15.8382  F     
28   F         5.4659   10.9127   17.3226  F     
29   F         7.4166   11.9908   17.1606  F     
30   Cl        9.6154    2.0798   25.1601  Cl    
31   C         5.3466    4.7748   30.8380  C     
32   H         4.6560    3.9844   26.7182  H     
33   H         5.8197    4.9844   24.8886  H     
34   H         8.2551    6.2745   24.9376  H     
35   H         9.7967    5.3922   24.8328  H     
36   H         4.1579    4.0880   29.1841  H     
37   H         3.9280    3.1751   30.6593  H     
38   H         6.3700    2.1611   31.4192  H     
39   H         6.8936    1.1000   30.1984  H     
40   H         7.6189    9.7426   21.5378  H     
41   H         6.7556   11.1243   19.7804  H     
42   H         8.2026    8.3814   16.9139  H     
43   H         9.1174    7.0315   18.6583  H     
44   H         5.6289    4.4223   31.8285  H     
45   H         4.6219    5.5821   30.9671  H     
46   H         6.2324    5.1705   30.3376  H     
@<TRIPOS>BOND
     1    1    2 2
     2    1    6 1
     3    2    3 1
     4    3    4 2
     5    3    7 1
     6    4    5 1
     7    4   30 1
     8    5    6 2
     9    5   20 1
    10    6   15 1
    11    7    8 1
    12    8    9 1
    13    9   10 1
    14    9   13 2
    15   10   11 1
    16   11   12 2
    17   12   13 1
    18   12   14 1
    19   14   21 2
    20   14   25 1
    21   15   16 2
    22   15   17 1
    23   17   18 1
    24   17   19 2
    25   18   31 1
    26   21   22 1
    27   22   23 2
    28   23   24 1
    29   23   26 1
    30   24   25 2
    31   26   27 1
    32   26   28 1
    33   26   29 1
    34    1   32 1
    35    2   33 1
    36    8   34 1
    37    8   35 1
    38   18   36 1
    39   18   37 1
    40   19   38 1
    41   19   39 1
    42   21   40 1
    43   22   41 1
    44   24   42 1
    45   25   43 1
    46   31   44 1
    47   31   45 1
    48   31   46 1
@<TRIPOS>PROPERTY_DATA
  Total_Score	| 3.4377
  Crash		| -0.7410
  Polar		| 1.8900
  FragIndex	| 1
  FragRMSD	| 0.674

