@<TRIPOS>MOLECULE
BindingDB_50300262
 43 45 0 0 0
SMALL
NO_CHARGES


@<TRIPOS>ATOM
1    C         5.7088    3.8363   26.6417  C     
2    C         6.3749    4.4442   25.5663  C     
3    C         7.5936    3.9288   25.0970  C     
4    C         8.1139    2.7435   25.6647  C     
5    C         7.4323    2.1082   26.7358  C     
6    C         6.2468    2.6905   27.2726  C     
7    O         8.1954    4.5405   24.0291  O     
8    C         8.6805    5.8684   24.2839  C     
9    C         9.1132    6.4434   23.0057  C     
10   O        10.2974    6.2005   22.3897  O     
11   N        10.2894    6.8260   21.2461  N     
12   C         9.1162    7.4776   21.1257  C     
13   N         8.3794    7.2477   22.2290  N     
14   C         8.6889    8.1961   19.9943  C     
15   C         5.5379    2.1199   28.3283  C     
16   O         4.9397    1.0716   28.1206  O     
17   C         5.5941    2.5892   29.6094  C     
18   C         4.7123    3.6845   30.0335  C     
19   C         6.3460    1.9358   30.5186  C     
20   Cl        8.0246    0.6306   27.3526  Cl    
21   C         8.6149    7.5563   18.7330  C     
22   C         8.1415    8.2561   17.6064  C     
23   C         7.7702    9.6077   17.7198  C     
24   C         7.8476   10.2550   18.9666  C     
25   C         8.2857    9.5487   20.1038  C     
26   Cl        9.5327    2.0936   24.9875  Cl    
27   C         5.4350    4.8192   30.8056  C     
28   H         4.8091    4.2288   26.9439  H     
29   H         5.9602    5.2650   25.1139  H     
30   H         7.8816    6.4962   24.6992  H     
31   H         9.5255    5.8553   24.9754  H     
32   H         4.2126    4.1424   29.1800  H     
33   H         3.9289    3.2786   30.6795  H     
34   H         6.3456    2.2072   31.4775  H     
35   H         6.9020    1.1474   30.2717  H     
36   H         8.8695    6.5693   18.6340  H     
37   H         8.0585    7.7773   16.7047  H     
38   H         7.4444   10.1202   16.8990  H     
39   H         7.5879   11.2437   19.0468  H     
40   H         8.3259   10.0314   21.0066  H     
41   H         5.7795    4.4619   31.7822  H     
42   H         4.7494    5.6513   30.9661  H     
43   H         6.2953    5.1844   30.2412  H     
@<TRIPOS>BOND
     1    1    2 2
     2    1    6 1
     3    2    3 1
     4    3    4 2
     5    3    7 1
     6    4    5 1
     7    4   26 1
     8    5    6 2
     9    5   20 1
    10    6   15 1
    11    7    8 1
    12    8    9 1
    13    9   10 1
    14    9   13 2
    15   10   11 1
    16   11   12 2
    17   12   13 1
    18   12   14 1
    19   14   21 2
    20   14   25 1
    21   15   16 2
    22   15   17 1
    23   17   18 1
    24   17   19 2
    25   18   27 1
    26   21   22 1
    27   22   23 2
    28   23   24 1
    29   24   25 2
    30    1   28 1
    31    2   29 1
    32    8   30 1
    33    8   31 1
    34   18   32 1
    35   18   33 1
    36   19   34 1
    37   19   35 1
    38   21   36 1
    39   22   37 1
    40   23   38 1
    41   24   39 1
    42   25   40 1
    43   27   41 1
    44   27   42 1
    45   27   43 1
@<TRIPOS>PROPERTY_DATA
  Total_Score	| 3.4746
  Crash		| -0.8236
  Polar		| 2.0262
  FragIndex	| 1
  FragRMSD	| 0.625

