@<TRIPOS>MOLECULE
BindingDB_50300266
 43 45 0 0 0
SMALL
NO_CHARGES


@<TRIPOS>ATOM
1    C         5.9216    3.9972   26.7632  C     
2    C         6.5580    4.5547   25.6389  C     
3    C         7.7529    4.0051   25.1550  C     
4    C         8.2636    2.8128   25.7284  C     
5    C         7.6369    2.2437   26.8633  C     
6    C         6.4771    2.8705   27.4154  C     
7    O         8.3310    4.5853   24.0486  O     
8    C         8.8554    5.9055   24.2795  C     
9    C         9.1847    6.4742   22.9682  C     
10   O        10.3829    6.3518   22.3413  O     
11   N        10.2759    6.8995   21.1646  N     
12   C         9.0250    7.3891   21.0330  C     
13   N         8.3404    7.1260   22.1599  N     
14   C         8.4972    7.9695   19.8701  C     
15   C         5.8379    2.3634   28.5386  C     
16   O         5.1098    1.3983   28.2805  O     
17   C         5.9141    2.8978   29.8120  C     
18   C         5.8195    2.0182   30.9874  C     
19   C         6.0308    4.2304   30.0077  C     
20   Cl        8.2399    0.8174   27.5695  Cl    
21   C         8.5578    7.2740   18.6389  C     
22   C         7.9950    7.8243   17.4749  C     
23   C         7.3947    9.0985   17.5113  C     
24   C         7.3379    9.8029   18.7296  C     
25   C         7.8674    9.2357   19.9044  C     
26   Cl        6.7284    9.7669   16.1062  Cl    
27   Cl        9.6192    2.0876   25.0131  Cl    
28   C         4.4800    1.2587   31.1468  C     
29   H         5.0553    4.4285   27.0984  H     
30   H         6.1400    5.3644   25.1828  H     
31   H         8.1318    6.5680   24.7622  H     
32   H         9.7490    5.8637   24.9028  H     
33   H         6.6523    1.2921   30.9686  H     
34   H         5.9588    2.5857   31.9175  H     
35   H         6.0140    4.6188   30.9172  H     
36   H         6.1146    4.8711   29.2581  H     
37   H         8.9800    6.3436   18.5915  H     
38   H         8.0148    7.2863   16.6029  H     
39   H         6.9059   10.7313   18.7662  H     
40   H         7.8125    9.7633   20.7807  H     
41   H         3.6366    1.9279   30.9645  H     
42   H         4.4067    0.8436   32.1523  H     
43   H         4.4260    0.4164   30.4644  H     
@<TRIPOS>BOND
     1    1    2 2
     2    1    6 1
     3    2    3 1
     4    3    4 2
     5    3    7 1
     6    4    5 1
     7    4   27 1
     8    5    6 2
     9    5   20 1
    10    6   15 1
    11    7    8 1
    12    8    9 1
    13    9   10 1
    14    9   13 2
    15   10   11 1
    16   11   12 2
    17   12   13 1
    18   12   14 1
    19   14   21 2
    20   14   25 1
    21   15   16 2
    22   15   17 1
    23   17   18 1
    24   17   19 2
    25   18   28 1
    26   21   22 1
    27   22   23 2
    28   23   24 1
    29   23   26 1
    30   24   25 2
    31    1   29 1
    32    2   30 1
    33    8   31 1
    34    8   32 1
    35   18   33 1
    36   18   34 1
    37   19   35 1
    38   19   36 1
    39   21   37 1
    40   22   38 1
    41   24   39 1
    42   25   40 1
    43   28   41 1
    44   28   42 1
    45   28   43 1
@<TRIPOS>PROPERTY_DATA
  Total_Score	| 2.8044
  Crash		| -1.1897
  Polar		| 2.4993
  FragIndex	| 1
  FragRMSD	| 1.291

