@<TRIPOS>MOLECULE
BindingDB_50186228
 82 84 0 0 0
SMALL
NO_CHARGES


@<TRIPOS>ATOM
1    C        10.6058    8.3072   21.7202  C     
2    C        11.6035    8.8131   20.8558  C     
3    C        12.9260    9.0555   21.3055  C     
4    C        13.2188    8.8143   22.6722  C     
5    C        12.2187    8.4119   23.5858  C     
6    C        10.9082    8.1821   23.0922  C     
7    C        13.8843    9.5710   20.4319  C     
8    N        15.1858    9.4740   20.6539  N     
9    O        13.5699   10.1466   19.3971  O     
10   C        12.5726    8.1504   25.0142  C     
11   N        11.4628    8.0257   25.9209  N     
12   C        10.8168    6.9169   26.2642  C     
13   C         7.6990    8.3865   27.4316  C     
14   C         7.6208    8.6074   28.8207  C     
15   C         6.3786    8.8666   29.4312  C     
16   C         5.1702    8.9155   28.6782  C     
17   C         5.2648    8.6857   27.2687  C     
18   C         6.5240    8.4510   26.6549  C     
19   Cl        6.6837    8.2337   24.9703  Cl    
20   Cl        3.8692    8.6038   26.2841  Cl    
21   C         3.9643    9.2356   29.3411  C     
22   O         3.2824   10.1796   28.9566  O     
23   C         3.4879    8.5658   30.4265  C     
24   C         3.1734    9.2518   31.6918  C     
25   C         3.2422    7.2422   30.3049  C     
26   C         2.3888   10.5808   31.6404  C     
27   O         8.9181    8.2128   26.8227  O     
28   C         9.6311    6.9888   27.0927  C     
29   O        11.1593    5.8301   25.8148  O     
30   C         9.2805    7.9118   21.1701  C     
31   N         8.4913    7.0185   21.9730  N     
32   C         8.9240    5.9374   22.6098  C     
33   C         8.0097    5.1297   23.3998  C     
34   O        10.1115    5.6351   22.6109  O     
35   O         8.5995    4.9491   24.7010  O     
36   C         7.8462    4.1812   25.5518  C     
37   C         8.2355    2.8691   25.9085  C     
38   C         7.4638    2.1299   26.8470  C     
39   C         6.3237    2.7248   27.4549  C     
40   C         5.9556    4.0381   27.0836  C     
41   C         6.7114    4.7568   26.1509  C     
42   Cl        9.6389    2.2297   25.1856  Cl    
43   Cl        7.9613    0.5575   27.2893  Cl    
44   C         5.5248    2.0570   28.3773  C     
45   C         5.5230    2.3805   29.6977  C     
46   O         4.9580    1.0271   28.0247  O     
47   C         4.6337    3.4304   30.2038  C     
48   C         6.2615    1.6460   30.5642  C     
49   C         5.3839    4.5539   30.9569  C     
50   H        11.3776    8.9256   19.8705  H     
51   H        14.1644    8.9718   23.0292  H     
52   H        10.1732    7.8794   23.7327  H     
53   H        15.8205    9.8269   20.0092  H     
54   H        15.5106    9.0126   21.4410  H     
55   H        13.2117    7.2536   25.0600  H     
56   H        13.1742    8.9936   25.3798  H     
57   H        11.1027    8.8607   26.2514  H     
58   H         8.4783    8.6077   29.3929  H     
59   H         6.3766    9.0535   30.4419  H     
60   H         2.5883    8.5684   32.3177  H     
61   H         4.1194    9.4403   32.2029  H     
62   H         2.8946    6.7167   31.0762  H     
63   H         3.4259    6.7458   29.4536  H     
64   H         2.9069   11.3174   31.0190  H     
65   H         2.2973   10.9885   32.6553  H     
66   H         1.3841   10.4146   31.2508  H     
67   H         8.9983    6.1163   26.9146  H     
68   H         9.9383    6.9720   28.1386  H     
69   H         8.6862    8.8142   21.0044  H     
70   H         9.4204    7.4340   20.1968  H     
71   H         7.5436    7.2172   22.0406  H     
72   H         7.0361    5.6283   23.4865  H     
73   H         7.8560    4.1615   22.9051  H     
74   H         5.1306    4.4914   27.4816  H     
75   H         6.4353    5.7064   25.9039  H     
76   H         4.0642    3.8904   29.3858  H     
77   H         3.8924    2.9847   30.8770  H     
78   H         6.2400    1.8387   31.5388  H     
79   H         6.8526    0.9109   30.2494  H     
80   H         5.8367    4.1606   31.8731  H     
81   H         4.6793    5.3405   31.2313  H     
82   H         6.1705    4.9909   30.3324  H     
@<TRIPOS>BOND
     1    1    2 2
     2    1    6 1
     3    1   30 1
     4    2    3 1
     5    3    4 2
     6    3    7 1
     7    4    5 1
     8    5    6 2
     9    5   10 1
    10    7    8 am
    11    7    9 2
    12   10   11 1
    13   11   12 am
    14   12   28 1
    15   12   29 2
    16   13   14 2
    17   13   18 1
    18   13   27 1
    19   14   15 1
    20   15   16 2
    21   16   17 1
    22   16   21 1
    23   17   18 2
    24   17   20 1
    25   18   19 1
    26   21   22 2
    27   21   23 1
    28   23   24 1
    29   23   25 2
    30   24   26 1
    31   27   28 1
    32   30   31 1
    33   31   32 am
    34   32   33 1
    35   32   34 2
    36   33   35 1
    37   35   36 1
    38   36   37 2
    39   36   41 1
    40   37   38 1
    41   37   42 1
    42   38   39 2
    43   38   43 1
    44   39   40 1
    45   39   44 1
    46   40   41 2
    47   44   45 1
    48   44   46 2
    49   45   47 1
    50   45   48 2
    51   47   49 1
    52    2   50 1
    53    4   51 1
    54    6   52 1
    55    8   53 1
    56    8   54 1
    57   10   55 1
    58   10   56 1
    59   11   57 1
    60   14   58 1
    61   15   59 1
    62   24   60 1
    63   24   61 1
    64   25   62 1
    65   25   63 1
    66   26   64 1
    67   26   65 1
    68   26   66 1
    69   28   67 1
    70   28   68 1
    71   30   69 1
    72   30   70 1
    73   31   71 1
    74   33   72 1
    75   33   73 1
    76   40   74 1
    77   41   75 1
    78   47   76 1
    79   47   77 1
    80   48   78 1
    81   48   79 1
    82   49   80 1
    83   49   81 1
    84   49   82 1
@<TRIPOS>PROPERTY_DATA
  Total_Score	| 3.8884
  Crash		| -2.7554
  Polar		| 1.2266
  FragIndex	| 1
  FragRMSD	| 0.487

