@<TRIPOS>MOLECULE
BindingDB_50186231
 30 30 0 0 0
SMALL
NO_CHARGES


@<TRIPOS>ATOM
1    C         8.9584    5.9181   22.6786  C     
2    C         8.1416    4.8800   23.3282  C     
3    O         8.4193    4.9465   24.7394  O     
4    C         7.6617    4.1254   25.5249  C     
5    C         8.1204    2.8421   25.9271  C     
6    Cl        9.5609    2.2636   25.2506  Cl    
7    C         7.3858    2.1001   26.8791  C     
8    Cl        7.9558    0.5714   27.3789  Cl    
9    C         6.1863    2.6385   27.4404  C     
10   C         5.7093    3.8769   26.9602  C     
11   C         6.4590    4.6200   26.0283  C     
12   C         5.4393    1.9852   28.4134  C     
13   C         5.5070    2.3104   29.7369  C     
14   C         4.6038    3.3863   30.2082  C     
15   C         5.2068    4.5998   30.9448  C     
16   C         6.3091    1.5803   30.5468  C     
17   O         4.7537    1.0230   28.0753  O     
18   O         8.3812    7.0148   22.1399  O     
19   O        10.3021    5.8240   22.6810  O     
20   H         7.0880    5.0676   23.1137  H     
21   H         8.4189    3.9079   22.9130  H     
22   H         4.8137    4.2619   27.2852  H     
23   H         6.1157    5.5372   25.7308  H     
24   H         4.0883    3.8126   29.3313  H     
25   H         3.8394    2.9467   30.8519  H     
26   H         5.6073    4.3151   31.8976  H     
27   H         4.4110    5.3657   31.1186  H     
28   H         5.9758    5.0623   30.3267  H     
29   H         6.3697    1.7570   31.5158  H     
30   H         6.8570    0.8322   30.1875  H     
@<TRIPOS>BOND
     1    1    2 1
     2    1   18 2
     3    1   19 1
     4    2    3 1
     5    3    4 1
     6    4    5 2
     7    4   11 1
     8    5    6 1
     9    5    7 1
    10    7    8 1
    11    7    9 2
    12    9   10 1
    13    9   12 1
    14   10   11 2
    15   12   13 1
    16   12   17 2
    17   13   14 1
    18   13   16 2
    19   14   15 1
    20    2   20 1
    21    2   21 1
    22   10   22 1
    23   11   23 1
    24   14   24 1
    25   14   25 1
    26   15   26 1
    27   15   27 1
    28   15   28 1
    29   16   29 1
    30   16   30 1
@<TRIPOS>PROPERTY_DATA
  Total_Score	| 1.7320
  Crash		| -0.4883
  Polar		| 1.5698
  FragIndex	| 1
  FragRMSD	| 0.264

