@<TRIPOS>MOLECULE
BindingDB_50118239
 36 37 0 0 0
SMALL
NO_CHARGES


@<TRIPOS>ATOM
1    C        37.6971   -2.0213   12.7747  C     
2    C        35.4863   -4.8692   13.5590  C     
3    C        36.5016   -3.9847   13.5696  C     
4    N        36.5945   -2.9674   12.6676  N     
5    C        35.6026   -2.8609   11.7381  C     
6    N        34.6254   -3.7652   11.6945  N     
7    C        34.5506   -4.7596   12.5743  C     
8    O        33.6334   -5.5681   12.5207  O     
9    O        35.5419   -1.9510   10.9097  O     
10   O        37.2537   -0.8170   13.3939  O     
11   C        38.2885    0.1672   13.2617  C     
12   C        39.0645   -0.2215   11.9683  C     
13   C        38.3739   -1.5154   11.4915  C     
14   C        37.6517    1.5971   13.3814  C     
15   O        37.8021    2.4593   12.2372  O     
16   O        39.2749   -2.4665   10.9389  O     
17   O        40.4423   -0.4458   12.2883  O     
18   P        38.9397    3.5326   12.2290  P     
19   O        38.9947    4.1970   13.5238  O     
20   O        40.2876    2.8180   11.9620  O     
21   O        38.5391    4.4915   11.0680  O     
22   P        39.6993    5.2611   10.3800  P     
23   O        39.8105    6.7499   10.7970  O     
24   O        39.3667    5.2722    8.9706  O     
25   O        41.0609    4.5359   10.4899  O     
26   H        38.4883   -2.4362   13.4048  H     
27   H        35.4252   -5.5702   14.2684  H     
28   H        37.1744   -4.0737   14.3038  H     
29   H        33.9417   -3.7162   11.0046  H     
30   H        38.9462    0.0424   14.1258  H     
31   H        39.0063    0.5458   11.1964  H     
32   H        37.6203   -1.2797   10.7324  H     
33   H        36.5730    1.4827   13.4967  H     
34   H        37.9867    2.0785   14.3095  H     
35   H        39.3029   -2.2296    9.9825  H     
36   H        40.8925   -0.5991   11.4334  H     
@<TRIPOS>BOND
     1    1    4 1
     2    1   10 1
     3    1   13 1
     4    2    3 2
     5    2    7 1
     6    3    4 1
     7    4    5 1
     8    5    6 1
     9    5    9 2
    10    6    7 1
    11    7    8 2
    12   10   11 1
    13   11   12 1
    14   11   14 1
    15   12   13 1
    16   12   17 1
    17   13   16 1
    18   14   15 1
    19   15   18 1
    20   18   19 2
    21   18   20 1
    22   18   21 1
    23   21   22 1
    24   22   23 1
    25   22   24 2
    26   22   25 1
    27    1   26 1
    28    2   27 1
    29    3   28 1
    30    6   29 1
    31   11   30 1
    32   12   31 1
    33   13   32 1
    34   14   33 1
    35   14   34 1
    36   16   35 1
    37   17   36 1
@<TRIPOS>PROPERTY_DATA
  Total_Score	| 4.5079
  Crash		| -1.4175
  Polar		| 5.9804
  FragIndex	| 1
  FragRMSD	| 1.058

