@<TRIPOS>MOLECULE
BindingDB_50292722
 32 33 0 0 0
SMALL
NO_CHARGES


@<TRIPOS>ATOM
1    O        40.3441   -1.3519   13.9785  O     
2    C        40.4645   -0.6526   12.7310  C     
3    C        39.1015   -0.2936   12.0856  C     
4    C        38.2290    0.7502   12.8445  C     
5    O        37.9795    1.9272   12.0397  O     
6    C        36.9053   -0.0082   13.0552  C     
7    O        35.7365    0.7958   12.9262  O     
8    C        36.9471   -1.1177   11.9908  C     
9    O        38.3281   -1.4941   11.9575  O     
10   N        36.0841   -2.2592   12.2603  N     
11   C        35.0287   -2.5741   11.4765  C     
12   O        34.6626   -1.9047   10.5208  O     
13   N        34.3240   -3.6771   11.7123  N     
14   C        34.6294   -4.5053   12.7114  C     
15   C        35.6658   -4.2085   13.5434  C     
16   C        36.3772   -3.0893   13.3068  C     
17   P        38.8341    3.1941   12.3197  P     
18   O        40.2495    3.1159   11.7035  O     
19   O        38.8791    3.4583   13.7453  O     
20   O        38.0605    4.3673   11.6873  O     
21   O        33.9656   -5.5190   12.8588  O     
22   H        39.9541   -0.6999   14.6073  H     
23   H        41.0505    0.2664   12.8676  H     
24   H        41.0264   -1.3068   12.0508  H     
25   H        39.2882    0.0653   11.0693  H     
26   H        38.6228    0.9875   13.8408  H     
27   H        36.9009   -0.4472   14.0564  H     
28   H        35.2814    0.7392   13.7962  H     
29   H        36.7089   -0.6738   11.0167  H     
30   H        33.5745   -3.8905   11.1324  H     
31   H        35.8970   -4.7979   14.3138  H     
32   H        37.1423   -2.8860   13.9082  H     
@<TRIPOS>BOND
     1    1    2 1
     2    3    2 1
     3    3    4 1
     4    3    9 1
     5    4    5 1
     6    4    6 1
     7    5   17 1
     8    6    7 1
     9    6    8 1
    10    8    9 1
    11    8   10 1
    12   10   11 1
    13   10   16 1
    14   11   12 2
    15   11   13 1
    16   13   14 1
    17   14   15 1
    18   14   21 2
    19   15   16 2
    20   17   18 1
    21   17   19 2
    22   17   20 1
    23    1   22 1
    24    2   23 1
    25    2   24 1
    26    3   25 1
    27    4   26 1
    28    6   27 1
    29    7   28 1
    30    8   29 1
    31   13   30 1
    32   15   31 1
    33   16   32 1
@<TRIPOS>PROPERTY_DATA
  Total_Score	| 5.8190
  Crash		| -0.5042
  Polar		| 6.1209
  FragIndex	| 1
  FragRMSD	| 0.158

