@<TRIPOS>MOLECULE
BindingDB_50292723
 32 33 0 0 0
SMALL
NO_CHARGES


@<TRIPOS>ATOM
1    O        40.6811   -1.5784   13.5783  O     
2    C        40.5348   -1.0237   12.2723  C     
3    C        39.1335   -0.4052   12.0428  C     
4    C        38.4458    0.1156   13.3189  C     
5    O        39.0804    1.2889   13.8026  O     
6    C        36.9878    0.2628   12.8450  C     
7    O        36.7429    1.5175   12.1554  O     
8    C        36.8796   -0.8969   11.8031  C     
9    O        38.2112   -1.3711   11.5333  O     
10   N        36.0460   -2.0346   12.1866  N     
11   C        34.9827   -2.4282   11.4523  C     
12   O        34.5474   -1.8078   10.4924  O     
13   N        34.3546   -3.5659   11.7414  N     
14   C        34.7340   -4.3382   12.7548  C     
15   O        34.1702   -5.4090   12.9287  O     
16   C        35.7475   -3.9436   13.5678  C     
17   C        36.3929   -2.7996   13.2704  C     
18   P        36.5826    2.8426   12.9593  P     
19   O        35.1584    3.0351   13.4984  O     
20   O        37.6161    3.0662   14.0744  O     
21   O        36.8513    3.9210   12.0384  O     
22   H        40.0698   -2.3543   13.6056  H     
23   H        41.3014   -0.2570   12.1431  H     
24   H        40.7009   -1.8135   11.5383  H     
25   H        39.2344    0.4103   11.3138  H     
26   H        38.4921   -0.6361   14.1149  H     
27   H        38.5942    1.5253   14.6302  H     
28   H        36.2807    0.1143   13.6689  H     
29   H        36.5463   -0.4725   10.8520  H     
30   H        33.6233   -3.8580   11.1746  H     
31   H        36.0208   -4.4931   14.3532  H     
32   H        37.1529   -2.5367   13.8516  H     
@<TRIPOS>BOND
     1    1    2 1
     2    3    2 1
     3    3    4 1
     4    3    9 1
     5    4    5 1
     6    4    6 1
     7    6    7 1
     8    6    8 1
     9    7   18 1
    10    8    9 1
    11    8   10 1
    12   10   11 1
    13   10   17 1
    14   11   12 2
    15   11   13 1
    16   13   14 1
    17   14   15 2
    18   14   16 1
    19   16   17 2
    20   18   19 1
    21   18   20 1
    22   18   21 2
    23    1   22 1
    24    2   23 1
    25    2   24 1
    26    3   25 1
    27    4   26 1
    28    5   27 1
    29    6   28 1
    30    8   29 1
    31   13   30 1
    32   16   31 1
    33   17   32 1
@<TRIPOS>PROPERTY_DATA
  Total_Score	| 5.4284
  Crash		| -0.7760
  Polar		| 6.0895
  FragIndex	| 1
  FragRMSD	| 0.774

