@<TRIPOS>MOLECULE
BindingDB_50292724
 32 33 0 0 0
SMALL
NO_CHARGES


@<TRIPOS>ATOM
1    C        35.7344   -4.3314   13.3936  C     
2    C        36.5337   -3.2858   13.1170  C     
3    N        36.2109   -2.3670   12.1512  N     
4    C        35.0934   -2.5841   11.4197  C     
5    N        34.3210   -3.6364   11.6765  N     
6    C        34.6122   -4.4992   12.6463  C     
7    O        33.8645   -5.4459   12.8383  O     
8    O        34.7132   -1.8504   10.5145  O     
9    C        37.0569   -1.1901   11.9587  C     
10   O        38.4476   -1.5117   11.8577  O     
11   C        39.1927   -0.2811   12.0309  C     
12   C        38.2770    0.6932   12.8477  C     
13   C        37.0174   -0.1554   13.1018  C     
14   O        37.1353   -0.7928   14.3776  O     
15   O        37.9368    1.8631   12.0505  O     
16   C        40.6134   -0.5977   12.5871  C     
17   O        40.6734   -1.2358   13.8601  O     
18   P        38.7357    3.1719   12.3339  P     
19   O        37.9203    4.3466   11.7619  O     
20   O        38.8953    3.4271   13.8454  O     
21   O        40.0282    3.2074   11.7086  O     
22   H        35.9635   -4.9652   14.1244  H     
23   H        37.3713   -3.1891   13.6494  H     
24   H        33.5252   -3.7768   11.1417  H     
25   H        36.7966   -0.6695   11.0263  H     
26   H        39.3236    0.1445   11.0303  H     
27   H        38.6818    0.9925   13.8217  H     
28   H        36.0919    0.4286   13.0644  H     
29   H        36.2299   -0.8803   14.7162  H     
30   H        41.1551   -1.2406   11.9004  H     
31   H        41.1836    0.3306   12.6710  H     
32   H        40.2382   -0.6210   14.4956  H     
@<TRIPOS>BOND
     1    1    2 2
     2    1    6 1
     3    2    3 1
     4    3    4 1
     5    9    3 1
     6    4    5 1
     7    4    8 2
     8    5    6 1
     9    6    7 2
    10    9   10 1
    11    9   13 1
    12   10   11 1
    13   11   12 1
    14   11   16 1
    15   12   13 1
    16   12   15 1
    17   13   14 1
    18   15   18 1
    19   16   17 1
    20   18   19 1
    21   18   20 1
    22   18   21 2
    23    1   22 1
    24    2   23 1
    25    5   24 1
    26    9   25 1
    27   11   26 1
    28   12   27 1
    29   13   28 1
    30   14   29 1
    31   16   30 1
    32   16   31 1
    33   17   32 1
@<TRIPOS>PROPERTY_DATA
  Total_Score	| 5.5121
  Crash		| -0.5903
  Polar		| 5.9799
  FragIndex	| 1
  FragRMSD	| 0.950

