@<TRIPOS>MOLECULE
BindingDB_50331792
 29 30 0 0 0
SMALL
NO_CHARGES


@<TRIPOS>ATOM
1    O        37.5124    1.9718   12.1638  O     
2    C        37.8494    0.8207   12.9413  C     
3    C        36.6214   -0.0833   13.1187  C     
4    C        38.8612   -0.0838   12.1839  C     
5    C        36.7807   -1.0983   11.9706  C     
6    O        38.1950   -1.3208   11.8752  O     
7    C        40.1012   -0.3353   12.9469  C     
8    O        40.9835    0.6708   13.1473  O     
9    N        36.0431   -2.3357   12.1851  N     
10   C        34.9440   -2.6499   11.4694  C     
11   N        34.2985   -3.7879   11.7023  N     
12   C        34.7019   -4.6479   12.6321  C     
13   C        35.8231   -4.3879   13.3861  C     
14   C        36.4643   -3.2220   13.1407  C     
15   O        34.4734   -1.9364   10.5935  O     
16   O        34.0377   -5.6656   12.7636  O     
17   C        36.3485   -5.3103   14.3911  C     
18   O        40.4428   -1.5816   13.3545  O     
19   H        36.9555    2.5272   12.7537  H     
20   H        38.2174    1.1589   13.9158  H     
21   H        36.6697   -0.5802   14.0915  H     
22   H        35.6782    0.4659   13.0451  H     
23   H        39.1458    0.3799   11.2358  H     
24   H        36.4764   -0.6045   11.0376  H     
25   H        33.5143   -3.9983   11.1724  H     
26   H        37.2827   -3.0118   13.6693  H     
27   H        36.4179   -4.8098   15.3579  H     
28   H        37.3461   -5.6418   14.0985  H     
29   H        35.7271   -6.1968   14.5217  H     
@<TRIPOS>BOND
     1    2    1 1
     2    2    3 1
     3    2    4 1
     4    3    5 1
     5    4    6 1
     6    4    7 1
     7    5    6 1
     8    5    9 1
     9    7    8 1
    10    7   18 2
    11    9   10 1
    12    9   14 1
    13   10   11 1
    14   10   15 2
    15   11   12 1
    16   12   13 1
    17   12   16 2
    18   13   14 2
    19   13   17 1
    20    1   19 1
    21    2   20 1
    22    3   21 1
    23    3   22 1
    24    4   23 1
    25    5   24 1
    26   11   25 1
    27   14   26 1
    28   17   27 1
    29   17   28 1
    30   17   29 1
@<TRIPOS>PROPERTY_DATA
  Total_Score	| 4.2058
  Crash		| -0.3940
  Polar		| 3.4304
  FragIndex	| 1
  FragRMSD	| 0.285

