@<TRIPOS>MOLECULE
BindingDB_50292715
 53 55 0 0 0
SMALL
NO_CHARGES


@<TRIPOS>ATOM
1    C        35.7653   -4.0866   13.5025  C     
2    C        36.4259   -2.9371   13.2639  C     
3    N        36.0582   -2.0918   12.2497  N     
4    C        35.0028   -2.4478   11.4786  C     
5    N        34.3473   -3.5851   11.7181  N     
6    C        34.7007   -4.3995   12.7095  C     
7    O        34.0644   -5.4280   12.8822  O     
8    O        34.5981   -1.7936   10.5284  O     
9    C        36.8609   -0.9083   11.9703  C     
10   O        38.1866   -1.3086   11.6008  O     
11   C        39.1152   -0.2757   11.9501  C     
12   C        38.3388    0.8042   12.7581  C     
13   C        37.0314    0.0862   13.1399  C     
14   O        35.9358    0.9933   13.2768  O     
15   O        38.0843    1.9596   11.9476  O     
16   C        40.3290   -0.8733   12.7242  C     
17   N        41.1468   -1.8479   11.9323  N     
18   C        42.6118   -1.8123   12.2677  C     
19   C        43.4577   -2.7221   11.3313  C     
20   C        42.8995   -4.1754   11.2752  C     
21   C        41.3725   -4.1418   10.9604  C     
22   C        40.6215   -3.2519   11.9761  C     
23   C        43.6658   -5.0308   10.3334  C     
24   O        43.0353   -5.7816    9.3956  O     
25   O        45.0162   -5.1115   10.4892  O     
26   C        43.6335   -6.7086    8.4776  C     
27   C        42.6260   -7.0376    7.3603  C     
28   H        36.0565   -4.7002   14.2318  H     
29   H        37.2185   -2.7321   13.8261  H     
30   H        33.6072   -3.8340   11.1459  H     
31   H        36.4633   -0.3446   11.1180  H     
32   H        39.5038    0.1569   11.0230  H     
33   H        38.8849    1.1293   13.6502  H     
34   H        37.1727   -0.4329   14.0928  H     
35   H        35.2232    0.4698   13.6902  H     
36   H        38.2413    2.7299   12.5389  H     
37   H        40.9453   -0.0169   13.0069  H     
38   H        39.9847   -1.3218   13.6586  H     
39   H        41.0893   -1.5361   10.9610  H     
40   H        42.9942   -0.7917   12.1585  H     
41   H        42.7720   -2.1136   13.3044  H     
42   H        43.4643   -2.2928   10.3252  H     
43   H        44.4942   -2.7449   11.6915  H     
44   H        43.0150   -4.6221   12.2676  H     
45   H        41.2054   -3.7448    9.9556  H     
46   H        40.9649   -5.1578   11.0012  H     
47   H        40.7295   -3.6682   12.9804  H     
48   H        39.5642   -3.2836   11.7149  H     
49   H        44.5402   -6.2805    8.0405  H     
50   H        43.8972   -7.6262    9.0103  H     
51   H        41.7291   -7.4976    7.7831  H     
52   H        43.0710   -7.7317    6.6446  H     
53   H        42.3387   -6.1244    6.8343  H     
@<TRIPOS>BOND
     1    1    2 2
     2    1    6 1
     3    2    3 1
     4    3    4 1
     5    9    3 1
     6    4    5 1
     7    4    8 2
     8    5    6 1
     9    6    7 2
    10    9   10 1
    11    9   13 1
    12   10   11 1
    13   11   12 1
    14   11   16 1
    15   12   13 1
    16   12   15 1
    17   13   14 1
    18   16   17 1
    19   17   18 1
    20   17   22 1
    21   18   19 1
    22   19   20 1
    23   20   21 1
    24   20   23 1
    25   21   22 1
    26   23   24 1
    27   23   25 2
    28   24   26 1
    29   26   27 1
    30    1   28 1
    31    2   29 1
    32    5   30 1
    33    9   31 1
    34   11   32 1
    35   12   33 1
    36   13   34 1
    37   14   35 1
    38   15   36 1
    39   16   37 1
    40   16   38 1
    41   17   39 1
    42   18   40 1
    43   18   41 1
    44   19   42 1
    45   19   43 1
    46   20   44 1
    47   21   45 1
    48   21   46 1
    49   22   47 1
    50   22   48 1
    51   26   49 1
    52   26   50 1
    53   27   51 1
    54   27   52 1
    55   27   53 1
@<TRIPOS>PROPERTY_DATA
  Total_Score	| 6.9238
  Crash		| -0.7207
  Polar		| 4.3302
  FragIndex	| 1
  FragRMSD	| 0.243

