@<TRIPOS>MOLECULE
BindingDB_50292721
 74 78 0 0 0
SMALL
NO_CHARGES


@<TRIPOS>ATOM
1    C        36.2138   -5.4323   14.3085  C     
2    C        35.7574   -4.4763   13.3005  C     
3    C        36.4973   -3.3759   13.0297  C     
4    N        36.1298   -2.4571   12.0800  N     
5    C        34.9750   -2.6564   11.4138  C     
6    O        34.5340   -1.8823   10.5748  O     
7    N        34.2373   -3.7326   11.6676  N     
8    C        34.5964   -4.6319   12.5784  C     
9    O        33.8511   -5.5908   12.7268  O     
10   C        36.9638   -1.2906   11.8413  C     
11   C        36.7899   -0.2075   12.9191  C     
12   C        38.1274    0.5507   12.8896  C     
13   C        39.0820   -0.4111   12.1179  C     
14   O        38.3586   -1.6222   11.8679  O     
15   C        40.3883   -0.7444   12.8898  C     
16   O        41.1854   -1.7939   12.3068  O     
17   P        42.0646   -1.4738   11.0593  P     
18   O        42.4420   -0.0864   10.9487  O     
19   O        43.3752   -2.2642   11.2307  O     
20   O        41.4715   -1.9767    9.7263  O     
21   O        37.9298    1.8195   12.2280  O     
22   P        38.9455    2.9592   12.5248  P     
23   O        40.1215    2.7056   11.7132  O     
24   O        38.2210    4.2611   12.0587  O     
25   P        39.0431    5.5703   12.2140  P     
26   O        38.1181    6.6726   12.1212  O     
27   O        39.6821    5.6907   13.6148  O     
28   O        40.1664    5.6932   11.1429  O     
29   C        39.7571    5.7801    9.7659  C     
30   C        40.9592    5.3878    8.8824  C     
31   C        42.1719    6.3263    9.0282  C     
32   C        42.9547    5.9900    7.7479  C     
33   C        41.8310    5.6088    6.7474  C     
34   O        40.6103    5.4440    7.4925  O     
35   N        41.6133    6.5951    5.7213  N     
36   C        41.8731    6.4396    4.4029  C     
37   N        41.5704    7.5482    3.7099  N     
38   C        41.1030    8.4305    4.6055  C     
39   C        41.1217    7.8430    5.8641  C     
40   N        40.6793    8.5275    6.9498  N     
41   C        40.2267    9.8031    6.8262  C     
42   N        40.2097   10.3958    5.6063  N     
43   C        40.6303    9.7505    4.4843  C     
44   N        40.5742   10.3791    3.2977  N     
45   O        43.8542    4.9008    7.9617  O     
46   O        42.9004    6.0620   10.2509  O     
47   P        42.8737    7.1786   11.3466  P     
48   O        41.6142    7.8855   11.3431  O     
49   O        43.0472    6.5115   12.7282  O     
50   O        44.0307    8.1760   11.1509  O     
51   O        39.3534    3.0131   14.0191  O     
52   H        35.5164   -6.2583   14.4597  H     
53   H        36.3445   -4.9304   15.2701  H     
54   H        37.1733   -5.8562   14.0039  H     
55   H        37.3453   -3.2366   13.5380  H     
56   H        33.4192   -3.8722   11.1688  H     
57   H        36.7586   -0.8413   10.8617  H     
58   H        35.9282    0.4275   12.7012  H     
59   H        36.6392   -0.6715   13.9012  H     
60   H        38.4301    0.6832   13.9334  H     
61   H        39.3421    0.0180   11.1456  H     
62   H        40.9743    0.1628   13.0510  H     
63   H        40.1067   -1.1174   13.8771  H     
64   H        38.9323    5.0953    9.5310  H     
65   H        39.4440    6.8004    9.5339  H     
66   H        41.2452    4.3555    9.1236  H     
67   H        41.8153    7.3610    8.9403  H     
68   H        43.5403    6.8511    7.4060  H     
69   H        42.0660    4.6432    6.2929  H     
70   H        42.2625    5.5935    3.9739  H     
71   H        39.9000   10.3101    7.6465  H     
72   H        40.2408   11.2900    3.2467  H     
73   H        40.8276    9.9145    2.4836  H     
74   H        44.5463    5.2469    8.5663  H     
@<TRIPOS>BOND
     1    1    2 1
     2    2    3 2
     3    2    8 1
     4    3    4 1
     5    4    5 1
     6   10    4 1
     7    5    6 2
     8    5    7 1
     9    7    8 1
    10    8    9 2
    11   10   11 1
    12   10   14 1
    13   11   12 1
    14   12   13 1
    15   12   21 1
    16   13   14 1
    17   13   15 1
    18   15   16 1
    19   16   17 1
    20   17   18 2
    21   17   19 1
    22   17   20 1
    23   21   22 1
    24   22   23 2
    25   22   24 1
    26   22   51 1
    27   24   25 1
    28   25   26 2
    29   25   27 1
    30   25   28 1
    31   28   29 1
    32   30   29 1
    33   30   31 1
    34   30   34 1
    35   31   32 1
    36   31   46 1
    37   32   33 1
    38   32   45 1
    39   33   34 1
    40   33   35 1
    41   35   36 1
    42   35   39 1
    43   36   37 2
    44   37   38 1
    45   38   39 2
    46   38   43 1
    47   39   40 1
    48   40   41 2
    49   41   42 1
    50   42   43 2
    51   43   44 1
    52   46   47 1
    53   47   48 2
    54   47   49 1
    55   47   50 1
    56    1   52 1
    57    1   53 1
    58    1   54 1
    59    3   55 1
    60    7   56 1
    61   10   57 1
    62   11   58 1
    63   11   59 1
    64   12   60 1
    65   13   61 1
    66   15   62 1
    67   15   63 1
    68   29   64 1
    69   29   65 1
    70   30   66 1
    71   31   67 1
    72   32   68 1
    73   33   69 1
    74   36   70 1
    75   41   71 1
    76   44   72 1
    77   44   73 1
    78   45   74 1
@<TRIPOS>PROPERTY_DATA
  Total_Score	| 10.3487
  Crash		| -2.4992
  Polar		| 9.2255
  FragIndex	| 1
  FragRMSD	| 0.934

