@<TRIPOS>MOLECULE
BindingDB_50117257
 43 43 0 0 0
SMALL
NO_CHARGES


@<TRIPOS>ATOM
1    C        14.6454   80.2907   24.0775  C     
2    C        15.6223   79.0935   24.3428  C     
3    C        15.2577   78.0092   25.4408  C     
4    O        13.8485   78.0184   25.6775  O     
5    P        15.6008   76.4289   24.9635  P     
6    P        16.0292   78.3015   26.9078  P     
7    O        15.7896   79.6267   27.4186  O     
8    O        17.0047   76.1094   24.9614  O     
9    O        14.9076   75.3600   25.8336  O     
10   O        15.1356   76.1593   23.5189  O     
11   O        15.5683   77.3702   28.0471  O     
12   O        17.5688   78.2490   26.7907  O     
13   N        14.2994   81.3100   25.1254  N     
14   C        15.4602   82.0517   25.7462  C     
15   C        13.2711   80.8513   26.1120  C     
16   C        15.9327   83.3043   24.9430  C     
17   C        17.1091   83.0767   23.9514  C     
18   C        17.7324   84.2909   23.3397  C     
19   C        17.1421   85.5806   23.3968  C     
20   C        17.7904   86.7087   22.8578  C     
21   C        19.0339   86.5638   22.2207  C     
22   C        19.6157   85.2908   22.1131  C     
23   C        18.9735   84.1685   22.6683  C     
24   H        15.0773   80.8655   23.2532  H     
25   H        13.7229   79.8699   23.6621  H     
26   H        15.7149   78.6027   23.3660  H     
27   H        16.6138   79.5145   24.5250  H     
28   H        13.6674   77.3144   26.3400  H     
29   H        13.7898   82.0308   24.6041  H     
30   H        15.1623   82.4244   26.7326  H     
31   H        16.3061   81.3867   25.9270  H     
32   H        12.4444   80.3417   25.6095  H     
33   H        12.8549   81.7183   26.6310  H     
34   H        13.6912   80.1867   26.8618  H     
35   H        15.0775   83.7314   24.4094  H     
36   H        16.2659   84.0578   25.6686  H     
37   H        17.8932   82.5435   24.4952  H     
38   H        16.7769   82.4346   23.1357  H     
39   H        16.2275   85.7175   23.8223  H     
40   H        17.3479   87.6269   22.9179  H     
41   H        19.5027   87.3811   21.8277  H     
42   H        20.5103   85.1856   21.6259  H     
43   H        19.4318   83.2537   22.5869  H     
@<TRIPOS>BOND
     1    1    2 1
     2    1   13 1
     3    2    3 1
     4    3    4 1
     5    3    5 1
     6    3    6 1
     7    5    8 2
     8    5    9 1
     9    5   10 1
    10    6    7 2
    11    6   11 1
    12    6   12 1
    13   13   14 1
    14   13   15 1
    15   14   16 1
    16   16   17 1
    17   17   18 1
    18   18   19 2
    19   18   23 1
    20   19   20 1
    21   20   21 2
    22   21   22 1
    23   22   23 2
    24    1   24 1
    25    1   25 1
    26    2   26 1
    27    2   27 1
    28    4   28 1
    29   13   29 1
    30   14   30 1
    31   14   31 1
    32   15   32 1
    33   15   33 1
    34   15   34 1
    35   16   35 1
    36   16   36 1
    37   17   37 1
    38   17   38 1
    39   19   39 1
    40   20   40 1
    41   21   41 1
    42   22   42 1
    43   23   43 1
@<TRIPOS>PROPERTY_DATA
  Total_Score	| 10.3003
  Crash		| -1.8123
  Polar		| 7.5452
  FragIndex	| 1
  FragRMSD	| 0.774

