@<TRIPOS>MOLECULE
BindingDB_25298
 30 29 0 0 0
SMALL
NO_CHARGES


@<TRIPOS>ATOM
1    O        13.7398   77.5728   26.0776  O     
2    C        15.0461   77.8187   25.5363  C     
3    P        15.9563   78.3404   26.8504  P     
4    O        15.6260   77.5110   28.1021  O     
5    O        17.4850   78.3305   26.6360  O     
6    O        15.6079   79.6997   27.1966  O     
7    O        17.0133   76.1815   24.9801  O     
8    P        15.5780   76.3364   24.9540  P     
9    O        15.0119   75.1826   25.8072  O     
10   O        15.1434   76.0757   23.4983  O     
11   C        14.8152   78.9359   24.4454  C     
12   C        16.0250   79.7325   23.8485  C     
13   C        15.7367   81.2424   23.5614  C     
14   C        16.3351   82.2023   24.6302  C     
15   C        15.9730   83.7063   24.4834  C     
16   C        16.9475   84.5413   23.6183  C     
17   H        13.1453   77.4761   25.3055  H     
18   H        14.2894   78.4845   23.5924  H     
19   H        14.1085   79.6626   24.8664  H     
20   H        16.8826   79.6618   24.5177  H     
21   H        16.3260   79.2506   22.9144  H     
22   H        16.1551   81.5046   22.5838  H     
23   H        14.6552   81.3975   23.4895  H     
24   H        15.9769   81.8726   25.6124  H     
25   H        17.4252   82.0960   24.6303  H     
26   H        14.9654   83.8037   24.0755  H     
27   H        15.9629   84.1523   25.4817  H     
28   H        17.9322   84.5928   24.0871  H     
29   H        16.5653   85.5584   23.5161  H     
30   H        17.0513   84.1124   22.6203  H     
@<TRIPOS>BOND
     1    1    2 1
     2    2    3 1
     3    2    8 1
     4    2   11 1
     5    3    4 1
     6    3    5 1
     7    3    6 2
     8    7    8 2
     9    8    9 1
    10    8   10 1
    11   11   12 1
    12   12   13 1
    13   13   14 1
    14   14   15 1
    15   15   16 1
    16    1   17 1
    17   11   18 1
    18   11   19 1
    19   12   20 1
    20   12   21 1
    21   13   22 1
    22   13   23 1
    23   14   24 1
    24   14   25 1
    25   15   26 1
    26   15   27 1
    27   16   28 1
    28   16   29 1
    29   16   30 1
@<TRIPOS>PROPERTY_DATA
  Total_Score	| 8.9783
  Crash		| -0.9437
  Polar		| 7.4371
  FragIndex	| 1
  FragRMSD	| 1.121

