@<TRIPOS>MOLECULE
BindingDB_50135831
 41 41 0 0 0
SMALL
NO_CHARGES


@<TRIPOS>ATOM
1    C        15.1757   77.8574   25.4447  C     
2    P        15.5003   76.2708   24.9854  P     
3    P        16.0621   78.2582   26.8206  P     
4    C        15.3337   78.8057   24.1897  C     
5    O        14.8513   75.2697   25.7923  O     
6    O        17.4956   78.1790   26.6624  O     
7    O        13.7993   77.8953   25.8309  O     
8    O        15.1216   76.0218   23.5137  O     
9    O        15.7146   79.6751   27.3178  O     
10   O        17.0099   75.9756   25.0299  O     
11   O        15.6575   77.3911   28.0358  O     
12   N        14.9126   81.0905   25.2276  N     
13   C        18.1323   85.6503   23.6201  C     
14   C        15.7792   83.5207   25.3845  C     
15   C        15.7950   80.2778   24.3533  C     
16   O        17.6411   84.9568   24.6907  O     
17   C        15.5729   82.1341   26.0527  C     
18   C        17.0104   83.6810   24.4433  C     
19   C        19.2399   85.1925   22.8776  C     
20   C        17.5414   86.8870   23.2899  C     
21   C        18.0088   87.6278   22.1842  C     
22   C        19.7140   85.9359   21.7800  C     
23   C        19.0805   87.1385   21.4147  C     
24   H        16.0349   78.3718   23.4722  H     
25   H        14.3663   78.8414   23.6764  H     
26   H        13.6671   77.1634   26.4703  H     
27   H        14.1902   81.5336   24.6506  H     
28   H        14.4370   80.4519   25.8685  H     
29   H        14.8672   83.8077   24.8483  H     
30   H        15.8961   84.2242   26.2163  H     
31   H        16.8298   80.2762   24.7041  H     
32   H        15.8011   80.7505   23.3666  H     
33   H        14.9214   82.2766   26.9182  H     
34   H        16.5316   81.7819   26.4380  H     
35   H        17.7515   82.9116   24.6546  H     
36   H        16.6839   83.5554   23.4058  H     
37   H        19.7045   84.3192   23.1367  H     
38   H        16.7663   87.2538   23.8500  H     
39   H        17.5741   88.5224   21.9449  H     
40   H        20.5228   85.6038   21.2498  H     
41   H        19.4201   87.6753   20.6153  H     
@<TRIPOS>BOND
     1    1    2 1
     2    1    3 1
     3    1    4 1
     4    1    7 1
     5    2    5 2
     6    2    8 1
     7    2   10 1
     8    3    6 2
     9    3    9 1
    10    3   11 1
    11    4   15 1
    12   12   15 1
    13   12   17 1
    14   13   16 1
    15   13   19 2
    16   13   20 1
    17   14   17 1
    18   14   18 1
    19   16   18 1
    20   19   22 1
    21   20   21 2
    22   21   23 1
    23   22   23 2
    24    4   24 1
    25    4   25 1
    26    7   26 1
    27   12   27 1
    28   12   28 1
    29   14   29 1
    30   14   30 1
    31   15   31 1
    32   15   32 1
    33   17   33 1
    34   17   34 1
    35   18   35 1
    36   18   36 1
    37   19   37 1
    38   20   38 1
    39   21   39 1
    40   22   40 1
    41   23   41 1
@<TRIPOS>PROPERTY_DATA
  Total_Score	| 10.3866
  Crash		| -1.4676
  Polar		| 7.5895
  FragIndex	| 1
  FragRMSD	| 0.967

