@<TRIPOS>MOLECULE
BindingDB_50098383
 30 29 0 0 0
SMALL
NO_CHARGES


@<TRIPOS>ATOM
1    C        15.7014   81.0569   23.2249  C     
2    C        15.9680   79.6230   23.7627  C     
3    C        14.7467   78.9085   24.4060  C     
4    C        14.9994   77.8447   25.5245  C     
5    O        13.6898   77.5777   26.0404  O     
6    P        15.5803   76.3766   24.9369  P     
7    P        15.9305   78.3740   26.8160  P     
8    O        15.6817   79.7836   27.0787  O     
9    O        17.0205   76.2479   24.9698  O     
10   O        15.0252   75.1846   25.7442  O     
11   O        15.1965   76.1436   23.4674  O     
12   O        15.5799   77.6498   28.1339  O     
13   O        17.4542   78.3353   26.6177  O     
14   C        16.1996   82.2236   24.1307  C     
15   C        15.1200   82.9220   24.9945  C     
16   N        15.6971   83.4991   26.2122  N     
17   H        16.2044   81.1445   22.2628  H     
18   H        14.6278   81.1849   23.0152  H     
19   H        16.3257   78.9970   22.9452  H     
20   H        16.7799   79.6702   24.4932  H     
21   H        14.0859   79.6624   24.8380  H     
22   H        14.1684   78.4674   23.5954  H     
23   H        13.7294   76.7519   26.5596  H     
24   H        17.0106   81.8650   24.7770  H     
25   H        16.6486   82.9959   23.4933  H     
26   H        14.6359   83.7179   24.4145  H     
27   H        14.3415   82.2296   25.3125  H     
28   H        16.1299   82.7493   26.7628  H     
29   H        14.9577   83.9386   26.7663  H     
30   H        16.4089   84.1997   25.9671  H     
@<TRIPOS>BOND
     1    1    2 1
     2    1   14 1
     3    2    3 1
     4    3    4 1
     5    4    5 1
     6    4    6 1
     7    4    7 1
     8    6    9 2
     9    6   10 1
    10    6   11 1
    11    7    8 2
    12    7   12 1
    13    7   13 1
    14   14   15 1
    15   15   16 1
    16    1   17 1
    17    1   18 1
    18    2   19 1
    19    2   20 1
    20    3   21 1
    21    3   22 1
    22    5   23 1
    23   14   24 1
    24   14   25 1
    25   15   26 1
    26   15   27 1
    27   16   28 1
    28   16   29 1
    29   16   30 1
@<TRIPOS>PROPERTY_DATA
  Total_Score	| 9.8390
  Crash		| -1.1716
  Polar		| 8.6236
  FragIndex	| 1
  FragRMSD	| 1.127

