@<TRIPOS>MOLECULE
BindingDB_50097889
 27 26 0 0 0
SMALL
NO_CHARGES


@<TRIPOS>ATOM
1    C        14.9908   77.9011   25.5426  C     
2    P        15.9680   78.3734   26.8173  P     
3    P        15.5391   76.4319   24.9077  P     
4    O        15.6810   79.7177   27.2507  O     
5    O        15.1741   76.2095   23.5417  O     
6    O        13.6941   77.6469   26.0717  O     
7    O        15.6873   77.5133   28.0977  O     
8    O        17.4892   78.3983   26.5654  O     
9    O        17.0687   76.2970   24.8956  O     
10   O        15.0010   75.2365   25.7269  O     
11   C        14.7302   79.0242   24.4675  C     
12   C        15.9454   79.8037   23.8690  C     
13   C        15.4723   82.3375   24.4017  C     
14   C        15.5717   81.2085   23.3276  C     
15   C        14.0635   82.9413   24.5972  C     
16   H        13.7404   76.8577   26.6334  H     
17   H        14.1893   78.6079   23.6305  H     
18   H        14.0419   79.7478   24.9250  H     
19   H        16.7374   79.9223   24.6289  H     
20   H        16.3527   79.1980   23.0587  H     
21   H        15.8200   81.9809   25.3763  H     
22   H        16.1375   83.1560   24.1152  H     
23   H        16.3246   81.4940   22.5903  H     
24   H        14.6169   81.1360   22.7630  H     
25   H        13.7036   83.3719   23.6602  H     
26   H        14.1007   83.7419   25.3496  H     
27   H        13.3577   82.1868   24.9398  H     
@<TRIPOS>BOND
     1    1    2 1
     2    1    3 1
     3    1    6 1
     4    1   11 1
     5    2    4 2
     6    2    7 1
     7    2    8 1
     8    3    5 2
     9    3    9 1
    10    3   10 1
    11   11   12 1
    12   12   14 1
    13   13   14 1
    14   13   15 1
    15    6   16 1
    16   11   17 1
    17   11   18 1
    18   12   19 1
    19   12   20 1
    20   13   21 1
    21   13   22 1
    22   14   23 1
    23   14   24 1
    24   15   25 1
    25   15   26 1
    26   15   27 1
@<TRIPOS>PROPERTY_DATA
  Total_Score	| 8.1628
  Crash		| -1.1103
  Polar		| 7.3217
  FragIndex	| 1
  FragRMSD	| 1.465

