@<TRIPOS>MOLECULE
BindingDB_25285
 45 44 0 0 0
SMALL
NO_CHARGES


@<TRIPOS>ATOM
1    O        16.3083   78.7147   24.4583  O     
2    C        15.4548   78.0259   25.3694  C     
3    P        15.6128   76.4079   24.9369  P     
4    O        17.0668   75.9207   24.9210  O     
5    O        14.8077   75.4611   25.8421  O     
6    O        15.1518   76.1960   23.5890  O     
7    O        17.5801   78.2033   26.8426  O     
8    P        16.1421   78.2732   26.8870  P     
9    O        15.8625   79.6854   27.4322  O     
10   O        15.6138   77.3125   27.9686  O     
11   C        13.9543   78.5174   25.2249  C     
12   C        13.7080   79.7618   24.3040  C     
13   C        14.0208   81.1209   24.9925  C     
14   C        14.6776   82.1802   24.0616  C     
15   C        14.9988   83.5160   24.7907  C     
16   C        16.4414   83.6892   25.3623  C     
17   C        17.6521   83.8048   24.3801  C     
18   C        17.4108   84.3968   22.9516  C     
19   C        18.4482   85.4463   22.4351  C     
20   C        18.0925   86.9434   22.7137  C     
21   C        18.3028   87.8670   21.4853  C     
22   H        16.2644   79.6687   24.7003  H     
23   H        13.3144   77.7284   24.8141  H     
24   H        13.5111   78.7285   26.2021  H     
25   H        14.2781   79.6565   23.3816  H     
26   H        12.6544   79.7691   23.9982  H     
27   H        13.0837   81.5309   25.3892  H     
28   H        14.6927   80.9843   25.8265  H     
29   H        15.5890   81.7673   23.6224  H     
30   H        13.9885   82.3906   23.2384  H     
31   H        14.7720   84.3351   24.1172  H     
32   H        14.3029   83.6488   25.6224  H     
33   H        16.4388   84.5886   25.9894  H     
34   H        16.6397   82.8516   26.0354  H     
35   H        18.4129   84.3945   24.8903  H     
36   H        18.0837   82.8032   24.2669  H     
37   H        17.4103   83.5542   22.2501  H     
38   H        16.4332   84.8453   22.8643  H     
39   H        19.4360   85.2210   22.8492  H     
40   H        18.5461   85.2882   21.3574  H     
41   H        17.0534   87.0559   23.0354  H     
42   H        18.7161   87.3078   23.5342  H     
43   H        19.3574   87.8780   21.1997  H     
44   H        17.9913   88.8816   21.7227  H     
45   H        17.7108   87.5207   20.6349  H     
@<TRIPOS>BOND
     1    1    2 1
     2    2    3 1
     3    2    8 1
     4    2   11 1
     5    3    4 1
     6    3    5 1
     7    3    6 2
     8    7    8 2
     9    8    9 1
    10    8   10 1
    11   11   12 1
    12   12   13 1
    13   13   14 1
    14   14   15 1
    15   15   16 1
    16   16   17 1
    17   17   18 1
    18   18   19 1
    19   19   20 1
    20   20   21 1
    21    1   22 1
    22   11   23 1
    23   11   24 1
    24   12   25 1
    25   12   26 1
    26   13   27 1
    27   13   28 1
    28   14   29 1
    29   14   30 1
    30   15   31 1
    31   15   32 1
    32   16   33 1
    33   16   34 1
    34   17   35 1
    35   17   36 1
    36   18   37 1
    37   18   38 1
    38   19   39 1
    39   19   40 1
    40   20   41 1
    41   20   42 1
    42   21   43 1
    43   21   44 1
    44   21   45 1
@<TRIPOS>PROPERTY_DATA
  Total_Score	| 11.1391
  Crash		| -1.8746
  Polar		| 7.5113
  FragIndex	| 1
  FragRMSD	| 1.418

