@<TRIPOS>MOLECULE
BindingDB_12577
 39 38 0 0 0
SMALL
NO_CHARGES


@<TRIPOS>ATOM
1    C        15.5405   79.1927   24.3539  C     
2    P        16.0343   78.3314   26.8860  P     
3    O        15.7973   79.6372   27.4404  O     
4    O        15.5827   77.3794   28.0139  O     
5    O        17.5711   78.2578   26.7129  O     
6    O        13.8106   78.0624   25.7102  O     
7    C        15.2136   78.0753   25.4343  C     
8    O        15.1235   76.3029   23.5334  O     
9    P        15.5528   76.5161   24.8913  P     
10   O        17.0609   76.1818   24.8722  O     
11   O        14.8751   75.4142   25.7371  O     
12   C        14.5179   80.3598   24.1286  C     
13   N        14.1910   81.3697   25.2000  N     
14   C        13.2187   80.8696   26.2210  C     
15   C        15.3491   82.1391   25.7837  C     
16   C        15.8863   83.3013   24.9050  C     
17   C        17.0856   82.9371   23.9867  C     
18   C        17.8563   84.1944   23.4751  C     
19   C        19.1765   83.8425   22.7579  C     
20   H        16.5213   79.6524   24.5357  H     
21   H        15.6377   78.7283   23.3645  H     
22   H        13.6361   77.2891   26.2859  H     
23   H        14.9104   80.9409   23.2872  H     
24   H        13.5894   79.9229   23.7383  H     
25   H        13.6430   82.0718   24.7012  H     
26   H        12.3495   80.4021   25.7536  H     
27   H        12.8400   81.7049   26.8135  H     
28   H        13.6695   80.1620   26.9069  H     
29   H        15.0462   82.5977   26.7348  H     
30   H        16.1783   81.4662   26.0282  H     
31   H        15.0653   83.7087   24.2999  H     
32   H        16.2157   84.0904   25.5921  H     
33   H        17.7892   82.2914   24.5300  H     
34   H        16.7160   82.3839   23.1166  H     
35   H        17.2121   84.7495   22.7796  H     
36   H        18.0880   84.8445   24.3182  H     
37   H        19.8469   83.3119   23.4415  H     
38   H        19.6661   84.7613   22.4239  H     
39   H        18.9772   83.2078   21.8815  H     
@<TRIPOS>BOND
     1    1    7 1
     2    1   12 1
     3    2    3 2
     4    2    4 1
     5    2    5 1
     6    2    7 1
     7    6    7 1
     8    7    9 1
     9    8    9 2
    10    9   10 1
    11    9   11 1
    12   12   13 1
    13   13   14 1
    14   13   15 1
    15   15   16 1
    16   16   17 1
    17   17   18 1
    18   18   19 1
    19    1   20 1
    20    1   21 1
    21    6   22 1
    22   12   23 1
    23   12   24 1
    24   13   25 1
    25   14   26 1
    26   14   27 1
    27   14   28 1
    28   15   29 1
    29   15   30 1
    30   16   31 1
    31   16   32 1
    32   17   33 1
    33   17   34 1
    34   18   35 1
    35   18   36 1
    36   19   37 1
    37   19   38 1
    38   19   39 1
@<TRIPOS>PROPERTY_DATA
  Total_Score	| 10.3646
  Crash		| -1.2622
  Polar		| 7.4433
  FragIndex	| 1
  FragRMSD	| 1.094

