@<TRIPOS>MOLECULE
BindingDB_25290
 46 46 0 0 0
SMALL
NO_CHARGES


@<TRIPOS>ATOM
1    O        13.8632   78.0359   25.8134  O     
2    C        15.2521   77.9938   25.4559  C     
3    P        15.5744   76.4335   24.9060  P     
4    O        17.0665   76.0457   24.9528  O     
5    O        14.8188   75.3499   25.7030  O     
6    O        15.2031   76.2512   23.5257  O     
7    O        17.5209   78.2122   26.7165  O     
8    P        16.0878   78.2616   26.8840  P     
9    O        15.8071   79.6568   27.4763  O     
10   O        15.6681   77.2856   28.0092  O     
11   C        15.5455   79.1209   24.3782  C     
12   C        15.4619   83.4283   25.4437  C     
13   C        15.3165   81.9548   25.9386  C     
14   C        16.2356   83.6116   24.1016  C     
15   C        17.7580   83.9303   24.2449  C     
16   C        14.5010   80.2713   24.1839  C     
17   N        14.1591   81.2454   25.2762  N     
18   C        13.1025   80.8004   26.2346  C     
19   C        18.2614   84.9692   23.2990  C     
20   C        17.6267   86.2355   23.2336  C     
21   C        18.0848   87.2339   22.3545  C     
22   C        19.2216   87.0076   21.5662  C     
23   C        19.8895   85.7723   21.6428  C     
24   C        19.4056   84.7523   22.4884  C     
25   H        13.3403   77.8752   24.9722  H     
26   H        16.5264   79.5925   24.5489  H     
27   H        15.6339   78.6613   23.3888  H     
28   H        14.4572   83.8465   25.3254  H     
29   H        15.9393   84.0179   26.2267  H     
30   H        16.2691   81.4220   25.7809  H     
31   H        15.1722   82.0039   27.0228  H     
32   H        16.1229   82.7223   23.4758  H     
33   H        15.7395   84.4279   23.5677  H     
34   H        17.9709   84.2981   25.2490  H     
35   H        18.3180   82.9961   24.1336  H     
36   H        14.8786   80.8793   23.3568  H     
37   H        13.5763   79.8246   23.8022  H     
38   H        13.6737   81.9811   24.7651  H     
39   H        13.4640   80.0320   26.9167  H     
40   H        12.2339   80.4124   25.7003  H     
41   H        12.7560   81.6514   26.8257  H     
42   H        16.8153   86.4388   23.8228  H     
43   H        17.5920   88.1297   22.2991  H     
44   H        19.5675   87.7402   20.9439  H     
45   H        20.7317   85.6180   21.0889  H     
46   H        19.9012   83.8594   22.5211  H     
@<TRIPOS>BOND
     1    1    2 1
     2    2    3 1
     3    2    8 1
     4    2   11 1
     5    3    4 1
     6    3    5 1
     7    3    6 2
     8    7    8 2
     9    8    9 1
    10    8   10 1
    11   11   16 1
    12   12   13 1
    13   12   14 1
    14   13   17 1
    15   14   15 1
    16   15   19 1
    17   16   17 1
    18   17   18 1
    19   19   20 1
    20   19   24 2
    21   20   21 2
    22   21   22 1
    23   22   23 2
    24   23   24 1
    25    1   25 1
    26   11   26 1
    27   11   27 1
    28   12   28 1
    29   12   29 1
    30   13   30 1
    31   13   31 1
    32   14   32 1
    33   14   33 1
    34   15   34 1
    35   15   35 1
    36   16   36 1
    37   16   37 1
    38   17   38 1
    39   18   39 1
    40   18   40 1
    41   18   41 1
    42   20   42 1
    43   21   43 1
    44   22   44 1
    45   23   45 1
    46   24   46 1
@<TRIPOS>PROPERTY_DATA
  Total_Score	| 10.4151
  Crash		| -2.0997
  Polar		| 7.3817
  FragIndex	| 1
  FragRMSD	| 0.921

