@<TRIPOS>MOLECULE
BindingDB_25269
 39 38 0 0 0
SMALL
NO_CHARGES


@<TRIPOS>ATOM
1    O        13.8272   77.8154   25.7330  O     
2    C        15.2257   77.8768   25.4310  C     
3    P        16.0068   78.2735   26.8701  P     
4    O        17.5447   78.2397   26.7348  O     
5    O        15.6421   79.7027   27.3287  O     
6    O        15.6289   77.4158   27.9664  O     
7    O        15.2148   76.0477   23.5912  O     
8    P        15.6261   76.3131   24.9520  P     
9    O        17.1298   75.9921   24.9371  O     
10   O        14.9517   75.2452   25.8366  O     
11   C        15.4831   78.9782   24.3222  C     
12   C        14.4546   80.1498   24.2707  C     
13   C        15.0262   81.5494   23.9111  C     
14   C        15.9033   82.2001   25.0229  C     
15   C        15.9826   83.7654   24.9762  C     
16   C        17.2886   84.3844   24.4005  C     
17   C        17.5506   84.0829   22.9015  C     
18   C        19.0417   84.2057   22.4736  C     
19   C        19.4141   85.5633   21.8298  C     
20   H        13.3550   77.8232   24.8675  H     
21   H        16.4971   79.3777   24.4366  H     
22   H        15.4760   78.5162   23.3254  H     
23   H        13.6999   79.8881   23.5246  H     
24   H        13.9298   80.2344   25.2234  H     
25   H        15.5948   81.4712   22.9813  H     
26   H        14.1715   82.1969   23.7249  H     
27   H        15.4740   81.9188   25.9945  H     
28   H        16.9113   81.7704   24.9940  H     
29   H        15.1256   84.1681   24.4287  H     
30   H        15.8937   84.1272   26.0042  H     
31   H        17.2395   85.4678   24.5366  H     
32   H        18.1278   84.0181   24.9908  H     
33   H        17.2259   83.0593   22.6946  H     
34   H        16.9384   84.7553   22.2896  H     
35   H        19.6926   84.0154   23.3353  H     
36   H        19.2428   83.4198   21.7390  H     
37   H        18.8207   85.7218   20.9253  H     
38   H        20.4703   85.5552   21.5539  H     
39   H        19.2366   86.3907   22.5224  H     
@<TRIPOS>BOND
     1    1    2 1
     2    2    3 1
     3    2    8 1
     4    2   11 1
     5    3    4 1
     6    3    5 1
     7    3    6 2
     8    7    8 2
     9    8    9 1
    10    8   10 1
    11   11   12 1
    12   12   13 1
    13   13   14 1
    14   14   15 1
    15   15   16 1
    16   16   17 1
    17   17   18 1
    18   18   19 1
    19    1   20 1
    20   11   21 1
    21   11   22 1
    22   12   23 1
    23   12   24 1
    24   13   25 1
    25   13   26 1
    26   14   27 1
    27   14   28 1
    28   15   29 1
    29   15   30 1
    30   16   31 1
    31   16   32 1
    32   17   33 1
    33   17   34 1
    34   18   35 1
    35   18   36 1
    36   19   37 1
    37   19   38 1
    38   19   39 1
@<TRIPOS>PROPERTY_DATA
  Total_Score	| 10.4686
  Crash		| -1.0637
  Polar		| 7.5965
  FragIndex	| 1
  FragRMSD	| 1.393

