@<TRIPOS>MOLECULE
BindingDB_50098380
 27 26 0 0 0
SMALL
NO_CHARGES


@<TRIPOS>ATOM
1    C        15.2519   77.6844   25.2753  C     
2    P        16.0767   78.1783   26.6483  P     
3    P        15.6258   76.1108   24.8742  P     
4    O        17.5143   78.2389   26.4973  O     
5    O        15.1976   75.7708   23.5388  O     
6    O        13.8432   77.7113   25.5770  O     
7    O        15.5991   79.5546   27.1468  O     
8    O        15.7004   77.2838   27.8459  O     
9    O        17.1324   75.8724   24.8142  O     
10   O        15.0265   75.0560   25.8264  O     
11   C        15.4324   78.6406   24.0125  C     
12   N        14.2457   83.3476   24.9992  N     
13   C        13.9870   81.9223   25.2227  C     
14   C        15.5955   80.1765   24.1797  C     
15   C        14.3224   81.0598   24.0075  C     
16   H        13.6801   76.8808   26.1947  H     
17   H        16.3203   78.2987   23.4600  H     
18   H        14.5751   78.5049   23.3417  H     
19   H        15.2508   83.5068   24.8968  H     
20   H        13.9001   83.8453   25.8216  H     
21   H        13.7491   83.6716   24.1663  H     
22   H        14.5643   81.6047   26.1016  H     
23   H        12.9250   81.7967   25.4724  H     
24   H        16.0786   80.3741   25.1421  H     
25   H        16.3192   80.5250   23.4328  H     
26   H        13.4115   80.3768   23.8554  H     
27   H        14.3885   81.6445   23.1064  H     
@<TRIPOS>BOND
     1    1    2 1
     2    1    3 1
     3    1    6 1
     4    1   11 1
     5    2    4 2
     6    2    7 1
     7    2    8 1
     8    3    5 2
     9    3    9 1
    10    3   10 1
    11   11   14 1
    12   12   13 1
    13   13   15 1
    14   14   15 1
    15    6   16 1
    16   11   17 1
    17   11   18 1
    18   12   19 1
    19   12   20 1
    20   12   21 1
    21   13   22 1
    22   13   23 1
    23   14   24 1
    24   14   25 1
    25   15   26 1
    26   15   27 1
@<TRIPOS>PROPERTY_DATA
  Total_Score	| 8.9251
  Crash		| -1.3877
  Polar		| 8.7071
  FragIndex	| 1
  FragRMSD	| 1.050

