@<TRIPOS>MOLECULE
BindingDB_50135822
 57 56 0 0 0
SMALL
NO_CHARGES


@<TRIPOS>ATOM
1    C        15.4105   77.7942   25.3422  C     
2    P        15.6655   76.1866   24.8967  P     
3    P        16.1567   78.0983   26.8243  P     
4    O        15.1886   75.9544   23.5566  O     
5    O        17.5960   78.1259   26.7550  O     
6    O        16.1684   78.5714   24.4053  O     
7    O        17.1611   75.8249   24.8202  O     
8    O        14.9835   75.1645   25.8305  O     
9    O        15.7908   79.5055   27.3304  O     
10   O        15.6549   77.1720   27.9554  O     
11   C        13.8645   78.1759   25.3518  C     
12   C        13.4718   79.6182   24.8485  C     
13   C        19.7030   88.7372   21.1633  C     
14   C        18.4110   87.8995   21.3700  C     
15   C        14.7670   82.0310   26.3772  C     
16   C        14.5300   82.9827   25.1630  C     
17   C        15.8146   83.7313   24.6914  C     
18   C        16.9563   82.8207   24.1403  C     
19   C        18.2659   83.5998   23.8305  C     
20   C        18.3061   84.2863   22.4328  C     
21   C        19.1773   85.5840   22.3875  C     
22   C        18.3924   86.9219   22.5970  C     
23   C        12.6671   80.4698   25.8809  C     
24   C        13.5101   81.2686   26.9158  C     
25   C        20.9622   88.2562   21.9341  C     
26   H        15.6298   78.6074   23.5884  H     
27   H        13.2869   77.4817   24.7194  H     
28   H        13.4333   78.0181   26.3541  H     
29   H        14.3341   80.2057   24.5340  H     
30   H        12.8479   79.5108   23.9493  H     
31   H        19.9356   88.7346   20.0896  H     
32   H        19.4987   89.7789   21.4456  H     
33   H        17.5854   88.6118   21.4998  H     
34   H        18.1918   87.3414   20.4522  H     
35   H        15.5126   81.2906   26.0831  H     
36   H        15.1868   82.6067   27.2129  H     
37   H        14.1155   82.4175   24.3139  H     
38   H        13.7905   83.7391   25.4629  H     
39   H        15.5143   84.4306   23.9024  H     
40   H        16.2024   84.3204   25.5349  H     
41   H        17.1954   82.0657   24.8988  H     
42   H        16.6046   82.2959   23.2418  H     
43   H        18.4436   84.3365   24.6190  H     
44   H        19.0952   82.8833   23.8598  H     
45   H        18.7185   83.5559   21.7213  H     
46   H        17.2886   84.5060   22.0955  H     
47   H        19.9660   85.5061   23.1463  H     
48   H        19.6920   85.5930   21.4222  H     
49   H        18.7921   87.4349   23.4778  H     
50   H        17.3456   86.7098   22.8344  H     
51   H        12.0537   81.1842   25.3235  H     
52   H        11.9724   79.8075   26.4237  H     
53   H        13.8392   80.5753   27.6988  H     
54   H        12.8428   81.9901   27.3962  H     
55   H        20.8229   88.4134   23.0089  H     
56   H        21.8262   88.8365   21.6003  H     
57   H        21.1435   87.1938   21.7358  H     
@<TRIPOS>BOND
     1    1    2 1
     2    1    3 1
     3    1    6 1
     4    1   11 1
     5    2    4 2
     6    2    7 1
     7    2    8 1
     8    3    5 2
     9    3    9 1
    10    3   10 1
    11   11   12 1
    12   12   23 1
    13   13   14 1
    14   13   25 1
    15   14   22 1
    16   15   16 1
    17   15   24 1
    18   16   17 1
    19   17   18 1
    20   18   19 1
    21   19   20 1
    22   20   21 1
    23   21   22 1
    24   23   24 1
    25    6   26 1
    26   11   27 1
    27   11   28 1
    28   12   29 1
    29   12   30 1
    30   13   31 1
    31   13   32 1
    32   14   33 1
    33   14   34 1
    34   15   35 1
    35   15   36 1
    36   16   37 1
    37   16   38 1
    38   17   39 1
    39   17   40 1
    40   18   41 1
    41   18   42 1
    42   19   43 1
    43   19   44 1
    44   20   45 1
    45   20   46 1
    46   21   47 1
    47   21   48 1
    48   22   49 1
    49   22   50 1
    50   23   51 1
    51   23   52 1
    52   24   53 1
    53   24   54 1
    54   25   55 1
    55   25   56 1
    56   25   57 1
@<TRIPOS>PROPERTY_DATA
  Total_Score	| 11.7817
  Crash		| -2.5045
  Polar		| 7.5983
  FragIndex	| 1
  FragRMSD	| 1.465

