@<TRIPOS>MOLECULE
BindingDB_25265
 36 35 0 0 0
SMALL
NO_CHARGES


@<TRIPOS>ATOM
1    O        13.8487   77.8789   25.7036  O     
2    C        15.2552   77.9295   25.4279  C     
3    P        16.0084   78.2905   26.8860  P     
4    O        15.5813   77.3689   28.0459  O     
5    O        17.5468   78.2981   26.7815  O     
6    O        15.6761   79.6271   27.3122  O     
7    O        17.0654   76.1071   24.9436  O     
8    P        15.6467   76.3689   24.9483  P     
9    O        14.9768   75.2852   25.8193  O     
10   O        15.1776   76.1108   23.5029  O     
11   C        15.5742   79.0203   24.3284  C     
12   C        14.4864   80.1325   24.1609  C     
13   C        15.0056   81.4803   23.5545  C     
14   C        14.9217   82.7216   24.5042  C     
15   C        16.2713   83.4004   24.8887  C     
16   C        16.8046   84.4994   23.9151  C     
17   C        17.6834   84.0126   22.7283  C     
18   C        19.1431   83.6574   23.1201  C     
19   H        13.3978   77.8379   24.8310  H     
20   H        16.5441   79.4841   24.5398  H     
21   H        15.6812   78.5605   23.3413  H     
22   H        13.7095   79.7314   23.4979  H     
23   H        13.9874   80.3278   25.1196  H     
24   H        16.0254   81.3446   23.1906  H     
25   H        14.3992   81.7002   22.6722  H     
26   H        14.2689   83.4782   24.0564  H     
27   H        14.4465   82.4398   25.4486  H     
28   H        16.1141   83.8888   25.8586  H     
29   H        17.0266   82.6287   25.0550  H     
30   H        15.9556   85.0595   23.5089  H     
31   H        17.3990   85.2160   24.4976  H     
32   H        17.2188   83.1415   22.2569  H     
33   H        17.7272   84.8200   21.9865  H     
34   H        19.6332   84.5199   23.5835  H     
35   H        19.7027   83.3742   22.2225  H     
36   H        19.1675   82.8157   23.8180  H     
@<TRIPOS>BOND
     1    1    2 1
     2    2    3 1
     3    2    8 1
     4    2   11 1
     5    3    4 1
     6    3    5 1
     7    3    6 2
     8    7    8 2
     9    8    9 1
    10    8   10 1
    11   11   12 1
    12   12   13 1
    13   13   14 1
    14   14   15 1
    15   15   16 1
    16   16   17 1
    17   17   18 1
    18    1   19 1
    19   11   20 1
    20   11   21 1
    21   12   22 1
    22   12   23 1
    23   13   24 1
    24   13   25 1
    25   14   26 1
    26   14   27 1
    27   15   28 1
    28   15   29 1
    29   16   30 1
    30   16   31 1
    31   17   32 1
    32   17   33 1
    33   18   34 1
    34   18   35 1
    35   18   36 1
@<TRIPOS>PROPERTY_DATA
  Total_Score	| 10.3495
  Crash		| -1.3062
  Polar		| 7.5381
  FragIndex	| 1
  FragRMSD	| 0.972

