@<TRIPOS>MOLECULE
BindingDB_50281993
 29 29 0 0 0
SMALL
NO_CHARGES


@<TRIPOS>ATOM
1    C        55.5165    9.8397   28.8132  C     
2    P        54.2816    8.0023   27.4482  P     
3    C        56.3129   12.0162   27.8912  C     
4    C        55.3220   11.1249   28.1454  C     
5    C        56.8322    9.8132   29.6438  C     
6    C        56.0191   13.2491   27.3136  C     
7    O        55.5719    8.8072   27.7941  O     
8    C        58.0100   10.2807   28.7427  C     
9    C        57.7111   11.7360   28.2795  C     
10   C        61.2276    9.0693   30.1583  C     
11   O        53.2744    8.7468   26.5663  O     
12   O        54.6741    6.8236   26.7053  O     
13   O        59.2748   10.2542   29.4411  O     
14   O        56.9024   14.2727   27.3723  O     
15   O        54.8062   13.5303   26.7841  O     
16   O        61.6680    7.8738   30.5968  O     
17   O        61.5294   10.1483   30.9067  O     
18   O        53.5439    7.4757   28.6920  O     
19   C        60.1046    9.0947   29.2135  C     
20   O        57.0278    8.5239   30.2219  O     
21   H        54.6976    9.6910   29.5292  H     
22   H        54.3915   11.3242   27.8523  H     
23   H        56.7280   10.5124   30.4815  H     
24   H        58.0522    9.6539   27.8417  H     
25   H        58.3631   11.9499   27.4261  H     
26   H        57.9801   12.4263   29.0852  H     
27   H        60.5117    9.1339   28.2017  H     
28   H        59.5261    8.1776   29.3244  H     
29   H        57.5776    8.6822   31.0244  H     
@<TRIPOS>BOND
     1    1    4 1
     2    1    5 1
     3    1    7 1
     4    2    7 1
     5    2   11 1
     6    2   12 2
     7    2   18 1
     8    3    4 2
     9    3    6 1
    10    3    9 1
    11    5    8 1
    12    5   20 1
    13    6   14 1
    14    6   15 2
    15    8    9 1
    16    8   13 1
    17   10   16 1
    18   10   17 2
    19   10   19 1
    20   13   19 1
    21    1   21 1
    22    4   22 1
    23    5   23 1
    24    8   24 1
    25    9   25 1
    26    9   26 1
    27   19   27 1
    28   19   28 1
    29   20   29 1
@<TRIPOS>PROPERTY_DATA
  Total_Score	| 20.5484
  Crash		| -0.5686
  Polar		| 19.0168
  FragIndex	| 1
  FragRMSD	| 0.770

