@<TRIPOS>MOLECULE
BindingDB_50281342
 27 27 0 0 0
SMALL
NO_CHARGES


@<TRIPOS>ATOM
1    C        56.2440   12.1076   28.0442  C     
2    C        57.9307   10.2939   28.7992  C     
3    C        55.2361   11.2649   28.4098  C     
4    C        60.0620    9.1523   29.2849  C     
5    C        56.8262    9.9060   29.8359  C     
6    O        59.2941   10.2688   29.3171  O     
7    C        55.9771   13.2599   27.3663  C     
8    C        55.4310   10.0144   29.1135  C     
9    C        57.6550   11.7391   28.2891  C     
10   C        61.0448    9.0590   30.2733  C     
11   O        56.8424   14.2958   27.3483  O     
12   O        61.4752   10.1704   30.9339  O     
13   C        60.0451    8.2642   28.2685  C     
14   O        57.0776    8.5943   30.3324  O     
15   O        54.9640   13.3125   26.4763  O     
16   O        61.6085    7.9078   30.6906  O     
17   O        55.2810    9.0179   28.0882  O     
18   H        57.8541    9.5734   27.9662  H     
19   H        54.2987   11.5314   28.1965  H     
20   H        56.8314   10.5883   30.6745  H     
21   H        54.5989    9.8564   29.8325  H     
22   H        58.2255   11.8341   27.3505  H     
23   H        58.0746   12.4317   29.0233  H     
24   H        60.6584    7.4954   28.2261  H     
25   H        59.4939    8.4095   27.4989  H     
26   H        57.6356    8.6873   31.1329  H     
27   H        55.0987    8.1855   28.5529  H     
@<TRIPOS>BOND
     1    1    3 2
     2    1    7 1
     3    1    9 1
     4    2    5 1
     5    2    6 1
     6    2    9 1
     7    3    8 1
     8    4    6 1
     9    4   10 1
    10    4   13 2
    11    5    8 1
    12    5   14 1
    13    7   11 2
    14    7   15 1
    15    8   17 1
    16   10   12 2
    17   10   16 1
    18    2   18 1
    19    3   19 1
    20    5   20 1
    21    8   21 1
    22    9   22 1
    23    9   23 1
    24   13   24 1
    25   13   25 1
    26   14   26 1
    27   17   27 1
@<TRIPOS>PROPERTY_DATA
  Total_Score	| 14.6745
  Crash		| -0.6228
  Polar		| 13.3638
  FragIndex	| 1
  FragRMSD	| 0.854

