@<TRIPOS>MOLECULE
BindingDB_50281990
 30 30 0 0 0
SMALL
NO_CHARGES


@<TRIPOS>ATOM
1    C        55.5059    9.8092   28.8357  C     
2    P        54.2625    7.9607   27.4837  P     
3    C        56.3063   11.9655   27.8841  C     
4    C        55.3080   11.1005   28.1817  C     
5    C        57.9978   10.1836   28.6493  C     
6    C        56.8507    9.7669   29.6234  C     
7    C        59.8571    8.9923   29.6690  C     
8    C        56.0197   13.2143   27.3341  C     
9    O        55.5454    8.7749   27.8232  O     
10   O        59.3566   10.1275   29.1417  O     
11   C        60.5834    9.1702   30.8293  C     
12   C        57.7118   11.6476   28.1978  C     
13   O        53.2766    8.7180   26.5807  O     
14   O        54.6654    6.7992   26.7351  O     
15   O        56.9161   14.2260   27.3988  O     
16   O        61.3836   10.2473   30.9579  O     
17   O        54.8019   13.5225   26.8325  O     
18   O        60.6529    8.2350   31.7998  O     
19   C        59.7307    7.7844   29.0834  C     
20   O        53.5151    7.4541   28.7295  O     
21   O        57.0140    8.4759   30.2079  O     
22   H        54.7062    9.6540   29.5714  H     
23   H        54.3682   11.3303   27.9473  H     
24   H        57.9586    9.5509   27.7587  H     
25   H        56.8012   10.4819   30.4526  H     
26   H        58.3312   11.8498   27.3182  H     
27   H        58.0408   12.3232   28.9939  H     
28   H        60.1182    6.9624   29.4880  H     
29   H        59.2501    7.6858   28.2219  H     
30   H        57.5542    8.6208   31.0151  H     
@<TRIPOS>BOND
     1    1    4 1
     2    1    6 1
     3    1    9 1
     4    2    9 1
     5    2   13 1
     6    2   14 2
     7    2   20 1
     8    3    4 2
     9    3    8 1
    10    3   12 1
    11    5    6 1
    12    5   10 1
    13    5   12 1
    14    6   21 1
    15    7   10 1
    16    7   11 1
    17    7   19 2
    18    8   15 1
    19    8   17 2
    20   11   16 1
    21   11   18 2
    22    1   22 1
    23    4   23 1
    24    5   24 1
    25    6   25 1
    26   12   26 1
    27   12   27 1
    28   19   28 1
    29   19   29 1
    30   21   30 1
@<TRIPOS>PROPERTY_DATA
  Total_Score	| 21.2533
  Crash		| -0.5381
  Polar		| 18.7758
  FragIndex	| 1
  FragRMSD	| 1.104

