@<TRIPOS>MOLECULE
BindingDB_50280241
 26 26 0 0 0
SMALL
NO_CHARGES


@<TRIPOS>ATOM
1    P        54.1998    7.9631   27.4310  P     
2    C        55.3661    9.8034   28.8247  C     
3    C        56.2496   12.0013   27.9971  C     
4    C        55.2408   11.1076   28.1640  C     
5    C        56.6128    9.7380   29.7503  C     
6    C        56.0222   13.2308   27.3695  C     
7    O        55.4705    8.7925   27.8090  O     
8    C        57.8488   10.2380   28.9709  C     
9    C        57.6012   11.7176   28.5289  C     
10   O        54.6650    6.7200   26.6067  O     
11   O        53.4343    7.4263   28.6444  O     
12   O        53.2729    8.6746   26.5849  O     
13   O        56.9315   14.2327   27.4174  O     
14   O        54.8487   13.5305   26.7633  O     
15   N        59.0597   10.0595   29.7728  N     
16   O        56.8297    8.4209   30.2647  O     
17   H        54.4957    9.6482   29.4756  H     
18   H        54.3472   11.3064   27.7697  H     
19   H        56.4517   10.3877   30.6118  H     
20   H        57.9796    9.6302   28.0718  H     
21   H        58.3458   11.9578   27.7611  H     
22   H        57.7763   12.3832   29.3826  H     
23   H        58.8975   10.3689   30.7358  H     
24   H        59.8241   10.5860   29.3536  H     
25   H        59.2977    9.0639   29.7750  H     
26   H        57.4241    8.5405   31.0561  H     
@<TRIPOS>BOND
     1    1    7 1
     2    1   10 1
     3    1   11 1
     4    1   12 2
     5    2    4 1
     6    2    5 1
     7    2    7 1
     8    3    4 2
     9    3    6 1
    10    3    9 1
    11    5    8 1
    12    5   16 1
    13    6   13 1
    14    6   14 2
    15    8    9 1
    16    8   15 1
    17    2   17 1
    18    4   18 1
    19    5   19 1
    20    8   20 1
    21    9   21 1
    22    9   22 1
    23   15   23 1
    24   15   24 1
    25   15   25 1
    26   16   26 1
@<TRIPOS>PROPERTY_DATA
  Total_Score	| 14.7081
  Crash		| -1.2875
  Polar		| 13.9773
  FragIndex	| 1
  FragRMSD	| 0.111

