@<TRIPOS>MOLECULE
BindingDB_50281994
 27 27 0 0 0
SMALL
NO_CHARGES


@<TRIPOS>ATOM
1    C        56.2910   12.0136   27.9760  C     
2    C        57.9885   10.2200   28.6952  C     
3    C        55.2992   11.2056   28.4106  C     
4    C        59.9120    9.0334   29.5782  C     
5    C        55.9845   13.2211   27.3471  C     
6    C        56.9265    9.8547   29.7748  C     
7    O        59.3839   10.1687   29.0852  O     
8    C        60.6363    9.1747   30.7435  C     
9    C        55.5067    9.9667   29.1495  C     
10   C        57.7037   11.6792   28.2159  C     
11   O        56.8971   14.2120   27.2259  O     
12   O        60.7279    8.1992   31.6725  O     
13   O        54.8192   13.3867   26.6818  O     
14   O        61.3467   10.3015   30.9568  O     
15   C        59.8011    7.8578   28.9357  C     
16   O        57.0960    8.5400   30.3083  O     
17   O        55.2497    8.8947   28.2429  O     
18   H        57.8528    9.5435   27.8441  H     
19   H        54.3506   11.4446   28.2211  H     
20   H        57.0007   10.5593   30.6086  H     
21   H        54.7732    9.9152   29.9585  H     
22   H        58.2752   11.8407   27.2968  H     
23   H        58.0884   12.3737   28.9684  H     
24   H        60.2089    7.0243   29.2921  H     
25   H        59.3229    7.8059   28.0693  H     
26   H        57.6558    8.6569   31.1042  H     
27   H        55.1379    8.0982   28.8027  H     
@<TRIPOS>BOND
     1    1    3 2
     2    1    5 1
     3    1   10 1
     4    2    6 1
     5    2    7 1
     6    2   10 1
     7    3    9 1
     8    4    7 1
     9    4    8 1
    10    4   15 2
    11    5   11 1
    12    5   13 2
    13    6    9 1
    14    6   16 1
    15    8   12 1
    16    8   14 2
    17    9   17 1
    18    2   18 1
    19    3   19 1
    20    6   20 1
    21    9   21 1
    22   10   22 1
    23   10   23 1
    24   15   24 1
    25   15   25 1
    26   16   26 1
    27   17   27 1
@<TRIPOS>PROPERTY_DATA
  Total_Score	| 14.5188
  Crash		| -0.4519
  Polar		| 12.8414
  FragIndex	| 1
  FragRMSD	| 0.556

