@<TRIPOS>MOLECULE
BindingDB_50280242
 24 24 0 0 0
SMALL
NO_CHARGES


@<TRIPOS>ATOM
1    P        54.2639    7.9715   27.5520  P     
2    C        55.3986    9.8612   28.9284  C     
3    C        56.1855   12.0326   27.9973  C     
4    C        55.2033   11.1379   28.2518  C     
5    C        56.6791    9.8529   29.8126  C     
6    C        55.8883   13.2383   27.3611  C     
7    O        55.5153    8.8246   27.9221  O     
8    C        57.8852   10.3770   28.9927  C     
9    C        57.5718   11.7938   28.4288  C     
10   O        53.3044    8.6758   26.5781  O     
11   O        54.7542    6.6963   26.8518  O     
12   O        53.5011    7.5370   28.6926  O     
13   O        54.7546   13.4037   26.6461  O     
14   O        56.7697   14.2615   27.3164  O     
15   O        56.9191    8.5343   30.3057  O     
16   O        59.0920   10.4272   29.7579  O     
17   H        54.5578    9.6966   29.6143  H     
18   H        54.2740   11.3278   27.9486  H     
19   H        56.5227   10.5095   30.6755  H     
20   H        58.0607    9.6926   28.1570  H     
21   H        58.2442   11.9611   27.5804  H     
22   H        57.8149   12.5377   29.1963  H     
23   H        57.5391    8.6411   31.0583  H     
24   H        58.8387   10.3123   30.6982  H     
@<TRIPOS>BOND
     1    1    7 1
     2    1   10 1
     3    1   11 1
     4    1   12 2
     5    2    4 1
     6    2    5 1
     7    2    7 1
     8    3    4 2
     9    3    6 1
    10    3    9 1
    11    5    8 1
    12    5   15 1
    13    6   13 1
    14    6   14 2
    15    8    9 1
    16    8   16 1
    17    2   17 1
    18    4   18 1
    19    5   19 1
    20    8   20 1
    21    9   21 1
    22    9   22 1
    23   15   23 1
    24   16   24 1
@<TRIPOS>PROPERTY_DATA
  Total_Score	| 15.8386
  Crash		| -0.4795
  Polar		| 14.2113
  FragIndex	| 1
  FragRMSD	| 1.199

