@<TRIPOS>MOLECULE
BindingDB_50281345
 26 26 0 0 0
SMALL
NO_CHARGES


@<TRIPOS>ATOM
1    C        56.2854   12.0900   28.0262  C     
2    C        55.3046   11.1988   28.3025  C     
3    C        56.8474    9.8778   29.7855  C     
4    C        55.9776   13.2886   27.3809  C     
5    C        55.5176    9.9272   28.9821  C     
6    C        57.9980   10.3912   28.8779  C     
7    C        57.6735   11.8560   28.4614  C     
8    C        61.2176    9.1231   30.2410  C     
9    O        59.2749   10.3516   29.5540  O     
10   O        54.8335   13.4369   26.6727  O     
11   O        61.6478    7.9163   30.6682  O     
12   C        60.1046    9.2009   29.2856  C     
13   O        57.0836    8.5625   30.2824  O     
14   O        56.8598   14.3092   27.3137  O     
15   O        55.4864    8.9158   27.9747  O     
16   O        61.6075   10.2013   30.9583  O     
17   H        54.3757   11.3735   27.9895  H     
18   H        56.7526   10.5367   30.6558  H     
19   H        54.6889    9.7514   29.6750  H     
20   H        58.0245    9.7907   27.9591  H     
21   H        58.3634   12.1188   27.6500  H     
22   H        57.8822   12.5240   29.3058  H     
23   H        60.5338    9.2878   28.2827  H     
24   H        59.5255    8.2729   29.3389  H     
25   H        57.6476    8.6849   31.0746  H     
26   H        55.1187    8.1164   28.4168  H     
@<TRIPOS>BOND
     1    1    2 2
     2    1    4 1
     3    1    7 1
     4    2    5 1
     5    3    5 1
     6    3    6 1
     7    3   13 1
     8    4   10 2
     9    4   14 1
    10    5   15 1
    11    6    7 1
    12    6    9 1
    13    8   11 2
    14    8   12 1
    15    8   16 1
    16    9   12 1
    17    2   17 1
    18    3   18 1
    19    5   19 1
    20    6   20 1
    21    7   21 1
    22    7   22 1
    23   12   23 1
    24   12   24 1
    25   13   25 1
    26   15   26 1
@<TRIPOS>PROPERTY_DATA
  Total_Score	| 14.4855
  Crash		| -0.4943
  Polar		| 13.3803
  FragIndex	| 1
  FragRMSD	| 0.847

