@<TRIPOS>MOLECULE
BindingDB_50283578
 29 29 0 0 0
SMALL
NO_CHARGES


@<TRIPOS>ATOM
1    C        55.6573    9.5451   28.5130  C     
2    P        54.1086    7.8697   27.2690  P     
3    C        56.2455   11.9454   28.1679  C     
4    C        55.3701   10.9191   28.1041  C     
5    C        57.1239    9.2396   28.9805  C     
6    C        55.9527   13.1718   27.5584  C     
7    O        55.4299    8.6908   27.3680  O     
8    C        58.1412   10.3768   28.6578  C     
9    C        57.4911   11.7588   28.9234  C     
10   C        61.2983    9.1165   30.1641  C     
11   O        53.4806    7.4626   28.6136  O     
12   O        53.1396    8.5912   26.4888  O     
13   O        59.3404   10.2618   29.4547  O     
14   O        54.8205   13.3877   26.8516  O     
15   O        56.7863   14.2337   27.6232  O     
16   O        61.5060   10.1690   30.9769  O     
17   O        61.6815    7.9200   30.6568  O     
18   O        54.4223    6.5610   26.5255  O     
19   C        60.2400    9.1792   29.1448  C     
20   O        57.1327    8.8512   30.3577  O     
21   H        54.9844    9.3237   29.3510  H     
22   H        54.4738   11.0676   27.6934  H     
23   H        57.4835    8.3403   28.4680  H     
24   H        58.4010   10.3412   27.5937  H     
25   H        58.2319   12.5255   28.6852  H     
26   H        57.2600   11.8482   29.9893  H     
27   H        60.7125    9.3638   28.1774  H     
28   H        59.7140    8.2205   29.1021  H     
29   H        57.7555    9.4440   30.8361  H     
@<TRIPOS>BOND
     1    1    4 1
     2    1    5 1
     3    1    7 1
     4    2    7 1
     5    2   11 1
     6    2   12 2
     7    2   18 1
     8    3    4 2
     9    3    6 1
    10    3    9 1
    11    5    8 1
    12    5   20 1
    13    6   14 1
    14    6   15 2
    15    8    9 1
    16    8   13 1
    17   10   16 1
    18   10   17 2
    19   10   19 1
    20   13   19 1
    21    1   21 1
    22    4   22 1
    23    5   23 1
    24    8   24 1
    25    9   25 1
    26    9   26 1
    27   19   27 1
    28   19   28 1
    29   20   29 1
@<TRIPOS>PROPERTY_DATA
  Total_Score	| 19.7603
  Crash		| -1.0587
  Polar		| 19.3139
  FragIndex	| 1
  FragRMSD	| 1.086

