@<TRIPOS>MOLECULE
BindingDB_50281341
 30 30 0 0 0
SMALL
NO_CHARGES


@<TRIPOS>ATOM
1    C        55.4940    9.8258   28.8183  C     
2    C        56.3156   11.9752   27.8709  C     
3    P        54.2432    7.9853   27.4577  P     
4    C        55.3086   11.1203   28.1680  C     
5    C        57.9905   10.1803   28.6447  C     
6    C        56.8349    9.7724   29.6119  C     
7    C        59.8320    8.9873   29.6967  C     
8    O        55.5278    8.7969   27.8000  O     
9    O        59.3451   10.1174   29.1474  O     
10   C        56.0410   13.2250   27.3178  C     
11   C        57.7172   11.6456   28.1891  C     
12   C        60.5734    9.1797   30.8441  C     
13   O        53.3021    8.7027   26.6372  O     
14   O        54.8279   13.5405   26.8093  O     
15   O        60.6431    8.2638   31.8327  O     
16   C        59.6776    7.7709   29.1431  C     
17   O        54.6815    6.7496   26.6503  O     
18   O        53.5209    7.4579   28.7097  O     
19   O        56.9877    8.4804   30.1964  O     
20   O        56.9440   14.2304   27.3867  O     
21   O        61.4008   10.2416   30.9327  O     
22   H        54.6897    9.6735   29.5492  H     
23   H        54.3710   11.3595   27.9336  H     
24   H        57.9527    9.5454   27.7558  H     
25   H        56.7872   10.4870   30.4416  H     
26   H        58.3409   11.8411   27.3111  H     
27   H        58.0491   12.3204   28.9847  H     
28   H        60.0592    6.9550   29.5615  H     
29   H        59.1894    7.6625   28.2884  H     
30   H        57.5354    8.6205   30.9994  H     
@<TRIPOS>BOND
     1    1    4 1
     2    1    6 1
     3    1    8 1
     4    2    4 2
     5    2   10 1
     6    2   11 1
     7    3    8 1
     8    3   13 2
     9    3   17 1
    10    3   18 1
    11    5    6 1
    12    5    9 1
    13    5   11 1
    14    6   19 1
    15    7    9 1
    16    7   12 1
    17    7   16 2
    18   10   14 2
    19   10   20 1
    20   12   15 2
    21   12   21 1
    22    1   22 1
    23    4   23 1
    24    5   24 1
    25    6   25 1
    26   11   26 1
    27   11   27 1
    28   16   28 1
    29   16   29 1
    30   19   30 1
@<TRIPOS>PROPERTY_DATA
  Total_Score	| 21.3588
  Crash		| -0.5230
  Polar		| 18.7426
  FragIndex	| 1
  FragRMSD	| 0.826

