@<TRIPOS>MOLECULE
BindingDB_50281343
 29 29 0 0 0
SMALL
NO_CHARGES


@<TRIPOS>ATOM
1    C        55.4721    9.8268   28.8361  C     
2    C        56.2726   11.9968   27.9127  C     
3    P        54.2639    7.9656   27.4787  P     
4    C        55.2857   11.1020   28.1504  C     
5    C        56.7843    9.8006   29.6754  C     
6    O        55.5450    8.7820   27.8355  O     
7    C        55.9856   13.2228   27.3146  C     
8    C        57.9640   10.2791   28.7845  C     
9    C        57.6591   11.7376   28.3377  C     
10   C        61.2237    9.0782   30.1516  C     
11   O        53.3342    8.6877   26.6484  O     
12   O        59.2327   10.2540   29.4767  O     
13   O        54.7904   13.4869   26.7395  O     
14   O        61.6845    7.8771   30.5737  O     
15   O        54.7053    6.7231   26.6854  O     
16   O        53.5165    7.4581   28.7247  O     
17   C        60.0845    9.1173   29.2158  C     
18   O        56.9963    8.5012   30.2264  O     
19   O        56.8586   14.2520   27.3878  O     
20   O        61.5137   10.1347   30.9368  O     
21   H        54.6489    9.6838   29.5486  H     
22   H        54.3633   11.2898   27.8329  H     
23   H        56.6774   10.4840   30.5267  H     
24   H        58.0094    9.6590   27.8807  H     
25   H        58.3451   11.9767   27.5167  H     
26   H        57.8890   12.4117   29.1694  H     
27   H        60.4881    9.1830   28.1994  H     
28   H        59.5207    8.1865   29.3062  H     
29   H        57.5519    8.6476   31.0235  H     
@<TRIPOS>BOND
     1    1    4 1
     2    1    5 1
     3    1    6 1
     4    2    4 2
     5    2    7 1
     6    2    9 1
     7    3    6 1
     8    3   11 2
     9    3   15 1
    10    3   16 1
    11    5    8 1
    12    5   18 1
    13    7   13 2
    14    7   19 1
    15    8    9 1
    16    8   12 1
    17   10   14 2
    18   10   17 1
    19   10   20 1
    20   12   17 1
    21    1   21 1
    22    4   22 1
    23    5   23 1
    24    8   24 1
    25    9   25 1
    26    9   26 1
    27   17   27 1
    28   17   28 1
    29   18   29 1
@<TRIPOS>PROPERTY_DATA
  Total_Score	| 20.5144
  Crash		| -0.5188
  Polar		| 18.8247
  FragIndex	| 1
  FragRMSD	| 0.738

