@<TRIPOS>MOLECULE
BindingDB_50281989
 29 29 0 0 0
SMALL
NO_CHARGES


@<TRIPOS>ATOM
1    P        61.1742    8.5970   30.4354  P     
2    C        56.0596   12.1025   28.0603  C     
3    C        57.6861   10.2563   28.6573  C     
4    C        55.0623   11.3379   28.5637  C     
5    C        55.7615   13.2846   27.3925  C     
6    C        56.7291    9.9354   29.8296  C     
7    C        61.2756    9.0181   28.8316  C     
8    C        55.2665   10.1118   29.3303  C     
9    C        59.9543    9.3147   28.2671  C     
10   C        57.4716   11.7307   28.2215  C     
11   O        59.0530   10.0142   29.0074  O     
12   O        62.4221    7.7721   30.7917  O     
13   O        61.1996    9.7407   31.3163  O     
14   O        56.6881   14.2586   27.2308  O     
15   O        54.6360   13.3812   26.6522  O     
16   O        59.6437    8.8216   27.0429  O     
17   O        59.9500    7.7102   30.7544  O     
18   O        56.9521    8.6220   30.3405  O     
19   O        54.8726    9.0203   28.4962  O     
20   H        57.4036    9.6077   27.8224  H     
21   H        54.1148   11.5960   28.3964  H     
22   H        56.9071   10.6405   30.6487  H     
23   H        61.9268    9.8864   28.7257  H     
24   H        61.7186    8.1874   28.2807  H     
25   H        54.6050   10.1269   30.2021  H     
26   H        57.9876   11.8580   27.2630  H     
27   H        57.9404   12.4038   28.9471  H     
28   H        57.5425    8.7527   31.1144  H     
29   H        55.1867    8.2141   28.9578  H     
@<TRIPOS>BOND
     1    1    7 1
     2    1   12 1
     3    1   13 2
     4    1   17 1
     5    2    4 2
     6    2    5 1
     7    2   10 1
     8    3    6 1
     9    3   10 1
    10    3   11 1
    11    4    8 1
    12    5   14 1
    13    5   15 2
    14    6    8 1
    15    6   18 1
    16    7    9 1
    17    8   19 1
    18    9   11 1
    19    9   16 2
    20    3   20 1
    21    4   21 1
    22    6   22 1
    23    7   23 1
    24    7   24 1
    25    8   25 1
    26   10   26 1
    27   10   27 1
    28   18   28 1
    29   19   29 1
@<TRIPOS>PROPERTY_DATA
  Total_Score	| 9.3753
  Crash		| -2.9701
  Polar		| 10.4105
  FragIndex	| 1
  FragRMSD	| 0.531

