@<TRIPOS>MOLECULE
BindingDB_50280240
 35 35 0 0 0
SMALL
NO_CHARGES


@<TRIPOS>ATOM
1    C        60.1801    9.0525   28.9449  C     
2    P        60.9055    9.5920   27.5250  P     
3    P        54.1923    7.9702   27.4581  P     
4    C        55.4024    9.8233   28.8387  C     
5    O        59.1772   10.0088   29.4053  O     
6    C        56.2648   11.9805   27.9307  C     
7    C        57.8939   10.1887   28.7572  C     
8    C        55.2515   11.1122   28.1653  C     
9    C        61.2163    9.0498   30.0232  C     
10   C        56.7165    9.7656   29.6744  C     
11   C        56.0139   13.2134   27.3302  C     
12   O        55.4644    8.7845   27.8325  O     
13   C        57.6521   11.6668   28.3318  C     
14   O        59.8821   10.1897   26.5413  O     
15   O        61.9248   10.7224   27.7609  O     
16   O        61.5447    8.5767   26.7271  O     
17   O        54.6687    6.7247   26.6905  O     
18   O        53.4376    7.4492   28.6939  O     
19   O        53.2817    8.6729   26.5934  O     
20   O        61.7451    7.9081   30.5213  O     
21   O        54.8179   13.5233   26.7805  O     
22   O        61.4477   10.1500   30.7786  O     
23   O        56.8991   14.2300   27.4194  O     
24   C        59.5998    7.6073   28.7581  C     
25   O        56.9064    8.4719   30.2391  O     
26   H        54.5737    9.6862   29.5443  H     
27   H        57.8480    9.5891   27.8490  H     
28   H        54.3298   11.3364   27.8627  H     
29   H        56.6358   10.4649   30.5141  H     
30   H        58.3236   11.8823   27.4951  H     
31   H        57.9308   12.3228   29.1614  H     
32   H        58.8364    7.5627   27.9818  H     
33   H        59.1465    7.2614   29.6889  H     
34   H        60.3842    6.8957   28.4839  H     
35   H        57.4772    8.6161   31.0256  H     
@<TRIPOS>BOND
     1    1    2 1
     2    1    5 1
     3    1    9 1
     4    1   24 1
     5    2   14 1
     6    2   15 1
     7    2   16 2
     8    3   12 1
     9    3   17 1
    10    3   18 1
    11    3   19 2
    12    4    8 1
    13    4   10 1
    14    4   12 1
    15    7    5 1
    16    6    8 2
    17    6   11 1
    18    6   13 1
    19    7   10 1
    20    7   13 1
    21    9   20 1
    22    9   22 2
    23   10   25 1
    24   11   21 1
    25   11   23 2
    26    4   26 1
    27    7   27 1
    28    8   28 1
    29   10   29 1
    30   13   30 1
    31   13   31 1
    32   24   32 1
    33   24   33 1
    34   24   34 1
    35   25   35 1
@<TRIPOS>PROPERTY_DATA
  Total_Score	| 24.0393
  Crash		| -0.9667
  Polar		| 21.7808
  FragIndex	| 1
  FragRMSD	| 0.660

