@<TRIPOS>MOLECULE
BindingDB_50281988
 24 24 0 0 0
SMALL
NO_CHARGES


@<TRIPOS>ATOM
1    C        55.4254    9.8404   28.8697  C     
2    P        54.2877    7.9555   27.4884  P     
3    C        56.2570   11.9890   27.9357  C     
4    C        55.2526   11.1213   28.1960  C     
5    C        56.7083    9.8268   29.7509  C     
6    O        55.5396    8.8097   27.8572  O     
7    C        55.9852   13.2260   27.3544  C     
8    C        57.9244   10.2804   28.9037  C     
9    C        57.6477   11.6974   28.3247  C     
10   O        54.7536    6.7192   26.6976  O     
11   O        53.5756    7.4814   28.6463  O     
12   O        54.7857   13.5197   26.8043  O     
13   O        53.2824    8.7071   26.6017  O     
14   O        56.9043    8.5301   30.3104  O     
15   O        56.8769   14.2399   27.4410  O     
16   O        59.1309   10.3142   29.6712  O     
17   H        54.5800    9.6831   29.5531  H     
18   H        54.3243   11.3396   27.9081  H     
19   H        56.5865   10.5261   30.5860  H     
20   H        58.0768    9.5712   28.0845  H     
21   H        58.2992   11.8345   27.4571  H     
22   H        57.9431   12.4357   29.0782  H     
23   H        57.4789    8.6823   31.0899  H     
24   H        58.8641   10.2959   30.6125  H     
@<TRIPOS>BOND
     1    1    4 1
     2    1    5 1
     3    1    6 1
     4    2    6 1
     5    2   10 1
     6    2   11 2
     7    2   13 1
     8    3    4 2
     9    3    7 1
    10    3    9 1
    11    5    8 1
    12    5   14 1
    13    7   12 2
    14    7   15 1
    15    8    9 1
    16    8   16 1
    17    1   17 1
    18    4   18 1
    19    5   19 1
    20    8   20 1
    21    9   21 1
    22    9   22 1
    23   14   23 1
    24   16   24 1
@<TRIPOS>PROPERTY_DATA
  Total_Score	| 15.9196
  Crash		| -0.5262
  Polar		| 14.2724
  FragIndex	| 1
  FragRMSD	| 0.866

