@<TRIPOS>MOLECULE
BindingDB_50345249
 37 39 0 0 0
SMALL
NO_CHARGES


@<TRIPOS>ATOM
1    C        23.5443   37.5834    0.3758  C     
2    C        22.8728   36.9826   -0.7180  C     
3    C        22.5118   35.6076   -0.6961  C     
4    C        23.8605   36.8319    1.5206  C     
5    C        23.4720   35.4844    1.5419  C     
6    C        22.8070   34.8842    0.4763  C     
7    O        22.5146   33.5831    0.7564  O     
8    C        23.0528   33.4214    1.9837  C     
9    C        23.6191   34.5304    2.4701  C     
10   C        23.0498   32.1992    2.6125  C     
11   O        23.6917   31.9944    3.7863  O     
12   O        22.3776   31.1625    2.0691  O     
13   Br       24.0135   39.3809    0.2906  Br    
14   O        21.8072   34.9343   -1.6806  O     
15   C        21.8292   35.3717   -3.0678  C     
16   C        22.6309   34.4491   -4.0469  C     
17   C        24.0680   34.0690   -3.5604  C     
18   N        24.7802   33.1948   -4.5372  N     
19   C        24.0371   31.9734   -4.9340  C     
20   C        22.6078   32.2983   -5.4425  C     
21   C        21.8383   33.1633   -4.4160  C     
22   H        22.6494   37.5669   -1.5215  H     
23   H        24.3529   37.2544    2.3070  H     
24   H        24.0835   34.6347    3.3436  H     
25   H        20.7868   35.4079   -3.4018  H     
26   H        22.2097   36.3994   -3.1799  H     
27   H        22.7529   35.0247   -4.9664  H     
28   H        24.6646   34.9782   -3.4256  H     
29   H        24.0098   33.5499   -2.5981  H     
30   H        25.0097   33.7366   -5.3805  H     
31   H        25.6590   32.8775   -4.1136  H     
32   H        24.6048   31.4691   -5.7295  H     
33   H        23.9823   31.2957   -4.0787  H     
34   H        22.6804   32.8255   -6.3950  H     
35   H        22.0735   31.3586   -5.6112  H     
36   H        21.6649   32.5710   -3.5068  H     
37   H        20.8730   33.4260   -4.8400  H     
@<TRIPOS>BOND
     1    1    2 2
     2    1    4 1
     3    1   13 1
     4    2    3 1
     5    3    6 2
     6    3   14 1
     7    4    5 2
     8    5    6 1
     9    5    9 1
    10    6    7 1
    11    7    8 1
    12    8    9 2
    13    8   10 1
    14   10   11 1
    15   10   12 2
    16   14   15 1
    17   15   16 1
    18   16   17 1
    19   16   21 1
    20   17   18 1
    21   18   19 1
    22   19   20 1
    23   20   21 1
    24    2   22 1
    25    4   23 1
    26    9   24 1
    27   15   25 1
    28   15   26 1
    29   16   27 1
    30   17   28 1
    31   17   29 1
    32   18   30 1
    33   18   31 1
    34   19   32 1
    35   19   33 1
    36   20   34 1
    37   20   35 1
    38   21   36 1
    39   21   37 1
@<TRIPOS>PROPERTY_DATA
  Total_Score	| 7.7375
  Crash		| -0.6455
  Polar		| 4.4201
  FragIndex	| 1
  FragRMSD	| 0.295

