@<TRIPOS>MOLECULE
BindingDB_50345251
 40 42 0 0 0
SMALL
NO_CHARGES


@<TRIPOS>ATOM
1    C        23.2606   37.5380    0.2932  C     
2    C        22.4635   36.8975   -0.6839  C     
3    C        22.1452   35.5193   -0.5714  C     
4    C        23.7357   36.8230    1.4162  C     
5    C        23.3887   35.4657    1.5318  C     
6    C        22.6016   34.8400    0.5719  C     
7    O        22.3844   33.5313    0.8789  O     
8    C        23.0656   33.3876    2.0285  C     
9    C        23.6738   34.5082    2.4358  C     
10   C        23.1121   32.1645    2.6543  C     
11   O        23.8163   31.9725    3.7924  O     
12   O        22.3865   31.1286    2.1788  O     
13   Br       23.7132   39.3276    0.0759  Br    
14   O        21.4242   34.7950   -1.4998  O     
15   C        21.4784   35.2588   -2.8654  C     
16   C        21.3803   34.1069   -3.9022  C     
17   C        22.2699   32.8338   -3.6645  C     
18   C        22.5873   32.0784   -4.9989  C     
19   C        23.7451   32.7342   -5.8068  C     
20   N        24.9509   32.9514   -4.9770  N     
21   C        24.7110   33.7112   -3.7285  C     
22   C        23.6075   33.0371   -2.8741  C     
23   H        22.1375   37.4346   -1.4877  H     
24   H        24.3203   37.2742    2.1243  H     
25   H        24.2444   34.6166    3.2407  H     
26   H        20.6430   35.9451   -3.0288  H     
27   H        22.4050   35.7984   -3.0758  H     
28   H        20.3315   33.7897   -3.9567  H     
29   H        21.6266   34.5470   -4.8731  H     
30   H        21.6645   32.1558   -3.0546  H     
31   H        22.8776   31.0501   -4.7649  H     
32   H        21.6977   32.0297   -5.6336  H     
33   H        24.0184   32.0830   -6.6412  H     
34   H        23.4216   33.6873   -6.2313  H     
35   H        25.3591   32.0474   -4.7278  H     
36   H        25.6281   33.4686   -5.5361  H     
37   H        25.6433   33.7390   -3.1552  H     
38   H        24.4292   34.7385   -3.9783  H     
39   H        23.4416   33.6212   -1.9648  H     
40   H        23.9750   32.0494   -2.5689  H     
@<TRIPOS>BOND
     1    1    2 2
     2    1    4 1
     3    1   13 1
     4    2    3 1
     5    3    6 2
     6    3   14 1
     7    4    5 2
     8    5    6 1
     9    5    9 1
    10    6    7 1
    11    7    8 1
    12    8    9 2
    13    8   10 1
    14   10   11 1
    15   10   12 2
    16   14   15 1
    17   15   16 1
    18   16   17 1
    19   17   18 1
    20   17   22 1
    21   18   19 1
    22   19   20 1
    23   20   21 1
    24   21   22 1
    25    2   23 1
    26    4   24 1
    27    9   25 1
    28   15   26 1
    29   15   27 1
    30   16   28 1
    31   16   29 1
    32   17   30 1
    33   18   31 1
    34   18   32 1
    35   19   33 1
    36   19   34 1
    37   20   35 1
    38   20   36 1
    39   21   37 1
    40   21   38 1
    41   22   39 1
    42   22   40 1
@<TRIPOS>PROPERTY_DATA
  Total_Score	| 9.4646
  Crash		| -0.9617
  Polar		| 5.6947
  FragIndex	| 1
  FragRMSD	| 0.236

