@<TRIPOS>MOLECULE
BindingDB_50345260
 38 40 0 0 0
SMALL
NO_CHARGES


@<TRIPOS>ATOM
1    C        23.4916   37.5969    0.3953  C     
2    C        22.8675   36.9719   -0.7000  C     
3    C        22.3094   35.6742   -0.5647  C     
4    C        23.6463   36.9045    1.6077  C     
5    C        23.1242   35.5984    1.6946  C     
6    C        22.4081   35.0139    0.6686  C     
7    O        22.1623   33.6961    0.9166  O     
8    C        22.8409   33.4993    2.0606  C     
9    C        23.3376   34.6220    2.5832  C     
10   C        23.0417   32.2282    2.5508  C     
11   O        22.3178   31.1856    2.0848  O     
12   O        23.8074   32.0113    3.6563  O     
13   Br       24.1836   39.3184    0.2209  Br    
14   N        21.8330   34.9102   -1.5758  N     
15   C        22.4903   34.6917   -2.8170  C     
16   C        24.0132   34.4084   -2.5802  C     
17   C        24.7785   33.9415   -3.8576  C     
18   C        24.0954   32.6866   -4.4607  C     
19   C        22.6128   33.0131   -4.7996  C     
20   C        21.8141   33.5025   -3.5512  C     
21   N        24.8922   32.2229   -5.5979  N     
22   H        22.7825   37.4615   -1.6054  H     
23   H        24.1776   37.3276    2.3641  H     
24   H        23.9004   34.6988    3.4163  H     
25   H        20.9512   34.4357   -1.4140  H     
26   H        22.3415   35.5847   -3.4120  H     
27   H        24.4930   35.3092   -2.1904  H     
28   H        24.1095   33.6208   -1.8231  H     
29   H        24.7832   34.7639   -4.5778  H     
30   H        25.8060   33.7274   -3.5723  H     
31   H        24.1240   31.8798   -3.7199  H     
32   H        22.5771   33.7724   -5.5853  H     
33   H        22.1387   32.0965   -5.1978  H     
34   H        21.7003   32.6458   -2.8797  H     
35   H        20.8069   33.7935   -3.8796  H     
36   H        25.0526   32.9845   -6.2599  H     
37   H        24.4085   31.4525   -6.0670  H     
38   H        25.7909   31.8901   -5.2445  H     
@<TRIPOS>BOND
     1    1    2 2
     2    1    4 1
     3    1   13 1
     4    2    3 1
     5    3    6 2
     6    3   14 1
     7    4    5 2
     8    5    6 1
     9    5    9 1
    10    6    7 1
    11    7    8 1
    12    8    9 2
    13    8   10 1
    14   10   11 1
    15   10   12 2
    16   15   14 1
    17   15   16 1
    18   15   20 1
    19   16   17 1
    20   17   18 1
    21   18   19 1
    22   18   21 1
    23   19   20 1
    24    2   22 1
    25    4   23 1
    26    9   24 1
    27   14   25 1
    28   15   26 1
    29   16   27 1
    30   16   28 1
    31   17   29 1
    32   17   30 1
    33   18   31 1
    34   19   32 1
    35   19   33 1
    36   20   34 1
    37   20   35 1
    38   21   36 1
    39   21   37 1
    40   21   38 1
@<TRIPOS>PROPERTY_DATA
  Total_Score	| 8.5453
  Crash		| -1.0184
  Polar		| 5.3814
  FragIndex	| 1
  FragRMSD	| 0.944

