@<TRIPOS>MOLECULE
BindingDB_50345256
 38 40 0 0 0
SMALL
NO_CHARGES


@<TRIPOS>ATOM
1    C        23.3661   37.6109    0.4672  C     
2    C        22.5417   37.0336   -0.5228  C     
3    C        22.2105   35.6547   -0.4801  C     
4    C        23.8341   36.8373    1.5474  C     
5    C        23.4588   35.4854    1.6052  C     
6    C        22.6662   34.9065    0.6220  C     
7    O        22.4283   33.5902    0.8875  O     
8    C        23.0879   33.4078    2.0489  C     
9    C        23.7193   34.5041    2.4818  C     
10   C        23.1093   32.1803    2.6728  C     
11   O        23.7917   31.9836    3.8244  O     
12   O        22.3750   31.1540    2.1884  O     
13   Br       23.8779   39.3886    0.3107  Br    
14   O        21.4824   34.9656   -1.4220  O     
15   C        21.4304   35.4445   -2.7825  C     
16   C        21.5739   34.3201   -3.6972  C     
17   N        22.6806   33.5574   -3.8237  N     
18   O        20.6108   34.1236   -4.4315  O     
19   C        23.8380   33.6596   -2.9460  C     
20   C        25.1485   33.7860   -3.7642  C     
21   N        25.2345   32.8613   -4.9229  N     
22   C        24.1367   31.8793   -5.0618  C     
23   C        22.7552   32.5670   -4.8949  C     
24   H        22.2041   37.6209   -1.2869  H     
25   H        24.4349   37.2447    2.2675  H     
26   H        24.2761   34.5918    3.2999  H     
27   H        20.4687   35.9607   -2.9048  H     
28   H        22.2177   36.1635   -3.0321  H     
29   H        23.8136   34.4886   -2.2394  H     
30   H        23.8814   32.7454   -2.3478  H     
31   H        25.2286   34.8081   -4.1437  H     
32   H        26.0058   33.6075   -3.1093  H     
33   H        25.2905   33.4262   -5.7712  H     
34   H        26.1058   32.3364   -4.8436  H     
35   H        24.2058   31.3991   -6.0415  H     
36   H        24.2581   31.1053   -4.2996  H     
37   H        22.0047   31.7921   -4.7260  H     
38   H        22.5289   33.0568   -5.8464  H     
@<TRIPOS>BOND
     1    1    2 2
     2    1    4 1
     3    1   13 1
     4    2    3 1
     5    3    6 2
     6    3   14 1
     7    4    5 2
     8    5    6 1
     9    5    9 1
    10    6    7 1
    11    7    8 1
    12    8    9 2
    13    8   10 1
    14   10   11 1
    15   10   12 2
    16   14   15 1
    17   15   16 1
    18   16   17 am
    19   16   18 2
    20   17   19 1
    21   17   23 1
    22   19   20 1
    23   20   21 1
    24   21   22 1
    25   22   23 1
    26    2   24 1
    27    4   25 1
    28    9   26 1
    29   15   27 1
    30   15   28 1
    31   19   29 1
    32   19   30 1
    33   20   31 1
    34   20   32 1
    35   21   33 1
    36   21   34 1
    37   22   35 1
    38   22   36 1
    39   23   37 1
    40   23   38 1
@<TRIPOS>PROPERTY_DATA
  Total_Score	| 8.9985
  Crash		| -1.3565
  Polar		| 5.2451
  FragIndex	| 1
  FragRMSD	| 0.186

