@<TRIPOS>MOLECULE
BindingDB_50345233
 20 21 0 0 0
SMALL
NO_CHARGES


@<TRIPOS>ATOM
1    C        23.4027   37.6154    0.3632  C     
2    C        22.6301   36.9892   -0.6545  C     
3    C        22.2694   35.6301   -0.5696  C     
4    C        23.8013   36.8420    1.4832  C     
5    C        23.4285   35.4874    1.5514  C     
6    C        22.6811   34.8879    0.5519  C     
7    O        22.4295   33.5787    0.8340  O     
8    C        23.0552   33.4158    2.0168  C     
9    C        23.6522   34.5289    2.4588  C     
10   C        23.0875   32.1868    2.6476  C     
11   O        22.4152   31.1367    2.1343  O     
12   O        23.7262   32.0049    3.8254  O     
13   C        23.7701   39.0521    0.2190  C     
14   F        24.5530   39.5396    1.2372  F     
15   F        24.4726   39.2479   -0.9481  F     
16   F        22.6337   39.8234    0.1792  F     
17   H        22.3242   37.5266   -1.4703  H     
18   H        21.7120   35.1892   -1.3026  H     
19   H        24.3584   37.2433    2.2435  H     
20   H        24.1836   34.6277    3.2927  H     
@<TRIPOS>BOND
     1    1    2 2
     2    1    4 1
     3    1   13 1
     4    2    3 1
     5    3    6 2
     6    4    5 2
     7    5    6 1
     8    5    9 1
     9    6    7 1
    10    7    8 1
    11    8    9 2
    12    8   10 1
    13   10   11 1
    14   10   12 2
    15   13   14 1
    16   13   15 1
    17   13   16 1
    18    2   17 1
    19    3   18 1
    20    4   19 1
    21    9   20 1
@<TRIPOS>PROPERTY_DATA
  Total_Score	| 4.5719
  Crash		| -0.5423
  Polar		| 2.5148
  FragIndex	| 1
  FragRMSD	| 0.947

