@<TRIPOS>MOLECULE
BindingDB_50345230
 17 18 0 0 0
SMALL
NO_CHARGES


@<TRIPOS>ATOM
1    O        23.7769   31.9779    3.7740  O     
2    O        22.3734   31.1898    2.1062  O     
3    C        23.4596   37.6765    0.5127  C     
4    C        22.6819   37.1146   -0.5239  C     
5    C        23.8704   36.8864    1.6062  C     
6    C        22.3091   35.7528   -0.4743  C     
7    C        23.7188   34.5329    2.5014  C     
8    O        22.4397   33.6619    0.8684  O     
9    C        23.0932   32.2088    2.6304  C     
10   C        23.0810   33.4505    2.0374  C     
11   C        23.4901   35.5312    1.6319  C     
12   C        22.7131   34.9737    0.6239  C     
13   H        23.7324   38.6588    0.4666  H     
14   H        22.3935   37.6899   -1.3167  H     
15   H        24.4457   37.2810    2.3539  H     
16   H        21.7424   35.3399   -1.2197  H     
17   H        24.2693   34.6002    3.3265  H     
@<TRIPOS>BOND
     1    1    9 1
     2    2    9 2
     3    3    4 2
     4    3    5 1
     5    4    6 1
     6    5   11 2
     7    6   12 2
     8    7   10 2
     9    7   11 1
    10    8   10 1
    11    8   12 1
    12    9   10 1
    13   11   12 1
    14    3   13 1
    15    4   14 1
    16    5   15 1
    17    6   16 1
    18    7   17 1
@<TRIPOS>PROPERTY_DATA
  Total_Score	| 3.5846
  Crash		| -0.3848
  Polar		| 2.6147
  FragIndex	| 1
  FragRMSD	| 0.126

