@<TRIPOS>MOLECULE
BindingDB_50345259
 38 40 0 0 0
SMALL
NO_CHARGES


@<TRIPOS>ATOM
1    C        23.4110   37.5720    0.2286  C     
2    C        22.5869   36.9843   -0.7590  C     
3    C        22.2403   35.6034   -0.6841  C     
4    C        23.8499   36.8188    1.3345  C     
5    C        23.4433   35.4791    1.4368  C     
6    C        22.6500   34.8850    0.4569  C     
7    O        22.2916   33.6215    0.8382  O     
8    C        23.0009   33.4395    1.9866  C     
9    C        23.6691   34.5335    2.3652  C     
10   C        23.0472   32.2101    2.6092  C     
11   O        23.7604   32.0105    3.7396  O     
12   O        22.3450   31.1639    2.1144  O     
13   Br       23.9618   39.3362    0.0315  Br    
14   N        21.5068   35.0735   -1.6867  N     
15   C        21.9051   34.0303   -2.5968  C     
16   C        23.0452   33.0470   -2.1281  C     
17   C        23.4631   32.0101   -3.2124  C     
18   C        23.8500   32.6927   -4.5455  C     
19   C        22.7210   33.6388   -5.0318  C     
20   C        22.2922   34.6769   -3.9559  C     
21   N        25.1380   33.3949   -4.4362  N     
22   H        22.3035   37.5403   -1.5724  H     
23   H        24.4493   37.2354    2.0512  H     
24   H        24.2673   34.6265    3.1555  H     
25   H        20.8739   35.7107   -2.1086  H     
26   H        21.0193   33.4422   -2.7571  H     
27   H        23.9275   33.6063   -1.8404  H     
28   H        22.6785   32.4568   -1.2876  H     
29   H        24.3057   31.4276   -2.8248  H     
30   H        22.6269   31.3262   -3.3763  H     
31   H        23.9905   31.9045   -5.2895  H     
32   H        23.0549   34.1631   -5.9342  H     
33   H        21.8494   33.0367   -5.3028  H     
34   H        21.4258   35.2268   -4.3435  H     
35   H        23.1048   35.3949   -3.8127  H     
36   H        25.0609   34.1792   -3.7790  H     
37   H        25.4108   33.7448   -5.3571  H     
38   H        25.8467   32.7400   -4.1014  H     
@<TRIPOS>BOND
     1    1    2 2
     2    1    4 1
     3    1   13 1
     4    2    3 1
     5    3    6 2
     6    3   14 1
     7    4    5 2
     8    5    6 1
     9    5    9 1
    10    6    7 1
    11    7    8 1
    12    8    9 2
    13    8   10 1
    14   10   11 1
    15   10   12 2
    16   15   14 1
    17   15   16 1
    18   15   20 1
    19   16   17 1
    20   17   18 1
    21   18   19 1
    22   18   21 1
    23   19   20 1
    24    2   22 1
    25    4   23 1
    26    9   24 1
    27   14   25 1
    28   15   26 1
    29   16   27 1
    30   16   28 1
    31   17   29 1
    32   17   30 1
    33   18   31 1
    34   19   32 1
    35   19   33 1
    36   20   34 1
    37   20   35 1
    38   21   36 1
    39   21   37 1
    40   21   38 1
@<TRIPOS>PROPERTY_DATA
  Total_Score	| 9.0098
  Crash		| -0.7495
  Polar		| 5.5129
  FragIndex	| 1
  FragRMSD	| 0.122

