@<TRIPOS>MOLECULE
BindingDB_50345234
 21 22 0 0 0
SMALL
NO_CHARGES


@<TRIPOS>ATOM
1    C        22.8544   37.5924    0.2335  C     
2    C        22.2488   36.8566   -0.8135  C     
3    C        22.1151   35.4563   -0.7226  C     
4    C        23.3185   36.9232    1.3906  C     
5    C        23.1734   35.5246    1.4621  C     
6    C        22.5757   34.8052    0.4336  C     
7    O        22.4754   33.4819    0.7333  O     
8    C        23.0284   33.4264    1.9612  C     
9    C        23.4642   34.6115    2.4057  C     
10   C        23.1112   32.2277    2.6354  C     
11   O        23.7587   32.1152    3.8180  O     
12   O        22.4755   31.1336    2.1583  O     
13   O        22.8782   38.9577    0.1451  O     
14   C        24.0715   39.5279   -0.4257  C     
15   F        23.7929   40.8456   -0.6749  F     
16   F        25.1217   39.4783    0.4598  F     
17   F        24.4587   38.9617   -1.6222  F     
18   H        21.8851   37.3437   -1.6363  H     
19   H        21.6608   34.9248   -1.4692  H     
20   H        23.7230   37.4446    2.1714  H     
21   H        23.8954   34.8006    3.2802  H     
@<TRIPOS>BOND
     1    1    2 2
     2    1    4 1
     3    1   13 1
     4    2    3 1
     5    3    6 2
     6    4    5 2
     7    5    6 1
     8    5    9 1
     9    6    7 1
    10    7    8 1
    11    8    9 2
    12    8   10 1
    13   10   11 1
    14   10   12 2
    15   13   14 1
    16   14   15 1
    17   14   16 1
    18   14   17 1
    19    2   18 1
    20    3   19 1
    21    4   20 1
    22    9   21 1
@<TRIPOS>PROPERTY_DATA
  Total_Score	| 4.1200
  Crash		| -0.6665
  Polar		| 2.4840
  FragIndex	| 1
  FragRMSD	| 0.328

