@<TRIPOS>MOLECULE
BindingDB_50345231
 17 18 0 0 0
SMALL
NO_CHARGES


@<TRIPOS>ATOM
1    C        23.0653   33.4199    2.0585  C     
2    O        22.4248   33.6774    0.8864  O     
3    C        23.7338   34.5691    2.4800  C     
4    C        23.4703   35.5525    1.5407  C     
5    C        23.0829   32.1713    2.6935  C     
6    C        22.6626   34.9708    0.5639  C     
7    C        23.8615   36.9003    1.4557  C     
8    O        23.7605   31.9876    3.8495  O     
9    C        22.2193   35.7167   -0.5418  C     
10   C        23.4212   37.6569    0.3482  C     
11   O        22.3730   31.1397    2.1886  O     
12   C        22.6034   37.0712   -0.6435  C     
13   Br       23.9280   39.4387    0.1898  Br    
14   H        24.3074   34.6747    3.3201  H     
15   H        24.4612   37.3160    2.1719  H     
16   H        21.6211   35.2882   -1.2496  H     
17   H        22.2866   37.6281   -1.4403  H     
@<TRIPOS>BOND
     1    1    2 1
     2    1    3 2
     3    1    5 1
     4    2    6 1
     5    3    4 1
     6    4    6 2
     7    4    7 1
     8    5    8 1
     9    5   11 2
    10    6    9 1
    11    7   10 2
    12    9   12 2
    13   10   12 1
    14   10   13 1
    15    3   14 1
    16    7   15 1
    17    9   16 1
    18   12   17 1
@<TRIPOS>PROPERTY_DATA
  Total_Score	| 3.8201
  Crash		| -0.7218
  Polar		| 2.5401
  FragIndex	| 1
  FragRMSD	| 0.071

