@<TRIPOS>MOLECULE
BindingDB_50345232
 21 22 0 0 0
SMALL
NO_CHARGES


@<TRIPOS>ATOM
1    O        22.4168   33.5951    0.8230  O     
2    C        23.0247   33.4236    2.0157  C     
3    C        23.5824   34.5430    2.4891  C     
4    C        23.3660   35.5148    1.5865  C     
5    C        22.6587   34.9115    0.5535  C     
6    C        22.2986   35.6335   -0.6033  C     
7    C        22.6944   36.9951   -0.6790  C     
8    C        23.4086   37.6052    0.3769  C     
9    C        23.7404   36.8680    1.5315  C     
10   Br       23.9554   39.3751    0.2159  Br    
11   O        21.6346   34.9306   -1.5818  O     
12   C        20.9274   35.6405   -2.6169  C     
13   C        23.0719   32.1901    2.6296  C     
14   O        22.3977   31.1377    2.1146  O     
15   O        23.7601   31.9936    3.7792  O     
16   H        24.0869   34.6459    3.3379  H     
17   H        22.4772   37.5474   -1.5093  H     
18   H        24.2678   37.2985    2.2934  H     
19   H        20.2404   36.3824   -2.1994  H     
20   H        20.3461   34.9160   -3.1869  H     
21   H        21.6236   36.1300   -3.3043  H     
@<TRIPOS>BOND
     1    1    2 1
     2    1    5 1
     3    2    3 2
     4    2   13 1
     5    3    4 1
     6    4    5 1
     7    4    9 2
     8    5    6 2
     9    6    7 1
    10    6   11 1
    11    7    8 2
    12    8    9 1
    13    8   10 1
    14   11   12 1
    15   13   14 2
    16   13   15 1
    17    3   16 1
    18    7   17 1
    19    9   18 1
    20   12   19 1
    21   12   20 1
    22   12   21 1
@<TRIPOS>PROPERTY_DATA
  Total_Score	| 5.0480
  Crash		| -0.6739
  Polar		| 2.5996
  FragIndex	| 1
  FragRMSD	| 0.079

