@<TRIPOS>MOLECULE
BindingDB_50345252
 33 35 0 0 0
SMALL
NO_CHARGES


@<TRIPOS>ATOM
1    C        23.5421   37.6764    0.5088  C     
2    C        22.7979   37.1255   -0.5594  C     
3    C        22.3667   35.7753   -0.5265  C     
4    C        23.8728   36.8944    1.6302  C     
5    C        23.4583   35.5547    1.6434  C     
6    C        22.7260   35.0029    0.5987  C     
7    O        22.4511   33.6850    0.8440  O     
8    C        23.0390   33.4765    2.0444  C     
9    C        23.6375   34.5657    2.5353  C     
10   C        23.0390   32.2453    2.6533  C     
11   O        23.6623   32.0346    3.8316  O     
12   O        22.3611   31.2111    2.1088  O     
13   Br       24.1166   39.4436    0.4257  Br    
14   O        21.6437   35.1386   -1.5142  O     
15   C        21.1538   35.8803   -2.6478  C     
16   C        20.5869   34.9586   -3.7662  C     
17   C        21.2952   33.6510   -3.8995  C     
18   C        21.9511   33.2734   -5.0979  C     
19   C        22.6298   32.0426   -5.1577  C     
20   N        22.6562   31.2297   -4.0716  N     
21   C        22.0301   31.5439   -2.9089  C     
22   C        21.3177   32.7525   -2.8078  C     
23   H        22.5805   37.7140   -1.3622  H     
24   H        24.4149   37.2840    2.4051  H     
25   H        24.1374   34.6476    3.3894  H     
26   H        20.3568   36.5482   -2.3246  H     
27   H        21.9582   36.4758   -3.0777  H     
28   H        19.5284   34.7547   -3.5894  H     
29   H        20.6411   35.5153   -4.7117  H     
30   H        21.9413   33.8855   -5.9166  H     
31   H        23.1105   31.7600   -6.0094  H     
32   H        22.0666   30.9004   -2.1190  H     
33   H        20.8150   32.9664   -1.9427  H     
@<TRIPOS>BOND
     1    1    2 2
     2    1    4 1
     3    1   13 1
     4    2    3 1
     5    3    6 2
     6    3   14 1
     7    4    5 2
     8    5    6 1
     9    5    9 1
    10    6    7 1
    11    7    8 1
    12    8    9 2
    13    8   10 1
    14   10   11 1
    15   10   12 2
    16   14   15 1
    17   15   16 1
    18   16   17 1
    19   17   18 2
    20   17   22 1
    21   18   19 1
    22   19   20 2
    23   20   21 1
    24   21   22 2
    25    2   23 1
    26    4   24 1
    27    9   25 1
    28   15   26 1
    29   15   27 1
    30   16   28 1
    31   16   29 1
    32   18   30 1
    33   19   31 1
    34   21   32 1
    35   22   33 1
@<TRIPOS>PROPERTY_DATA
  Total_Score	| 6.6535
  Crash		| -1.2901
  Polar		| 2.4696
  FragIndex	| 1
  FragRMSD	| 0.186

