@<TRIPOS>MOLECULE
BindingDB_50345253
 41 43 0 0 0
SMALL
NO_CHARGES


@<TRIPOS>ATOM
1    C        23.4151   37.6289    0.3037  C     
2    C        22.6253   37.0391   -0.7119  C     
3    C        22.2283   35.6778   -0.6284  C     
4    C        23.7809   36.8849    1.4503  C     
5    C        23.3455   35.5577    1.5374  C     
6    C        22.5914   34.9664    0.5305  C     
7    O        22.3463   33.6550    0.8021  O     
8    C        22.9769   33.4837    1.9799  C     
9    C        23.5744   34.5909    2.4379  C     
10   C        23.0411   32.2345    2.5597  C     
11   O        22.2991   31.2106    2.0828  O     
12   O        23.7390   32.0190    3.6961  O     
13   Br       24.0617   39.3590    0.0845  Br    
14   N        21.5504   34.9910   -1.5842  N     
15   C        21.5595   35.2926   -2.9926  C     
16   C        21.3359   34.0163   -3.8544  C     
17   C        22.2973   32.8155   -3.5587  C     
18   C        22.6268   32.0154   -4.8670  C     
19   C        23.7444   32.6955   -5.7084  C     
20   N        24.9444   32.9699   -4.8883  N     
21   C        24.6850   33.8144   -3.7042  C     
22   C        23.6250   33.1613   -2.7928  C     
23   H        22.3913   37.5924   -1.5367  H     
24   H        24.3484   37.2964    2.1958  H     
25   H        24.1269   34.6771    3.2633  H     
26   H        21.1046   34.1770   -1.2996  H     
27   H        20.7877   36.0383   -3.2024  H     
28   H        22.5321   35.6976   -3.3010  H     
29   H        20.3030   33.6785   -3.7055  H     
30   H        21.4202   34.3181   -4.9058  H     
31   H        21.7406   32.1287   -2.9057  H     
32   H        22.9452   31.0012   -4.5955  H     
33   H        21.7319   31.9192   -5.4895  H     
34   H        24.0276   32.0319   -6.5301  H     
35   H        23.3811   33.6364   -6.1427  H     
36   H        25.3470   32.0779   -4.5678  H     
37   H        25.6238   33.4506   -5.4749  H     
38   H        25.6179   33.9416   -3.1504  H     
39   H        24.3542   34.8035   -4.0408  H     
40   H        23.4370   33.8432   -1.9572  H     
41   H        24.0439   32.2383   -2.3802  H     
@<TRIPOS>BOND
     1    1    2 2
     2    1    4 1
     3    1   13 1
     4    2    3 1
     5    3    6 2
     6    3   14 1
     7    4    5 2
     8    5    6 1
     9    5    9 1
    10    6    7 1
    11    7    8 1
    12    8    9 2
    13    8   10 1
    14   10   11 1
    15   10   12 2
    16   14   15 1
    17   15   16 1
    18   16   17 1
    19   17   18 1
    20   17   22 1
    21   18   19 1
    22   19   20 1
    23   20   21 1
    24   21   22 1
    25    2   23 1
    26    4   24 1
    27    9   25 1
    28   14   26 1
    29   15   27 1
    30   15   28 1
    31   16   29 1
    32   16   30 1
    33   17   31 1
    34   18   32 1
    35   18   33 1
    36   19   34 1
    37   19   35 1
    38   20   36 1
    39   20   37 1
    40   21   38 1
    41   21   39 1
    42   22   40 1
    43   22   41 1
@<TRIPOS>PROPERTY_DATA
  Total_Score	| 8.9013
  Crash		| -1.3661
  Polar		| 5.8238
  FragIndex	| 1
  FragRMSD	| 0.917

