@<TRIPOS>MOLECULE
BindingDB_50345247
 37 39 0 0 0
SMALL
NO_CHARGES


@<TRIPOS>ATOM
1    C        23.3249   37.5786    0.3091  C     
2    C        22.5126   36.9931   -0.7003  C     
3    C        22.1930   35.6174   -0.6718  C     
4    C        23.7594   36.7963    1.3974  C     
5    C        23.4078   35.4390    1.4366  C     
6    C        22.6365   34.8572    0.4377  C     
7    O        22.4014   33.5404    0.7058  O     
8    C        23.0285   33.3752    1.8937  C     
9    C        23.6451   34.4763    2.3353  C     
10   C        23.0272   32.1633    2.5559  C     
11   O        23.6373   32.0115    3.7567  O     
12   O        22.3216   31.1160    2.0730  O     
13   Br       23.7854   39.3836    0.2098  Br    
14   O        21.3165   35.0503   -1.5656  O     
15   C        21.6145   35.0449   -2.9794  C     
16   C        22.6016   33.9207   -3.4157  C     
17   C        22.4799   33.6058   -4.9432  C     
18   C        23.4783   32.5019   -5.3795  C     
19   N        24.8713   32.8376   -5.0023  N     
20   C        25.0494   33.1540   -3.5664  C     
21   C        24.0872   34.2675   -3.0869  C     
22   H        22.1343   37.5872   -1.4460  H     
23   H        24.3337   37.2033    2.1328  H     
24   H        24.1600   34.5684    3.1753  H     
25   H        20.6408   34.8613   -3.4497  H     
26   H        21.9564   36.0194   -3.3502  H     
27   H        22.3352   33.0068   -2.8699  H     
28   H        21.4684   33.2651   -5.1746  H     
29   H        22.6764   34.5111   -5.5231  H     
30   H        23.1912   31.5491   -4.9220  H     
31   H        23.4331   32.3765   -6.4634  H     
32   H        25.4712   32.0318   -5.1956  H     
33   H        25.2066   33.6241   -5.5680  H     
34   H        24.8794   32.2465   -2.9805  H     
35   H        26.0855   33.4685   -3.4071  H     
36   H        24.3743   35.2111   -3.5656  H     
37   H        24.2158   34.3855   -2.0099  H     
@<TRIPOS>BOND
     1    1    2 2
     2    1    4 1
     3    1   13 1
     4    2    3 1
     5    3    6 2
     6    3   14 1
     7    4    5 2
     8    5    6 1
     9    5    9 1
    10    6    7 1
    11    7    8 1
    12    8    9 2
    13    8   10 1
    14   10   11 1
    15   10   12 2
    16   14   15 1
    17   15   16 1
    18   16   17 1
    19   16   21 1
    20   17   18 1
    21   18   19 1
    22   19   20 1
    23   20   21 1
    24    2   22 1
    25    4   23 1
    26    9   24 1
    27   15   25 1
    28   15   26 1
    29   16   27 1
    30   17   28 1
    31   17   29 1
    32   18   30 1
    33   18   31 1
    34   19   32 1
    35   19   33 1
    36   20   34 1
    37   20   35 1
    38   21   36 1
    39   21   37 1
@<TRIPOS>PROPERTY_DATA
  Total_Score	| 7.7312
  Crash		| -1.0135
  Polar		| 4.9851
  FragIndex	| 1
  FragRMSD	| 0.295

