@<TRIPOS>MOLECULE
BindingDB_50345248
 30 32 0 0 0
SMALL
NO_CHARGES


@<TRIPOS>ATOM
1    C        23.4688   37.5590    0.3901  C     
2    C        22.9547   36.9115   -0.7499  C     
3    C        22.5880   35.5408   -0.7119  C     
4    C        23.6602   36.8474    1.5887  C     
5    C        23.3039   35.4906    1.6124  C     
6    C        22.7710   34.8458    0.5027  C     
7    O        22.5562   33.5226    0.7713  O     
8    C        23.0152   33.4011    2.0344  C     
9    C        23.4521   34.5515    2.5524  C     
10   C        23.0906   32.1775    2.6614  C     
11   O        23.7376   32.0234    3.8377  O     
12   O        22.4130   31.1182    2.1731  O     
13   Br       23.9736   39.3388    0.2710  Br    
14   O        22.2858   34.7994   -1.8284  O     
15   C        21.0776   35.0560   -2.5909  C     
16   C        21.3569   34.7007   -4.0016  C     
17   C        21.4872   33.3444   -4.3961  C     
18   C        21.7546   33.0392   -5.7477  C     
19   N        21.8859   34.0422   -6.6572  N     
20   C        21.7842   35.3604   -6.3157  C     
21   C        21.5280   35.7181   -4.9773  C     
22   H        22.8946   37.4535   -1.6101  H     
23   H        24.0757   37.2927    2.4113  H     
24   H        23.8643   34.6812    3.4428  H     
25   H        20.2261   34.4711   -2.1881  H     
26   H        20.7754   36.1186   -2.5683  H     
27   H        21.3742   32.5853   -3.7240  H     
28   H        21.8479   32.0671   -6.0603  H     
29   H        21.8772   36.0788   -7.0350  H     
30   H        21.4568   36.7102   -4.7226  H     
@<TRIPOS>BOND
     1    1    2 2
     2    1    4 1
     3    1   13 1
     4    2    3 1
     5    3    6 2
     6    3   14 1
     7    4    5 2
     8    5    6 1
     9    5    9 1
    10    6    7 1
    11    7    8 1
    12    8    9 2
    13    8   10 1
    14   10   11 1
    15   10   12 2
    16   14   15 1
    17   15   16 1
    18   16   17 2
    19   16   21 1
    20   17   18 1
    21   18   19 2
    22   19   20 1
    23   20   21 2
    24    2   22 1
    25    4   23 1
    26    9   24 1
    27   15   25 1
    28   15   26 1
    29   17   27 1
    30   18   28 1
    31   20   29 1
    32   21   30 1
@<TRIPOS>PROPERTY_DATA
  Total_Score	| 5.6281
  Crash		| -0.8543
  Polar		| 2.5842
  FragIndex	| 1
  FragRMSD	| 0.295

