@<TRIPOS>MOLECULE
BindingDB_50339675
 56 58 0 0 0
SMALL
NO_CHARGES


@<TRIPOS>ATOM
1    C       -23.5064  -13.0879   72.2255  C     
2    S       -22.1900  -12.1072   71.4009  S     
3    C       -23.0573  -14.5346   72.0059  C     
4    C       -24.8750  -12.8820   71.5814  C     
5    C       -23.6716  -12.5422   73.6401  C     
6    C       -25.1238  -11.9440   70.5487  C     
7    C       -26.3919  -11.7943   69.9749  C     
8    C       -27.4906  -12.5307   70.4574  C     
9    C       -27.2668  -13.4829   71.4844  C     
10   C       -25.9710  -13.6740   72.0065  C     
11   C       -23.5872  -15.3559   70.9645  C     
12   C       -23.1074  -16.6473   70.6888  C     
13   C       -22.0599  -17.1818   71.4517  C     
14   C       -21.4658  -16.3976   72.4541  C     
15   C       -21.9511  -15.0973   72.7063  C     
16   C       -23.5315  -13.3354   74.8111  C     
17   C       -23.7109  -12.7980   76.1039  C     
18   C       -24.1241  -11.4697   76.2691  C     
19   C       -24.3659  -10.6800   75.1357  C     
20   C       -24.1391  -11.2106   73.8498  C     
21   C       -20.7504  -12.0411   72.4965  C     
22   C       -19.7323  -10.9664   72.0174  C     
23   C       -18.3884  -11.1235   72.6257  C     
24   O       -17.6079  -10.0269   72.8010  O     
25   O       -17.9123  -12.3102   73.0621  O     
26   N       -19.6061  -10.9749   70.5498  N     
27   C       -28.8567  -12.2092   69.9784  C     
28   C       -29.3423  -10.7955   70.4060  C     
29   C       -28.3021   -9.6422   70.3606  C     
30   H       -24.3972  -11.3363   70.1709  H     
31   H       -26.5217  -11.1159   69.2229  H     
32   H       -28.0412  -14.0394   71.8572  H     
33   H       -25.8540  -14.3839   72.7294  H     
34   H       -24.3300  -15.0000   70.3539  H     
35   H       -23.5259  -17.2041   69.9448  H     
36   H       -21.6953  -18.1220   71.2460  H     
37   H       -20.6730  -16.7675   72.9883  H     
38   H       -21.4614  -14.5441   73.4121  H     
39   H       -23.3138  -14.3267   74.7482  H     
40   H       -23.5511  -13.3884   76.9255  H     
41   H       -24.2643  -11.0814   77.2113  H     
42   H       -24.6836   -9.7115   75.2457  H     
43   H       -24.3354  -10.5957   73.0546  H     
44   H       -21.0690  -11.8169   73.5197  H     
45   H       -20.2762  -13.0220   72.4716  H     
46   H       -20.1083   -9.9810   72.3144  H     
47   H       -19.4658  -11.9353   70.2357  H     
48   H       -18.8272  -10.3873   70.2617  H     
49   H       -20.4717  -10.6066   70.1368  H     
50   H       -28.8873  -12.2963   68.8938  H     
51   H       -29.5679  -12.9427   70.3587  H     
52   H       -30.1812  -10.5159   69.7596  H     
53   H       -29.7185  -10.8581   71.4339  H     
54   H       -27.4774   -9.8286   71.0607  H     
55   H       -28.7900   -8.7217   70.6698  H     
56   H       -27.8976   -9.5217   69.3489  H     
@<TRIPOS>BOND
     1    1    2 1
     2    1    3 1
     3    1    4 1
     4    1    5 1
     5    2   21 1
     6    3   11 2
     7    3   15 1
     8    4    6 2
     9    4   10 1
    10    5   16 2
    11    5   20 1
    12    6    7 1
    13    7    8 2
    14    8    9 1
    15    8   27 1
    16    9   10 2
    17   11   12 1
    18   12   13 2
    19   13   14 1
    20   14   15 2
    21   16   17 1
    22   17   18 2
    23   18   19 1
    24   19   20 2
    25   21   22 1
    26   22   23 1
    27   22   26 1
    28   23   24 1
    29   23   25 2
    30   27   28 1
    31   28   29 1
    32    6   30 1
    33    7   31 1
    34    9   32 1
    35   10   33 1
    36   11   34 1
    37   12   35 1
    38   13   36 1
    39   14   37 1
    40   15   38 1
    41   16   39 1
    42   17   40 1
    43   18   41 1
    44   19   42 1
    45   20   43 1
    46   21   44 1
    47   21   45 1
    48   22   46 1
    49   26   47 1
    50   26   48 1
    51   26   49 1
    52   27   50 1
    53   27   51 1
    54   28   52 1
    55   28   53 1
    56   29   54 1
    57   29   55 1
    58   29   56 1
@<TRIPOS>PROPERTY_DATA
  Total_Score	| 9.3987
  Crash		| -4.2038
  Polar		| 5.5086
  FragIndex	| 1
  FragRMSD	| 0.919

