@<TRIPOS>MOLECULE
BindingDB_23822
 50 52 0 0 0
SMALL
NO_CHARGES


@<TRIPOS>ATOM
1    C       -25.1384  -11.9930   71.8189  C     
2    C       -25.7527  -10.6258   69.8493  C     
3    C       -27.1180  -10.8599   70.0702  C     
4    C       -27.5038  -11.6785   71.1431  C     
5    C       -26.5330  -12.2593   71.9721  C     
6    C       -24.7832  -11.1741   70.7118  C     
7    C       -24.7273  -12.7611   74.1084  C     
8    C       -25.4463  -13.9243   74.4971  C     
9    C       -26.0605  -14.0440   75.7555  C     
10   C       -25.9819  -12.9889   76.6746  C     
11   C       -25.3382  -11.7971   76.3095  C     
12   C       -24.7525  -11.6783   75.0350  C     
13   C       -21.3783  -12.0249   71.6518  C     
14   C       -24.0860  -12.6428   72.7249  C     
15   C       -23.5473  -13.9678   72.1964  C     
16   C       -22.2639  -16.3630   71.2391  C     
17   C       -22.9358  -15.4990   70.3518  C     
18   C       -23.5760  -14.3371   70.8220  C     
19   C       -22.8838  -14.8758   73.0719  C     
20   C       -22.2694  -16.0510   72.6097  C     
21   C       -20.2328  -10.9698   71.5775  C     
22   C       -19.1995  -11.0914   72.6355  C     
23   O       -18.4131  -10.0248   72.8807  O     
24   S       -22.5645  -11.6098   72.9592  S     
25   N       -19.5518  -11.0600   70.2839  N     
26   O       -18.6589  -12.3083   72.9047  O     
27   C       -21.5192  -17.5347   70.7220  C     
28   H       -25.4658  -10.0478   69.0580  H     
29   H       -27.8246  -10.4398   69.4602  H     
30   H       -28.4978  -11.8583   71.3123  H     
31   H       -26.8736  -12.8823   72.7078  H     
32   H       -23.8098  -10.9507   70.5088  H     
33   H       -25.5662  -14.7027   73.8475  H     
34   H       -26.5773  -14.8933   75.9955  H     
35   H       -26.4223  -13.0764   77.5925  H     
36   H       -25.3162  -11.0124   76.9658  H     
37   H       -24.3500  -10.7739   74.7893  H     
38   H       -21.8918  -12.0837   70.6924  H     
39   H       -20.9571  -13.0103   71.8592  H     
40   H       -22.9501  -15.7048   69.3473  H     
41   H       -24.0249  -13.7354   70.1290  H     
42   H       -22.8170  -14.6667   74.0712  H     
43   H       -21.8053  -16.6671   73.2837  H     
44   H       -20.6616   -9.9643   71.6463  H     
45   H       -19.3041  -12.0317   70.0971  H     
46   H       -18.7020  -10.4791   70.2960  H     
47   H       -20.1857  -10.7176   69.5522  H     
48   H       -22.1908  -18.1968   70.1733  H     
49   H       -21.0516  -18.1101   71.5227  H     
50   H       -20.7290  -17.1924   70.0502  H     
@<TRIPOS>BOND
     1    1    5 2
     2    1    6 1
     3    1   14 1
     4    2    3 1
     5    2    6 2
     6    3    4 2
     7    4    5 1
     8    7    8 1
     9    7   12 2
    10    7   14 1
    11    8    9 2
    12    9   10 1
    13   10   11 2
    14   11   12 1
    15   13   21 1
    16   13   24 1
    17   14   15 1
    18   14   24 1
    19   15   18 2
    20   15   19 1
    21   16   17 2
    22   16   20 1
    23   16   27 1
    24   17   18 1
    25   19   20 2
    26   21   22 1
    27   21   25 1
    28   22   23 2
    29   22   26 1
    30    2   28 1
    31    3   29 1
    32    4   30 1
    33    5   31 1
    34    6   32 1
    35    8   33 1
    36    9   34 1
    37   10   35 1
    38   11   36 1
    39   12   37 1
    40   13   38 1
    41   13   39 1
    42   17   40 1
    43   18   41 1
    44   19   42 1
    45   20   43 1
    46   21   44 1
    47   25   45 1
    48   25   46 1
    49   25   47 1
    50   27   48 1
    51   27   49 1
    52   27   50 1
@<TRIPOS>PROPERTY_DATA
  Total_Score	| 10.5072
  Crash		| -2.3025
  Polar		| 4.3017
  FragIndex	| 1
  FragRMSD	| 1.102

