@<TRIPOS>MOLECULE
BindingDB_23830
 56 58 0 0 0
SMALL
NO_CHARGES


@<TRIPOS>ATOM
1    C       -25.3144  -12.4729   71.5482  C     
2    C       -27.6290  -13.1194   70.9383  C     
3    C       -27.9221  -11.8056   70.5106  C     
4    C       -26.9116  -10.8284   70.6079  C     
5    C       -25.6428  -11.1509   71.1351  C     
6    C       -26.3566  -13.4411   71.4532  C     
7    C       -24.2536  -12.3814   73.6850  C     
8    C       -23.8651  -11.1348   74.2507  C     
9    C       -24.1299  -10.8139   75.5941  C     
10   C       -24.8475  -11.6952   76.4193  C     
11   C       -25.2851  -12.9221   75.8739  C     
12   C       -24.9799  -13.2556   74.5399  C     
13   C       -21.1538  -12.1564   72.3300  C     
14   C       -23.9852  -12.7894   72.2361  C     
15   C       -23.5161  -14.2253   72.0532  C     
16   C       -22.4211  -16.8409   71.5498  C     
17   C       -22.2924  -16.2357   72.8152  C     
18   C       -22.8289  -14.9540   73.0585  C     
19   C       -23.6415  -14.8653   70.7831  C     
20   C       -23.1161  -16.1491   70.5349  C     
21   C       -20.0902  -11.0550   72.0751  C     
22   C       -18.9246  -11.1923   72.9793  C     
23   O       -18.6111  -10.1857   73.8261  O     
24   S       -22.6639  -11.8453   71.3612  S     
25   N       -19.6601  -11.0812   70.6667  N     
26   O       -18.1452  -12.2955   73.0029  O     
27   C       -29.2840  -11.4754   70.0397  C     
28   C       -21.7844  -18.1487   71.2897  C     
29   C       -25.1183  -11.3251   77.8259  C     
30   H       -28.3463  -13.8437   70.9012  H     
31   H       -27.0923   -9.8604   70.3255  H     
32   H       -24.9742  -10.3907   71.2406  H     
33   H       -26.2122  -14.3926   71.7934  H     
34   H       -23.3822  -10.4279   73.6975  H     
35   H       -23.7981   -9.9183   75.9639  H     
36   H       -25.8104  -13.5904   76.4431  H     
37   H       -25.2845  -14.1691   74.1989  H     
38   H       -20.7491  -13.1314   72.0426  H     
39   H       -21.3896  -12.1893   73.3943  H     
40   H       -21.7822  -16.7133   73.5650  H     
41   H       -22.6580  -14.5467   73.9780  H     
42   H       -24.0987  -14.3812   70.0026  H     
43   H       -23.2159  -16.5549   69.5988  H     
44   H       -20.5441  -10.0771   72.2585  H     
45   H       -19.3922  -12.0394   70.4178  H     
46   H       -18.8655  -10.4508   70.5215  H     
47   H       -20.4386  -10.7851   70.0659  H     
48   H       -29.5209  -12.0763   69.1609  H     
49   H       -29.3838  -10.4220   69.7803  H     
50   H       -30.0156  -11.6984   70.8157  H     
51   H       -20.7113  -18.0525   71.4451  H     
52   H       -21.9504  -18.4950   70.2671  H     
53   H       -22.1804  -18.8958   71.9718  H     
54   H       -24.1771  -11.2942   78.3822  H     
55   H       -25.7806  -12.0413   78.3238  H     
56   H       -25.5893  -10.3361   77.8823  H     
@<TRIPOS>BOND
     1    1    5 2
     2    1    6 1
     3    1   14 1
     4    2    3 1
     5    2    6 2
     6    3    4 2
     7    3   27 1
     8    4    5 1
     9    7    8 1
    10    7   12 2
    11    7   14 1
    12    8    9 2
    13    9   10 1
    14   10   11 2
    15   10   29 1
    16   11   12 1
    17   13   21 1
    18   13   24 1
    19   14   15 1
    20   14   24 1
    21   15   18 2
    22   15   19 1
    23   16   17 2
    24   16   20 1
    25   16   28 1
    26   17   18 1
    27   19   20 2
    28   21   22 1
    29   21   25 1
    30   22   23 2
    31   22   26 1
    32    2   30 1
    33    4   31 1
    34    5   32 1
    35    6   33 1
    36    8   34 1
    37    9   35 1
    38   11   36 1
    39   12   37 1
    40   13   38 1
    41   13   39 1
    42   17   40 1
    43   18   41 1
    44   19   42 1
    45   20   43 1
    46   21   44 1
    47   25   45 1
    48   25   46 1
    49   25   47 1
    50   27   48 1
    51   27   49 1
    52   27   50 1
    53   28   51 1
    54   28   52 1
    55   28   53 1
    56   29   54 1
    57   29   55 1
    58   29   56 1
@<TRIPOS>PROPERTY_DATA
  Total_Score	| 10.5797
  Crash		| -2.1213
  Polar		| 5.3133
  FragIndex	| 1
  FragRMSD	| 0.428

