@<TRIPOS>MOLECULE
BindingDB_23828
 53 55 0 0 0
SMALL
NO_CHARGES


@<TRIPOS>ATOM
1    C       -25.2827  -12.4851   71.5857  C     
2    C       -27.6153  -13.1348   71.0923  C     
3    C       -27.9334  -11.8051   70.7326  C     
4    C       -26.9416  -10.8086   70.8438  C     
5    C       -25.6350  -11.1464   71.2573  C     
6    C       -26.3109  -13.4674   71.5126  C     
7    C       -24.2028  -12.4704   73.6366  C     
8    C       -24.0070  -11.1664   74.1823  C     
9    C       -24.4600  -10.8240   75.4697  C     
10   C       -25.1306  -11.7779   76.2547  C     
11   C       -25.3752  -13.0652   75.7370  C     
12   C       -24.9414  -13.3917   74.4404  C     
13   C       -21.1318  -12.0358   72.3208  C     
14   C       -23.9279  -12.8037   72.1848  C     
15   C       -23.4166  -14.2123   71.8867  C     
16   C       -22.3664  -16.8057   71.2510  C     
17   C       -22.3149  -16.3142   72.5716  C     
18   C       -22.8197  -15.0367   72.8793  C     
19   C       -23.4749  -14.7393   70.5670  C     
20   C       -22.9598  -16.0097   70.2518  C     
21   C       -20.0336  -11.0059   71.9559  C     
22   C       -18.7450  -11.2226   72.6521  C     
23   O       -18.3554  -12.4718   73.0048  O     
24   S       -22.6631  -11.7503   71.3645  S     
25   N       -19.7589  -11.0073   70.5011  N     
26   O       -17.7520  -10.3296   72.4533  O     
27   C       -29.2629  -11.5061   70.1723  C     
28   C       -21.8051  -18.1414   70.9548  C     
29   H       -28.3159  -13.8724   71.0608  H     
30   H       -27.1742   -9.8331   70.6554  H     
31   H       -24.9733  -10.3790   71.3821  H     
32   H       -26.1329  -14.4214   71.8135  H     
33   H       -23.5501  -10.4364   73.6375  H     
34   H       -24.3145   -9.8805   75.8400  H     
35   H       -25.4505  -11.5328   77.1975  H     
36   H       -25.8675  -13.7501   76.3121  H     
37   H       -25.1528  -14.3297   74.0921  H     
38   H       -20.7667  -13.0398   72.0975  H     
39   H       -21.3406  -11.9667   73.3911  H     
40   H       -21.8808  -16.8685   73.3088  H     
41   H       -22.6976  -14.6913   73.8345  H     
42   H       -23.8514  -14.1742   69.8065  H     
43   H       -22.9926  -16.3268   69.2782  H     
44   H       -20.3799   -9.9990   72.2203  H     
45   H       -19.5727  -11.9643   70.2020  H     
46   H       -18.9519  -10.4227   70.2874  H     
47   H       -20.5726  -10.6517   70.0021  H     
48   H       -29.3991  -12.0871   69.2531  H     
49   H       -29.3670  -10.4414   69.9408  H     
50   H       -30.0423  -11.7808   70.8830  H     
51   H       -20.7186  -18.0992   71.0558  H     
52   H       -22.0447  -18.4721   69.9429  H     
53   H       -22.2025  -18.8781   71.6580  H     
@<TRIPOS>BOND
     1    1    5 2
     2    1    6 1
     3    1   14 1
     4    2    3 1
     5    2    6 2
     6    3    4 2
     7    3   27 1
     8    4    5 1
     9    7    8 1
    10    7   12 2
    11    7   14 1
    12    8    9 2
    13    9   10 1
    14   10   11 2
    15   11   12 1
    16   13   21 1
    17   13   24 1
    18   14   15 1
    19   14   24 1
    20   15   18 2
    21   15   19 1
    22   16   17 2
    23   16   20 1
    24   16   28 1
    25   17   18 1
    26   19   20 2
    27   21   22 1
    28   21   25 1
    29   22   23 2
    30   22   26 1
    31    2   29 1
    32    4   30 1
    33    5   31 1
    34    6   32 1
    35    8   33 1
    36    9   34 1
    37   10   35 1
    38   11   36 1
    39   12   37 1
    40   13   38 1
    41   13   39 1
    42   17   40 1
    43   18   41 1
    44   19   42 1
    45   20   43 1
    46   21   44 1
    47   25   45 1
    48   25   46 1
    49   25   47 1
    50   27   48 1
    51   27   49 1
    52   27   50 1
    53   28   51 1
    54   28   52 1
    55   28   53 1
@<TRIPOS>PROPERTY_DATA
  Total_Score	| 10.6059
  Crash		| -2.0223
  Polar		| 4.9865
  FragIndex	| 1
  FragRMSD	| 0.564

