@<TRIPOS>MOLECULE
BindingDB_23772
 47 49 0 0 0
SMALL
NO_CHARGES


@<TRIPOS>ATOM
1    C       -21.2371  -12.0808   72.5002  C     
2    S       -22.6838  -11.7376   71.4492  S     
3    C       -24.0732  -12.7756   72.0930  C     
4    C       -23.5692  -14.1849   71.7688  C     
5    C       -23.0545  -15.9149   70.0805  C     
6    C       -23.5522  -14.6446   70.4254  C     
7    C       -22.9750  -15.0384   72.7415  C     
8    C       -22.4830  -16.3126   72.4041  C     
9    C       -22.5442  -16.7551   71.0761  C     
10   C       -25.4048  -12.4861   71.3763  C     
11   C       -27.7215  -13.1924   70.8038  C     
12   C       -27.9588  -11.9770   70.1523  C     
13   C       -26.9506  -10.9992   70.1261  C     
14   C       -25.7057  -11.2500   70.7402  C     
15   C       -26.4570  -13.4453   71.3850  C     
16   C       -24.3957  -12.4746   73.5569  C     
17   C       -24.2153  -11.1738   74.1276  C     
18   C       -24.6050  -10.8722   75.4471  C     
19   C       -25.1984  -11.8657   76.2468  C     
20   C       -25.4426  -13.1457   75.7029  C     
21   C       -25.0754  -13.4259   74.3740  C     
22   C       -20.1135  -11.0487   72.2029  C     
23   C       -18.8812  -11.2128   73.0102  C     
24   O       -18.5166  -10.1984   73.8460  O     
25   O       -18.1325  -12.3458   73.0084  O     
26   N       -19.7150  -11.0909   70.7797  N     
27   H       -21.5227  -12.0183   73.5504  H     
28   H       -20.8948  -13.0908   72.2782  H     
29   H       -23.0748  -16.2197   69.1082  H     
30   H       -23.9106  -14.0476   69.6756  H     
31   H       -22.8710  -14.7373   73.7091  H     
32   H       -22.0833  -16.9110   73.1351  H     
33   H       -22.1699  -17.6741   70.8216  H     
34   H       -28.4640  -13.8980   70.8560  H     
35   H       -28.8766  -11.7910   69.7254  H     
36   H       -27.1396  -10.0959   69.6771  H     
37   H       -25.0227  -10.5005   70.7018  H     
38   H       -26.3217  -14.3554   71.8229  H     
39   H       -23.8242  -10.4028   73.5806  H     
40   H       -24.4433   -9.9330   75.8393  H     
41   H       -25.4864  -11.6485   77.2068  H     
42   H       -25.9082  -13.8543   76.2806  H     
43   H       -25.2755  -14.3647   74.0242  H     
44   H       -20.5073  -10.0486   72.4150  H     
45   H       -19.4258  -12.0451   70.5378  H     
46   H       -18.9235  -10.4625   70.6234  H     
47   H       -20.5130  -10.8155   70.1930  H     
@<TRIPOS>BOND
     1    1    2 1
     2    1   22 1
     3    2    3 1
     4    3    4 1
     5    3   10 1
     6    3   16 1
     7    4    6 2
     8    4    7 1
     9    5    6 1
    10    5    9 2
    11    7    8 2
    12    8    9 1
    13   10   14 2
    14   10   15 1
    15   11   12 1
    16   11   15 2
    17   12   13 2
    18   13   14 1
    19   16   17 1
    20   16   21 2
    21   17   18 2
    22   18   19 1
    23   19   20 2
    24   20   21 1
    25   22   23 1
    26   22   26 1
    27   23   24 2
    28   23   25 1
    29    1   27 1
    30    1   28 1
    31    5   29 1
    32    6   30 1
    33    7   31 1
    34    8   32 1
    35    9   33 1
    36   11   34 1
    37   12   35 1
    38   13   36 1
    39   14   37 1
    40   15   38 1
    41   17   39 1
    42   18   40 1
    43   19   41 1
    44   20   42 1
    45   21   43 1
    46   22   44 1
    47   26   45 1
    48   26   46 1
    49   26   47 1
@<TRIPOS>PROPERTY_DATA
  Total_Score	| 9.4632
  Crash		| -1.1168
  Polar		| 5.3666
  FragIndex	| 1
  FragRMSD	| 0.424

