@<TRIPOS>MOLECULE
BindingDB_50339676
 53 55 0 0 0
SMALL
NO_CHARGES


@<TRIPOS>ATOM
1    C       -24.1564  -12.7881   72.2326  C     
2    S       -22.8311  -11.6632   71.6242  S     
3    C       -24.5402  -12.6034   73.6986  C     
4    C       -23.5955  -14.1743   71.9173  C     
5    C       -25.4251  -12.4401   71.4398  C     
6    C       -23.0126  -15.0232   72.8984  C     
7    C       -22.4741  -16.2821   72.5754  C     
8    C       -22.4672  -16.7434   71.2408  C     
9    C       -23.0160  -15.9044   70.2438  C     
10   C       -23.5472  -14.6419   70.5730  C     
11   C       -25.5100  -13.4754   74.2844  C     
12   C       -25.8917  -13.3782   75.6308  C     
13   C       -25.2738  -12.4331   76.4767  C     
14   C       -24.3108  -11.5646   75.9365  C     
15   C       -23.9693  -11.6360   74.5754  C     
16   C       -25.6690  -11.1238   70.9427  C     
17   C       -26.8655  -10.7849   70.2734  C     
18   C       -27.8806  -11.7371   70.1170  C     
19   C       -27.7013  -13.0257   70.6446  C     
20   C       -26.4908  -13.3726   71.2877  C     
21   C       -21.2693  -12.1757   72.4205  C     
22   C       -20.1872  -11.0844   72.1878  C     
23   C       -19.0154  -11.2456   73.0886  C     
24   O       -18.2089  -12.3314   73.0473  O     
25   O       -18.6982  -10.2544   73.9615  O     
26   N       -19.7530  -11.0776   70.7805  N     
27   C       -21.8860  -18.0694   70.9015  C     
28   C       -20.4838  -17.9320   70.2624  C     
29   H       -22.9384  -14.7373   73.8740  H     
30   H       -22.0736  -16.8531   73.3244  H     
31   H       -23.0235  -16.2003   69.2653  H     
32   H       -23.9055  -14.0559   69.8107  H     
33   H       -25.9371  -14.2255   73.7309  H     
34   H       -26.5875  -14.0186   76.0151  H     
35   H       -25.5254  -12.3828   77.4637  H     
36   H       -23.8464  -10.8770   76.5446  H     
37   H       -23.2642  -10.9754   74.2560  H     
38   H       -24.9801  -10.3786   71.0545  H     
39   H       -27.0064   -9.8290   69.9244  H     
40   H       -28.7661  -11.4864   69.6580  H     
41   H       -28.4601  -13.7099   70.5814  H     
42   H       -26.4154  -14.3277   71.6504  H     
43   H       -21.4351  -12.3356   73.4879  H     
44   H       -20.9491  -13.1225   71.9871  H     
45   H       -20.6158  -10.0954   72.3883  H     
46   H       -19.4912  -12.0279   70.5045  H     
47   H       -18.9554  -10.4449   70.6681  H     
48   H       -20.5274  -10.7543   70.1929  H     
49   H       -21.7958  -18.7052   71.7878  H     
50   H       -22.5588  -18.5830   70.2053  H     
51   H       -20.5236  -17.3289   69.3615  H     
52   H       -20.0981  -18.9209   69.9984  H     
53   H       -19.7918  -17.4702   70.9792  H     
@<TRIPOS>BOND
     1    1    2 1
     2    1    3 1
     3    1    4 1
     4    1    5 1
     5    2   21 1
     6    3   11 2
     7    3   15 1
     8    4    6 2
     9    4   10 1
    10    5   16 2
    11    5   20 1
    12    6    7 1
    13    7    8 2
    14    8    9 1
    15    8   27 1
    16    9   10 2
    17   11   12 1
    18   12   13 2
    19   13   14 1
    20   14   15 2
    21   16   17 1
    22   17   18 2
    23   18   19 1
    24   19   20 2
    25   21   22 1
    26   22   23 1
    27   22   26 1
    28   23   24 1
    29   23   25 2
    30   27   28 1
    31    6   29 1
    32    7   30 1
    33    9   31 1
    34   10   32 1
    35   11   33 1
    36   12   34 1
    37   13   35 1
    38   14   36 1
    39   15   37 1
    40   16   38 1
    41   17   39 1
    42   18   40 1
    43   19   41 1
    44   20   42 1
    45   21   43 1
    46   21   44 1
    47   22   45 1
    48   26   46 1
    49   26   47 1
    50   26   48 1
    51   27   49 1
    52   27   50 1
    53   28   51 1
    54   28   52 1
    55   28   53 1
@<TRIPOS>PROPERTY_DATA
  Total_Score	| 11.1867
  Crash		| -2.0832
  Polar		| 5.3755
  FragIndex	| 1
  FragRMSD	| 0.529

