@<TRIPOS>MOLECULE
BindingDB_23824
 51 53 0 0 0
SMALL
NO_CHARGES


@<TRIPOS>ATOM
1    C       -25.0648  -11.9976   71.8145  C     
2    C       -25.6660  -10.8244   69.7204  C     
3    C       -27.0332  -10.9902   69.9775  C     
4    C       -27.4315  -11.6754   71.1378  C     
5    C       -26.4672  -12.1911   72.0136  C     
6    C       -24.7040  -11.3096   70.6266  C     
7    C       -24.7076  -12.7165   74.1255  C     
8    C       -25.4553  -13.8728   74.4922  C     
9    C       -26.1021  -13.9760   75.7337  C     
10   C       -25.9993  -12.9345   76.6678  C     
11   C       -25.3195  -11.7597   76.3241  C     
12   C       -24.7175  -11.6429   75.0567  C     
13   C       -21.1840  -12.1522   71.9651  C     
14   C       -24.0336  -12.6053   72.7527  C     
15   C       -23.4516  -13.9193   72.2456  C     
16   C       -22.0078  -16.2396   71.3510  C     
17   C       -22.6454  -15.3871   70.4279  C     
18   C       -23.3613  -14.2537   70.8707  C     
19   C       -22.8339  -14.8193   73.1571  C     
20   C       -22.1361  -15.9585   72.7280  C     
21   C       -20.0956  -11.0592   71.8082  C     
22   C       -18.9973  -11.1887   72.7898  C     
23   O       -18.7389  -10.1878   73.6681  O     
24   S       -22.5440  -11.5371   73.0082  S     
25   N       -19.5472  -11.1072   70.4459  N     
26   O       -18.1982  -12.2834   72.8374  O     
27   C       -21.1452  -17.3652   70.9158  C     
28   O       -19.7911  -17.0854   71.2771  O     
29   H       -25.3720  -10.3458   68.8630  H     
30   H       -27.7335  -10.6195   69.3313  H     
31   H       -28.4325  -11.8035   71.3299  H     
32   H       -26.8086  -12.7123   72.8248  H     
33   H       -23.7260  -11.1515   70.3847  H     
34   H       -25.5557  -14.6578   73.8512  H     
35   H       -26.6494  -14.8116   75.9509  H     
36   H       -26.4434  -13.0274   77.5892  H     
37   H       -25.2712  -10.9859   76.9898  H     
38   H       -24.2675  -10.7570   74.8300  H     
39   H       -21.5804  -12.4356   70.9915  H     
40   H       -20.7466  -13.0511   72.4171  H     
41   H       -22.5513  -15.5573   69.4227  H     
42   H       -23.7805  -13.6552   70.1564  H     
43   H       -22.8468  -14.6246   74.1562  H     
44   H       -21.6631  -16.5381   73.4261  H     
45   H       -20.5582  -10.0712   71.9114  H     
46   H       -19.3208  -12.0746   70.2121  H     
47   H       -18.7068  -10.5215   70.3775  H     
48   H       -20.2569  -10.7567   69.7909  H     
49   H       -21.4664  -18.2927   71.3954  H     
50   H       -21.1821  -17.5132   69.8322  H     
51   H       -19.2459  -17.6965   70.7351  H     
@<TRIPOS>BOND
     1    1    5 2
     2    1    6 1
     3    1   14 1
     4    2    3 1
     5    2    6 2
     6    3    4 2
     7    4    5 1
     8    7    8 1
     9    7   12 2
    10    7   14 1
    11    8    9 2
    12    9   10 1
    13   10   11 2
    14   11   12 1
    15   13   21 1
    16   13   24 1
    17   14   15 1
    18   14   24 1
    19   15   18 2
    20   15   19 1
    21   16   17 2
    22   16   20 1
    23   16   27 1
    24   17   18 1
    25   19   20 2
    26   21   22 1
    27   21   25 1
    28   22   23 2
    29   22   26 1
    30   27   28 1
    31    2   29 1
    32    3   30 1
    33    4   31 1
    34    5   32 1
    35    6   33 1
    36    8   34 1
    37    9   35 1
    38   10   36 1
    39   11   37 1
    40   12   38 1
    41   13   39 1
    42   13   40 1
    43   17   41 1
    44   18   42 1
    45   19   43 1
    46   20   44 1
    47   21   45 1
    48   25   46 1
    49   25   47 1
    50   25   48 1
    51   27   49 1
    52   27   50 1
    53   28   51 1
@<TRIPOS>PROPERTY_DATA
  Total_Score	| 10.4964
  Crash		| -2.9189
  Polar		| 6.0545
  FragIndex	| 1
  FragRMSD	| 1.038

