@<TRIPOS>MOLECULE
BindingDB_23799
 53 55 0 0 0
SMALL
NO_CHARGES


@<TRIPOS>ATOM
1    C       -25.5056  -12.3435   71.4809  C     
2    C       -27.7803  -13.1836   70.9504  C     
3    C       -28.0742  -12.0108   70.2427  C     
4    C       -27.1128  -10.9930   70.1593  C     
5    C       -25.8607  -11.1506   70.7805  C     
6    C       -26.5166  -13.3484   71.5459  C     
7    C       -23.4557  -13.8103   71.6266  C     
8    C       -23.8089  -14.3906   70.3741  C     
9    C       -23.1594  -15.5345   69.8711  C     
10   C       -22.0999  -16.1193   70.5808  C     
11   C       -21.6878  -15.5445   71.7924  C     
12   C       -22.3537  -14.4155   72.2977  C     
13   S       -22.9766  -11.2183   71.8184  S     
14   C       -20.2386  -11.5887   72.2015  C     
15   N       -20.0418  -11.2465   70.7769  N     
16   C       -18.9301  -11.3672   72.8747  C     
17   O       -18.5645  -10.1422   73.3287  O     
18   O       -18.0148  -12.3602   72.9993  O     
19   C       -21.4918  -10.8783   72.8507  C     
20   C       -21.3550   -9.3193   72.7907  C     
21   C       -21.6545  -11.2627   74.3581  C     
22   C       -24.1653  -12.5805   72.1875  C     
23   C       -24.5893  -12.6193   73.6494  C     
24   C       -25.6995  -12.6266   76.2953  C     
25   C       -25.6113  -13.8163   75.5542  C     
26   C       -25.0588  -13.8135   74.2690  C     
27   C       -24.7632  -11.4205   74.4004  C     
28   C       -25.2808  -11.4206   75.7106  C     
29   H       -28.4841  -13.9221   71.0262  H     
30   H       -28.9841  -11.8926   69.7894  H     
31   H       -27.3277  -10.1228   69.6629  H     
32   H       -25.2211  -10.3577   70.7095  H     
33   H       -26.3302  -14.2324   72.0289  H     
34   H       -24.5474  -13.9852   69.7951  H     
35   H       -23.4572  -15.9390   68.9856  H     
36   H       -21.6286  -16.9486   70.2119  H     
37   H       -20.9016  -15.9518   72.3059  H     
38   H       -22.0306  -14.0445   73.1860  H     
39   H       -20.4300  -12.6604   72.2268  H     
40   H       -19.4909  -10.3858   70.6966  H     
41   H       -20.9418  -11.1067   70.3018  H     
42   H       -19.5470  -12.0215   70.3255  H     
43   H       -21.1749   -8.9744   71.7685  H     
44   H       -20.5334   -8.9633   73.4183  H     
45   H       -22.2617   -8.8253   73.1574  H     
46   H       -22.4711  -10.7108   74.8236  H     
47   H       -20.7497  -11.0215   74.9221  H     
48   H       -21.8344  -12.3256   74.4841  H     
49   H       -26.0933  -12.6408   77.2379  H     
50   H       -25.9877  -14.6848   75.9389  H     
51   H       -25.0607  -14.7021   73.7641  H     
52   H       -24.4936  -10.5206   73.9936  H     
53   H       -25.3658  -10.5453   76.2388  H     
@<TRIPOS>BOND
     1    1    5 2
     2    1    6 1
     3    1   22 1
     4    2    3 1
     5    2    6 2
     6    3    4 2
     7    4    5 1
     8    7    8 1
     9    7   12 2
    10    7   22 1
    11    8    9 2
    12    9   10 1
    13   10   11 2
    14   11   12 1
    15   13   19 1
    16   13   22 1
    17   14   15 1
    18   14   16 1
    19   14   19 1
    20   16   17 2
    21   16   18 1
    22   19   20 1
    23   19   21 1
    24   22   23 1
    25   23   26 2
    26   23   27 1
    27   24   25 2
    28   24   28 1
    29   25   26 1
    30   27   28 2
    31    2   29 1
    32    3   30 1
    33    4   31 1
    34    5   32 1
    35    6   33 1
    36    8   34 1
    37    9   35 1
    38   10   36 1
    39   11   37 1
    40   12   38 1
    41   14   39 1
    42   15   40 1
    43   15   41 1
    44   15   42 1
    45   20   43 1
    46   20   44 1
    47   20   45 1
    48   21   46 1
    49   21   47 1
    50   21   48 1
    51   24   49 1
    52   25   50 1
    53   26   51 1
    54   27   52 1
    55   28   53 1
@<TRIPOS>PROPERTY_DATA
  Total_Score	| 10.0624
  Crash		| -2.1408
  Polar		| 5.0330
  FragIndex	| 1
  FragRMSD	| 0.849

