@<TRIPOS>MOLECULE
BindingDB_23812
 51 53 0 0 0
SMALL
NO_CHARGES


@<TRIPOS>ATOM
1    C       -23.8421  -14.0733   71.7887  C     
2    C       -22.6541  -16.1742   72.3692  C     
3    C       -22.6685  -16.5773   71.0247  C     
4    C       -23.2260  -15.7323   70.0489  C     
5    C       -23.7731  -14.4900   70.4203  C     
6    C       -23.2283  -14.9401   72.7323  C     
7    C       -25.7353  -12.4309   71.4549  C     
8    C       -25.9676  -11.1916   70.7812  C     
9    C       -27.1742  -10.9345   70.1062  C     
10   C       -28.1976  -11.8946   70.0681  C     
11   C       -28.0072  -13.1244   70.7335  C     
12   C       -26.8046  -13.3817   71.3967  C     
13   C       -21.4468  -12.1629   71.8202  C     
14   C       -24.4569  -12.7477   72.2245  C     
15   C       -24.8999  -12.6898   73.7010  C     
16   C       -25.6927  -12.7391   76.4766  C     
17   C       -25.1166  -11.5839   75.9261  C     
18   C       -24.7515  -11.5492   74.5665  C     
19   C       -25.5546  -13.8190   74.2927  C     
20   C       -25.9669  -13.8358   75.6399  C     
21   C       -20.3669  -11.0156   71.7649  C     
22   C       -19.3625  -11.0488   72.8621  C     
23   O       -18.9792   -9.8887   73.4535  O     
24   S       -23.1260  -11.4924   71.9117  S     
25   N       -19.6765  -10.9923   70.4611  N     
26   O       -18.9291  -12.2374   73.3684  O     
27   C       -18.0621  -12.3770   74.5051  C     
28   H       -22.2284  -16.7704   73.0889  H     
29   H       -22.2608  -17.4807   70.7602  H     
30   H       -23.2105  -16.0191   69.0625  H     
31   H       -24.1291  -13.8911   69.6710  H     
32   H       -23.1697  -14.6654   73.7124  H     
33   H       -25.2674  -10.4465   70.7642  H     
34   H       -27.3231  -10.0423   69.6300  H     
35   H       -29.0875  -11.7069   69.5873  H     
36   H       -28.7428  -13.8325   70.7058  H     
37   H       -26.6956  -14.3035   71.8297  H     
38   H       -21.3707  -12.7743   70.9110  H     
39   H       -21.2581  -12.8094   72.6867  H     
40   H       -25.9575  -12.7613   77.4697  H     
41   H       -24.9503  -10.7596   76.5147  H     
42   H       -24.3121  -10.6827   74.2626  H     
43   H       -25.6752  -14.6951   73.7699  H     
44   H       -26.3982  -14.6780   76.0323  H     
45   H       -20.8490  -10.0334   71.8093  H     
46   H       -19.3733  -11.9381   70.2276  H     
47   H       -18.8695  -10.3583   70.4654  H     
48   H       -20.3391  -10.6833   69.7413  H     
49   H       -17.0584  -12.0197   74.2640  H     
50   H       -18.0097  -13.4259   74.8048  H     
51   H       -18.4431  -11.8121   75.3582  H     
@<TRIPOS>BOND
     1    1    5 2
     2    1    6 1
     3    1   14 1
     4    2    3 1
     5    2    6 2
     6    3    4 2
     7    4    5 1
     8    7    8 1
     9    7   12 2
    10    7   14 1
    11    8    9 2
    12    9   10 1
    13   10   11 2
    14   11   12 1
    15   13   21 1
    16   13   24 1
    17   14   15 1
    18   14   24 1
    19   15   18 2
    20   15   19 1
    21   16   17 2
    22   16   20 1
    23   17   18 1
    24   19   20 2
    25   21   22 1
    26   21   25 1
    27   22   23 2
    28   22   26 1
    29   26   27 1
    30    2   28 1
    31    3   29 1
    32    4   30 1
    33    5   31 1
    34    6   32 1
    35    8   33 1
    36    9   34 1
    37   10   35 1
    38   11   36 1
    39   12   37 1
    40   13   38 1
    41   13   39 1
    42   16   40 1
    43   17   41 1
    44   18   42 1
    45   19   43 1
    46   20   44 1
    47   21   45 1
    48   25   46 1
    49   25   47 1
    50   25   48 1
    51   27   49 1
    52   27   50 1
    53   27   51 1
@<TRIPOS>PROPERTY_DATA
  Total_Score	| 9.9697
  Crash		| -2.0927
  Polar		| 3.6962
  FragIndex	| 1
  FragRMSD	| 0.857

