@<TRIPOS>MOLECULE
BindingDB_23774
 40 41 0 0 0
SMALL
NO_CHARGES


@<TRIPOS>ATOM
1    C       -21.0898  -12.0687   72.3903  C     
2    S       -22.6165  -11.7543   71.4595  S     
3    C       -20.0145  -10.9960   72.0590  C     
4    C       -18.7941  -11.1427   72.8865  C     
5    O       -18.1794  -12.3350   73.0695  O     
6    O       -18.2391  -10.0637   73.4792  O     
7    N       -19.6482  -11.0443   70.6317  N     
8    C       -24.1358  -12.4952   73.6178  C     
9    C       -23.9131  -12.8813   72.1076  C     
10   C       -25.2784  -12.6663   71.4524  C     
11   C       -26.9081  -11.4082   70.0619  C     
12   C       -25.6234  -11.5560   70.6197  C     
13   C       -26.3150  -13.6151   71.6894  C     
14   C       -27.6038  -13.4706   71.1353  C     
15   C       -27.9024  -12.3655   70.3203  C     
16   C       -23.4137  -14.2868   71.8197  C     
17   C       -22.9300  -15.1604   72.8320  C     
18   C       -22.4515  -16.4482   72.5324  C     
19   C       -22.4222  -16.8996   71.2042  C     
20   C       -22.8922  -16.0594   70.1721  C     
21   C       -23.3500  -14.7655   70.4802  C     
22   H       -21.3092  -12.0538   73.4613  H     
23   H       -20.6951  -13.0525   72.1247  H     
24   H       -20.4398  -10.0067   72.2571  H     
25   H       -19.3654  -11.9988   70.3862  H     
26   H       -18.8722  -10.4028   70.4478  H     
27   H       -20.4553  -10.7733   70.0605  H     
28   H       -23.2256  -12.4998   74.2085  H     
29   H       -24.8313  -13.1879   74.1005  H     
30   H       -24.5593  -11.4879   73.7007  H     
31   H       -27.1241  -10.5936   69.4894  H     
32   H       -24.9469  -10.8214   70.4107  H     
33   H       -26.1441  -14.4280   72.2895  H     
34   H       -28.3295  -14.1656   71.3319  H     
35   H       -28.8354  -12.2512   69.9244  H     
36   H       -22.8988  -14.8739   73.8021  H     
37   H       -22.0924  -17.0495   73.2784  H     
38   H       -22.0845  -17.8426   70.9854  H     
39   H       -22.8657  -16.3858   69.2009  H     
40   H       -23.6544  -14.1691   69.7043  H     
@<TRIPOS>BOND
     1    1    2 1
     2    1    3 1
     3    2    9 1
     4    3    4 1
     5    3    7 1
     6    4    5 2
     7    4    6 1
     8    8    9 1
     9    9   10 1
    10    9   16 1
    11   10   12 2
    12   10   13 1
    13   11   12 1
    14   11   15 2
    15   13   14 2
    16   14   15 1
    17   16   17 1
    18   16   21 2
    19   17   18 2
    20   18   19 1
    21   19   20 2
    22   20   21 1
    23    1   22 1
    24    1   23 1
    25    3   24 1
    26    7   25 1
    27    7   26 1
    28    7   27 1
    29    8   28 1
    30    8   29 1
    31    8   30 1
    32   11   31 1
    33   12   32 1
    34   13   33 1
    35   14   34 1
    36   15   35 1
    37   17   36 1
    38   18   37 1
    39   19   38 1
    40   20   39 1
    41   21   40 1
@<TRIPOS>PROPERTY_DATA
  Total_Score	| 7.9829
  Crash		| -0.9289
  Polar		| 5.2877
  FragIndex	| 1
  FragRMSD	| 0.692

