@<TRIPOS>MOLECULE
BindingDB_50339672
 59 61 0 0 0
SMALL
NO_CHARGES


@<TRIPOS>ATOM
1    C       -23.9214  -12.7570   72.0158  C     
2    S       -22.5255  -11.8279   71.2611  S     
3    C       -25.2687  -12.4894   71.3716  C     
4    C       -24.1205  -12.2546   73.4277  C     
5    C       -23.4900  -14.1995   71.7835  C     
6    C       -23.9991  -10.8652   73.7054  C     
7    C       -23.9833  -10.3891   75.0353  C     
8    C       -24.1892  -11.2612   76.1440  C     
9    C       -24.5988  -12.5777   75.8169  C     
10   C       -24.5632  -13.0731   74.4965  C     
11   C       -25.6064  -11.2500   70.7595  C     
12   C       -26.8895  -11.0186   70.2190  C     
13   C       -27.8776  -12.0114   70.3065  C     
14   C       -27.5942  -13.2218   70.9527  C     
15   C       -26.3118  -13.4490   71.4914  C     
16   C       -22.8836  -15.0084   72.7817  C     
17   C       -22.4617  -16.3299   72.5063  C     
18   C       -22.6011  -16.8623   71.2152  C     
19   C       -23.1226  -16.0645   70.1907  C     
20   C       -23.5530  -14.7553   70.4742  C     
21   C       -21.1045  -12.0277   72.3725  C     
22   C       -20.0080  -10.9799   72.0334  C     
23   C       -18.8216  -11.1065   72.9068  C     
24   O       -18.2978  -10.0166   73.5035  O     
25   O       -18.1986  -12.2916   73.1135  O     
26   N       -19.5927  -11.0352   70.6169  N     
27   C       -23.9444  -10.8617   77.5915  C     
28   C       -22.9535  -11.8777   78.2734  C     
29   C       -23.3070   -9.4404   77.7932  C     
30   C       -25.2998  -10.8551   78.3749  C     
31   H       -23.8893  -10.2129   72.9326  H     
32   H       -23.7875   -9.3989   75.1747  H     
33   H       -24.8888  -13.2242   76.5585  H     
34   H       -24.8292  -14.0460   74.3317  H     
35   H       -24.9282  -10.4911   70.7004  H     
36   H       -27.1020  -10.1218   69.7735  H     
37   H       -28.8045  -11.8491   69.9113  H     
38   H       -28.3143  -13.9422   71.0402  H     
39   H       -26.1405  -14.3332   71.9756  H     
40   H       -22.7187  -14.6333   73.7194  H     
41   H       -22.0434  -16.8982   73.2433  H     
42   H       -22.3054  -17.8144   71.0152  H     
43   H       -23.1934  -16.4261   69.2370  H     
44   H       -23.9088  -14.1916   69.6984  H     
45   H       -21.4334  -11.8910   73.4073  H     
46   H       -20.6890  -13.0356   72.2699  H     
47   H       -20.4341   -9.9844   72.1922  H     
48   H       -19.3475  -11.9940   70.3602  H     
49   H       -18.7842  -10.4258   70.4636  H     
50   H       -20.3629  -10.7160   70.0158  H     
51   H       -23.3431  -12.8955   78.2654  H     
52   H       -22.7701  -11.6175   79.3179  H     
53   H       -21.9937  -11.8828   77.7529  H     
54   H       -22.3655   -9.3556   77.2455  H     
55   H       -23.0929   -9.2498   78.8501  H     
56   H       -23.9783   -8.6485   77.4499  H     
57   H       -25.9820  -10.1208   77.9457  H     
58   H       -25.1515  -10.6045   79.4264  H     
59   H       -25.7807  -11.8296   78.3374  H     
@<TRIPOS>BOND
     1    1    2 1
     2    1    3 1
     3    1    4 1
     4    1    5 1
     5    2   21 1
     6    3   11 2
     7    3   15 1
     8    4    6 2
     9    4   10 1
    10    5   16 2
    11    5   20 1
    12    6    7 1
    13    7    8 2
    14    8    9 1
    15    8   27 1
    16    9   10 2
    17   11   12 1
    18   12   13 2
    19   13   14 1
    20   14   15 2
    21   16   17 1
    22   17   18 2
    23   18   19 1
    24   19   20 2
    25   21   22 1
    26   22   23 1
    27   22   26 1
    28   23   24 1
    29   23   25 2
    30   27   28 1
    31   27   29 1
    32   27   30 1
    33    6   31 1
    34    7   32 1
    35    9   33 1
    36   10   34 1
    37   11   35 1
    38   12   36 1
    39   13   37 1
    40   14   38 1
    41   15   39 1
    42   16   40 1
    43   17   41 1
    44   18   42 1
    45   19   43 1
    46   20   44 1
    47   21   45 1
    48   21   46 1
    49   22   47 1
    50   26   48 1
    51   26   49 1
    52   26   50 1
    53   28   51 1
    54   28   52 1
    55   28   53 1
    56   29   54 1
    57   29   55 1
    58   29   56 1
    59   30   57 1
    60   30   58 1
    61   30   59 1
@<TRIPOS>PROPERTY_DATA
  Total_Score	| 8.9380
  Crash		| -1.5402
  Polar		| 5.2313
  FragIndex	| 1
  FragRMSD	| 0.686

