@<TRIPOS>MOLECULE
BindingDB_50339674
 56 58 0 0 0
SMALL
NO_CHARGES


@<TRIPOS>ATOM
1    C       -24.1644  -12.5373   72.1924  C     
2    S       -22.7841  -11.5743   71.4490  S     
3    C       -24.4896  -12.1375   73.6235  C     
4    C       -23.6445  -13.9552   71.9838  C     
5    C       -25.4670  -12.2933   71.4600  C     
6    C       -23.6302  -14.5563   70.6999  C     
7    C       -23.1072  -15.8411   70.4717  C     
8    C       -22.5234  -16.5883   71.5158  C     
9    C       -22.4618  -15.9817   72.7919  C     
10   C       -23.0137  -14.7036   73.0138  C     
11   C       -24.1601  -10.8699   74.1751  C     
12   C       -24.4545  -10.5368   75.5106  C     
13   C       -25.1390  -11.4501   76.3268  C     
14   C       -25.5462  -12.6857   75.7943  C     
15   C       -25.2316  -13.0155   74.4652  C     
16   C       -25.7845  -11.0196   70.9120  C     
17   C       -27.0273  -10.7602   70.3041  C     
18   C       -28.0021  -11.7753   70.2395  C     
19   C       -27.7350  -13.0326   70.8006  C     
20   C       -26.4894  -13.2832   71.4036  C     
21   C       -21.3097  -12.0061   72.4313  C     
22   C       -20.1421  -11.0067   72.1877  C     
23   C       -19.0219  -11.2196   73.1178  C     
24   O       -18.2154  -12.3114   73.0511  O     
25   O       -18.7194  -10.2911   74.0569  O     
26   N       -19.6802  -11.0678   70.7908  N     
27   C       -21.9886  -17.9577   71.2125  C     
28   C       -20.6139  -17.8771   70.4798  C     
29   C       -21.9237  -18.9158   72.4450  C     
30   H       -24.0098  -14.0537   69.9022  H     
31   H       -23.1604  -16.2374   69.5208  H     
32   H       -22.0228  -16.4533   73.5805  H     
33   H       -22.9114  -14.3176   73.9532  H     
34   H       -23.7058  -10.1413   73.6182  H     
35   H       -24.1675   -9.6321   75.8998  H     
36   H       -25.3685  -11.2126   77.3010  H     
37   H       -26.0509  -13.3557   76.3859  H     
38   H       -25.5522  -13.9150   74.1088  H     
39   H       -25.1255  -10.2439   70.9711  H     
40   H       -27.2307   -9.8406   69.9155  H     
41   H       -28.9151  -11.5866   69.8111  H     
42   H       -28.4459  -13.7610   70.7784  H     
43   H       -26.3474  -14.1997   71.8273  H     
44   H       -21.5653  -11.9999   73.4957  H     
45   H       -20.9810  -13.0124   72.1568  H     
46   H       -20.5416   -9.9927   72.3530  H     
47   H       -19.4006  -12.0217   70.5669  H     
48   H       -18.8892  -10.4286   70.6723  H     
49   H       -20.4385  -10.7763   70.1778  H     
50   H       -22.6877  -18.4401   70.5209  H     
51   H       -20.7139  -17.3080   69.5544  H     
52   H       -20.2667  -18.8826   70.2190  H     
53   H       -19.8632  -17.3937   71.1197  H     
54   H       -21.1112  -18.6217   73.1262  H     
55   H       -21.7825  -19.9566   72.1325  H     
56   H       -22.8763  -18.8827   73.0001  H     
@<TRIPOS>BOND
     1    1    2 1
     2    1    3 1
     3    1    4 1
     4    1    5 1
     5    2   21 1
     6    3   11 2
     7    3   15 1
     8    4    6 2
     9    4   10 1
    10    5   16 2
    11    5   20 1
    12    6    7 1
    13    7    8 2
    14    8    9 1
    15    8   27 1
    16    9   10 2
    17   11   12 1
    18   12   13 2
    19   13   14 1
    20   14   15 2
    21   16   17 1
    22   17   18 2
    23   18   19 1
    24   19   20 2
    25   21   22 1
    26   22   23 1
    27   22   26 1
    28   23   24 1
    29   23   25 2
    30   27   28 1
    31   27   29 1
    32    6   30 1
    33    7   31 1
    34    9   32 1
    35   10   33 1
    36   11   34 1
    37   12   35 1
    38   13   36 1
    39   14   37 1
    40   15   38 1
    41   16   39 1
    42   17   40 1
    43   18   41 1
    44   19   42 1
    45   20   43 1
    46   21   44 1
    47   21   45 1
    48   22   46 1
    49   26   47 1
    50   26   48 1
    51   26   49 1
    52   27   50 1
    53   28   51 1
    54   28   52 1
    55   28   53 1
    56   29   54 1
    57   29   55 1
    58   29   56 1
@<TRIPOS>PROPERTY_DATA
  Total_Score	| 9.6987
  Crash		| -3.2869
  Polar		| 5.1918
  FragIndex	| 1
  FragRMSD	| 0.476

