@<TRIPOS>MOLECULE
BindingDB_23775
 43 44 0 0 0
SMALL
NO_CHARGES


@<TRIPOS>ATOM
1    C       -21.2315  -11.9375   72.4481  C     
2    S       -22.7772  -11.5161   71.5700  S     
3    C       -20.0999  -10.9190   72.1259  C     
4    C       -18.9048  -11.1235   72.9799  C     
5    O       -18.5135  -10.1420   73.8261  O     
6    O       -18.1734  -12.2620   72.9525  O     
7    N       -19.7005  -10.9915   70.7083  N     
8    C       -24.0320  -12.7900   72.0083  C     
9    C       -24.6737  -12.6906   73.3896  C     
10   C       -26.0752  -13.7538   75.1318  C     
11   C       -25.5512  -13.7253   73.8224  C     
12   C       -24.4523  -11.6179   74.2824  C     
13   C       -24.9973  -11.6295   75.5977  C     
14   C       -25.7686  -12.7176   76.0239  C     
15   C       -23.3335  -14.1450   71.8458  C     
16   C       -23.1985  -14.7774   70.5894  C     
17   C       -22.5774  -16.0418   70.4552  C     
18   C       -22.0532  -16.6878   71.5858  C     
19   C       -22.1071  -16.0597   72.8313  C     
20   C       -22.7349  -14.7926   72.9551  C     
21   C       -25.2076  -12.5852   70.9743  C     
22   C       -26.1284  -11.3295   71.1558  C     
23   H       -21.4351  -11.9565   73.5229  H     
24   H       -20.8956  -12.9258   72.1363  H     
25   H       -20.4735   -9.9051   72.2985  H     
26   H       -19.4102  -11.9446   70.4762  H     
27   H       -18.9189  -10.3489   70.5412  H     
28   H       -20.4854  -10.7213   70.1123  H     
29   H       -26.6624  -14.5330   75.4291  H     
30   H       -25.7871  -14.5008   73.2043  H     
31   H       -23.9077  -10.8104   74.0151  H     
32   H       -24.8121  -10.8501   76.2260  H     
33   H       -26.1188  -12.7582   76.9841  H     
34   H       -23.5359  -14.3401   69.7371  H     
35   H       -22.5056  -16.4800   69.5374  H     
36   H       -21.6200  -17.6062   71.4947  H     
37   H       -21.6929  -16.4997   73.6536  H     
38   H       -22.7228  -14.3681   73.8761  H     
39   H       -24.8202  -12.5040   69.9575  H     
40   H       -25.8727  -13.4511   70.9872  H     
41   H       -26.7360  -11.4331   72.0516  H     
42   H       -26.7887  -11.2432   70.2921  H     
43   H       -25.5179  -10.4278   71.2274  H     
@<TRIPOS>BOND
     1    1    2 1
     2    1    3 1
     3    2    8 1
     4    3    4 1
     5    3    7 1
     6    4    5 2
     7    4    6 1
     8    8    9 1
     9    8   15 1
    10    8   21 1
    11    9   11 2
    12    9   12 1
    13   10   11 1
    14   10   14 2
    15   12   13 2
    16   13   14 1
    17   15   16 1
    18   15   20 2
    19   16   17 2
    20   17   18 1
    21   18   19 2
    22   19   20 1
    23   21   22 1
    24    1   23 1
    25    1   24 1
    26    3   25 1
    27    7   26 1
    28    7   27 1
    29    7   28 1
    30   10   29 1
    31   11   30 1
    32   12   31 1
    33   13   32 1
    34   14   33 1
    35   16   34 1
    36   17   35 1
    37   18   36 1
    38   19   37 1
    39   20   38 1
    40   21   39 1
    41   21   40 1
    42   22   41 1
    43   22   42 1
    44   22   43 1
@<TRIPOS>PROPERTY_DATA
  Total_Score	| 8.1775
  Crash		| -0.8177
  Polar		| 5.2314
  FragIndex	| 1
  FragRMSD	| 0.715

