@<TRIPOS>MOLECULE
BindingDB_50198302
 47 49 0 0 0
SMALL
NO_CHARGES


@<TRIPOS>ATOM
1    C       -25.9745  -10.7542   69.9144  C     
2    C       -27.1871  -11.4537   69.8957  C     
3    C       -27.3226  -12.6185   70.6664  C     
4    C       -26.2591  -13.0535   71.4734  C     
5    C       -25.0274  -12.3398   71.5597  C     
6    C       -24.9144  -11.1864   70.7329  C     
7    C       -23.9359  -12.8375   72.4999  C     
8    C       -23.3837  -14.2027   72.1067  C     
9    S       -22.4521  -11.7442   72.6414  S     
10   C       -24.6103  -12.8096   73.8773  C     
11   C       -22.8052  -15.0563   73.0891  C     
12   C       -22.2490  -16.3060   72.7632  C     
13   C       -22.2254  -16.7344   71.4239  C     
14   C       -22.7495  -15.9040   70.4184  C     
15   C       -23.3116  -14.6608   70.7545  C     
16   C       -24.5824  -11.6657   74.7361  C     
17   C       -25.1274  -11.6911   76.0314  C     
18   C       -25.7922  -12.8399   76.4922  C     
19   C       -25.9565  -13.9326   75.6281  C     
20   C       -25.3784  -13.9128   74.3489  C     
21   C       -21.0385  -12.4476   71.7384  C     
22   C       -19.7921  -11.5146   71.6970  C     
23   N       -20.1402  -10.1670   71.2299  N     
24   C       -19.0803  -11.4783   72.9935  C     
25   O       -18.1104  -12.3833   73.2683  O     
26   O       -19.2677  -10.4693   73.8668  O     
27   H       -25.8588   -9.9293   69.3292  H     
28   H       -27.9616  -11.1264   69.3179  H     
29   H       -28.2004  -13.1532   70.6242  H     
30   H       -26.3973  -13.9164   71.9963  H     
31   H       -24.0541  -10.6366   70.7012  H     
32   H       -22.7910  -14.7695   74.0673  H     
33   H       -21.8514  -16.8989   73.5021  H     
34   H       -21.8115  -17.6357   71.1843  H     
35   H       -22.7012  -16.2018   69.4426  H     
36   H       -23.6532  -14.0746   69.9878  H     
37   H       -24.1340  -10.7965   74.4402  H     
38   H       -25.0394  -10.8743   76.6413  H     
39   H       -26.1751  -12.8715   77.4395  H     
40   H       -26.4790  -14.7526   75.9400  H     
41   H       -25.5175  -14.7371   73.7645  H     
42   H       -20.7547  -13.3845   72.2304  H     
43   H       -21.3586  -12.6763   70.7178  H     
44   H       -19.1057  -11.9103   70.9451  H     
45   H       -20.6590  -10.2288   70.3531  H     
46   H       -19.2831   -9.6358   71.0709  H     
47   H       -20.7141   -9.6864   71.9206  H     
@<TRIPOS>BOND
     1    1    2 2
     2    1    6 1
     3    2    3 1
     4    3    4 2
     5    4    5 1
     6    5    6 2
     7    5    7 1
     8    7    8 1
     9    7    9 1
    10    7   10 1
    11    8   11 2
    12    8   15 1
    13    9   21 1
    14   10   16 2
    15   10   20 1
    16   11   12 1
    17   12   13 2
    18   13   14 1
    19   14   15 2
    20   16   17 1
    21   17   18 2
    22   18   19 1
    23   19   20 2
    24   21   22 1
    25   22   23 1
    26   22   24 1
    27   24   25 1
    28   24   26 2
    29    1   27 1
    30    2   28 1
    31    3   29 1
    32    4   30 1
    33    6   31 1
    34   11   32 1
    35   12   33 1
    36   13   34 1
    37   14   35 1
    38   15   36 1
    39   16   37 1
    40   17   38 1
    41   18   39 1
    42   19   40 1
    43   20   41 1
    44   21   42 1
    45   21   43 1
    46   22   44 1
    47   23   45 1
    48   23   46 1
    49   23   47 1
@<TRIPOS>PROPERTY_DATA
  Total_Score	| 8.5644
  Crash		| -2.1910
  Polar		| 4.2409
  FragIndex	| 1
  FragRMSD	| 0.800

