@<TRIPOS>MOLECULE
BindingDB_23773
 37 38 0 0 0
SMALL
NO_CHARGES


@<TRIPOS>ATOM
1    C       -21.4528  -11.9906   72.5306  C     
2    S       -22.8457  -11.7147   71.3961  S     
3    C       -20.2753  -11.0247   72.2126  C     
4    C       -19.1239  -11.2192   73.1257  C     
5    O       -18.4494  -12.3883   73.2236  O     
6    O       -18.6481  -10.1718   73.8423  O     
7    N       -19.8452  -11.1145   70.8021  N     
8    C       -24.2562  -12.4544   72.2831  C     
9    C       -25.5448  -12.3086   71.5353  C     
10   C       -28.0189  -12.0893   70.1434  C     
11   C       -27.1065  -11.0193   70.1323  C     
12   C       -25.8922  -11.1201   70.8403  C     
13   C       -26.4896  -13.3675   71.5416  C     
14   C       -27.7190  -13.2554   70.8686  C     
15   C       -24.4490  -12.0148   73.6971  C     
16   C       -24.0915  -10.7220   74.1608  C     
17   C       -24.2300  -10.3794   75.5183  C     
18   C       -24.7667  -11.3054   76.4312  C     
19   C       -25.1876  -12.5676   75.9783  C     
20   C       -25.0225  -12.9173   74.6269  C     
21   H       -21.7843  -11.8277   73.5590  H     
22   H       -21.1256  -13.0252   72.4377  H     
23   H       -20.6313  -10.0036   72.3610  H     
24   H       -19.5891  -12.0760   70.5694  H     
25   H       -19.0372  -10.5042   70.6489  H     
26   H       -20.6069  -10.8105   70.1919  H     
27   H       -23.9949  -13.5185   72.2976  H     
28   H       -28.9019  -12.0202   69.6284  H     
29   H       -27.3326  -10.1640   69.6156  H     
30   H       -25.2569  -10.3183   70.8274  H     
31   H       -26.2928  -14.2341   72.0505  H     
32   H       -28.3949  -14.0240   70.9040  H     
33   H       -23.7244  -10.0199   73.5152  H     
34   H       -23.9494   -9.4481   75.8419  H     
35   H       -24.8611  -11.0554   77.4203  H     
36   H       -25.6148  -13.2272   76.6347  H     
37   H       -25.3359  -13.8454   74.3288  H     
@<TRIPOS>BOND
     1    1    2 1
     2    1    3 1
     3    2    8 1
     4    3    4 1
     5    3    7 1
     6    4    5 2
     7    4    6 1
     8    8    9 1
     9    8   15 1
    10    9   12 2
    11    9   13 1
    12   10   11 2
    13   10   14 1
    14   11   12 1
    15   13   14 2
    16   15   16 1
    17   15   20 2
    18   16   17 2
    19   17   18 1
    20   18   19 2
    21   19   20 1
    22    1   21 1
    23    1   22 1
    24    3   23 1
    25    7   24 1
    26    7   25 1
    27    7   26 1
    28    8   27 1
    29   10   28 1
    30   11   29 1
    31   12   30 1
    32   13   31 1
    33   14   32 1
    34   16   33 1
    35   17   34 1
    36   18   35 1
    37   19   36 1
    38   20   37 1
@<TRIPOS>PROPERTY_DATA
  Total_Score	| 7.1019
  Crash		| -0.6593
  Polar		| 5.0837
  FragIndex	| 1
  FragRMSD	| 0.789

