@<TRIPOS>MOLECULE
BindingDB_23829
 55 57 0 0 0
SMALL
NO_CHARGES


@<TRIPOS>ATOM
1    C       -25.2664  -12.5960   71.6573  C     
2    C       -26.8923  -11.1359   70.5090  C     
3    C       -27.8754  -12.1439   70.5449  C     
4    C       -27.5353  -13.3935   71.0967  C     
5    C       -26.2579  -13.6131   71.6312  C     
6    C       -25.6298  -11.3465   71.0902  C     
7    C       -24.2773  -12.4698   73.8240  C     
8    C       -23.8745  -11.2537   74.4619  C     
9    C       -24.1878  -10.9786   75.8127  C     
10   C       -24.9204  -11.9012   76.5641  C     
11   C       -25.3986  -13.0690   75.9573  C     
12   C       -25.0840  -13.3431   74.6154  C     
13   C       -21.1074  -12.1100   72.4815  C     
14   C       -23.9455  -12.8161   72.3751  C     
15   C       -23.3698  -14.2128   72.1788  C     
16   C       -22.1651  -16.7718   71.7013  C     
17   C       -22.1852  -16.2193   72.9974  C     
18   C       -22.7876  -14.9696   73.2300  C     
19   C       -23.3390  -14.8021   70.8849  C     
20   C       -22.7675  -16.0630   70.6517  C     
21   C       -20.0400  -11.0297   72.1552  C     
22   C       -18.8771  -11.1621   73.0602  C     
23   O       -18.6205  -10.2115   73.9898  O     
24   S       -22.6494  -11.7722   71.5886  S     
25   N       -19.6349  -11.0863   70.7377  N     
26   O       -18.1443  -12.2998   73.0921  O     
27   C       -29.2187  -11.9123   69.9915  C     
28   C       -21.5000  -18.0610   71.4193  C     
29   O       -20.3016  -17.8591   70.6798  O     
30   O       -29.5954  -10.5504   70.0945  O     
31   H       -27.1063  -10.2234   70.0941  H     
32   H       -28.2109  -14.1569   71.1309  H     
33   H       -26.0617  -14.5337   72.0257  H     
34   H       -24.9861  -10.5522   71.0933  H     
35   H       -23.3505  -10.5446   73.9440  H     
36   H       -23.8567  -10.1030   76.2430  H     
37   H       -25.1256  -11.7138   77.5453  H     
38   H       -25.9578  -13.7274   76.4935  H     
39   H       -25.4336  -14.2039   74.2210  H     
40   H       -20.7344  -13.0926   72.1837  H     
41   H       -21.3120  -12.1203   73.5554  H     
42   H       -21.7399  -16.7154   73.7699  H     
43   H       -22.7338  -14.5935   74.1727  H     
44   H       -23.7196  -14.2879   70.0810  H     
45   H       -22.7770  -16.4318   69.6911  H     
46   H       -20.4859  -10.0398   72.3207  H     
47   H       -19.3400  -12.0384   70.5048  H     
48   H       -18.8610  -10.4406   70.5687  H     
49   H       -20.4197  -10.8239   70.1385  H     
50   H       -29.2169  -12.2020   68.9458  H     
51   H       -29.9681  -12.5141   70.5062  H     
52   H       -21.2435  -18.5774   72.3426  H     
53   H       -22.1681  -18.6989   70.8448  H     
54   H       -20.5772  -17.4685   69.8199  H     
55   H       -30.5303  -10.5356   69.8010  H     
@<TRIPOS>BOND
     1    1    5 2
     2    1    6 1
     3    1   14 1
     4    2    3 1
     5    2    6 2
     6    3    4 2
     7    3   27 1
     8    4    5 1
     9    7    8 1
    10    7   12 2
    11    7   14 1
    12    8    9 2
    13    9   10 1
    14   10   11 2
    15   11   12 1
    16   13   21 1
    17   13   24 1
    18   14   15 1
    19   14   24 1
    20   15   18 2
    21   15   19 1
    22   16   17 2
    23   16   20 1
    24   16   28 1
    25   17   18 1
    26   19   20 2
    27   21   22 1
    28   21   25 1
    29   22   23 2
    30   22   26 1
    31   27   30 1
    32   28   29 1
    33    2   31 1
    34    4   32 1
    35    5   33 1
    36    6   34 1
    37    8   35 1
    38    9   36 1
    39   10   37 1
    40   11   38 1
    41   12   39 1
    42   13   40 1
    43   13   41 1
    44   17   42 1
    45   18   43 1
    46   19   44 1
    47   20   45 1
    48   21   46 1
    49   25   47 1
    50   25   48 1
    51   25   49 1
    52   27   50 1
    53   27   51 1
    54   28   52 1
    55   28   53 1
    56   29   54 1
    57   30   55 1
@<TRIPOS>PROPERTY_DATA
  Total_Score	| 10.3221
  Crash		| -2.4792
  Polar		| 6.2212
  FragIndex	| 1
  FragRMSD	| 0.469

