@<TRIPOS>MOLECULE
BindingDB_14694
 76 79 0 0 0
SMALL
NO_CHARGES


@<TRIPOS>ATOM
1    C        20.3209   14.1904   22.5117  C     
2    C        18.9077   14.0574   22.5615  C     
3    C        18.2786   12.8321   22.2822  C     
4    C        19.0492   11.7049   21.9577  C     
5    C        20.4454   11.8067   21.9114  C     
6    C        21.0730   13.0355   22.1784  C     
7    C        20.9575   15.4559   22.7718  C     
8    C        22.2209   17.9848   23.2671  C     
9    C        22.7837   16.7870   23.7583  C     
10   C        22.1607   15.5467   23.5165  C     
11   C        20.4099   16.6682   22.2818  C     
12   C        21.0261   17.9018   22.5239  C     
13   C        22.8721   19.3040   23.4868  C     
14   C        20.4990   19.5142   26.1216  C     
15   C        21.8940   20.0136   25.6655  C     
16   C        21.3325   21.2246   23.6094  C     
17   C        19.1372   21.3245   24.8252  C     
18   C        19.4110   20.6110   26.1742  C     
19   N        22.0056   20.2263   24.2285  N     
20   O        21.4952   21.4003   22.4050  O     
21   C        20.3555   22.1167   24.2632  C     
22   N        19.8492   23.1292   23.3755  N     
23   C        20.4952   24.2121   22.9589  C     
24   O        21.6290   24.4569   23.3591  O     
25   C        19.8389   25.0984   22.0057  C     
26   N        20.3516   26.4471   22.0941  N     
27   C        19.7660   27.4686   22.7021  C     
28   C        20.4444   28.7413   22.7337  C     
29   O        18.6764   27.3592   23.2477  O     
30   C        19.9898   24.5567   20.5445  C     
31   C        19.2180   25.3544   19.5546  C     
32   C        17.0873   26.1721   18.7256  C     
33   C        17.8149   25.3680   19.6046  C     
34   C        19.8578   26.0991   18.5398  C     
35   C        19.1328   26.9219   17.6387  C     
36   C        17.7155   27.0180   17.7667  C     
37   C        16.8607   27.8428   16.8326  C     
38   C        15.5326   28.2805   17.3445  C     
39   O        14.5440   28.5593   16.4691  O     
40   O        15.3228   28.6003   18.6528  O     
41   C        19.8551   27.5309   16.5817  C     
42   O        21.0350   27.0143   16.1621  O     
43   O        19.6172   28.8059   16.2030  O     
44   H        18.3184   14.8525   22.8102  H     
45   H        17.2605   12.7659   22.3130  H     
46   H        18.5991   10.8129   21.7579  H     
47   H        21.0080   10.9883   21.6738  H     
48   H        22.0921   13.0785   22.1077  H     
49   H        23.6521   16.8027   24.2952  H     
50   H        22.5953   14.7057   23.9077  H     
51   H        19.5554   16.6661   21.7211  H     
52   H        20.5930   18.7379   22.1374  H     
53   H        23.8235   19.1895   24.0189  H     
54   H        23.1608   19.6948   22.5077  H     
55   H        20.1737   18.7037   25.4672  H     
56   H        20.5955   19.1028   27.1305  H     
57   H        22.1591   20.9322   26.1950  H     
58   H        22.6128   19.2631   26.0129  H     
59   H        18.7924   20.5946   24.0878  H     
60   H        18.3050   22.0162   25.0039  H     
61   H        18.4787   20.1514   26.5127  H     
62   H        19.6948   21.3561   26.9246  H     
63   H        20.8481   22.6218   25.1030  H     
64   H        18.9556   22.9911   23.0189  H     
65   H        18.7675   25.1088   22.2506  H     
66   H        21.2454   26.5961   21.7446  H     
67   H        21.4237   28.6328   23.2066  H     
68   H        19.8747   29.4872   23.2913  H     
69   H        20.5813   29.1043   21.7127  H     
70   H        21.0583   24.5511   20.2967  H     
71   H        19.6432   23.5178   20.4822  H     
72   H        16.0655   26.1554   18.8297  H     
73   H        17.3067   24.7930   20.2775  H     
74   H        20.8816   26.0531   18.4723  H     
75   H        17.3179   28.7520   16.4913  H     
76   H        16.7097   27.2216   15.9446  H     
@<TRIPOS>BOND
     1    1    2 2
     2    1    6 1
     3    1    7 1
     4    2    3 1
     5    3    4 2
     6    4    5 1
     7    5    6 2
     8    7   10 1
     9    7   11 2
    10    8    9 1
    11    8   12 2
    12    8   13 1
    13    9   10 2
    14   11   12 1
    15   13   19 1
    16   14   15 1
    17   14   18 1
    18   15   19 1
    19   16   19 1
    20   16   20 2
    21   16   21 1
    22   17   18 1
    23   17   21 1
    24   21   22 1
    25   22   23 am
    26   23   24 2
    27   23   25 1
    28   25   26 1
    29   25   30 1
    30   26   27 am
    31   27   28 1
    32   27   29 2
    33   30   31 1
    34   31   33 1
    35   31   34 2
    36   32   33 2
    37   32   36 1
    38   34   35 1
    39   35   36 2
    40   35   41 1
    41   36   37 1
    42   37   38 1
    43   38   39 2
    44   38   40 1
    45   41   42 2
    46   41   43 1
    47    2   44 1
    48    3   45 1
    49    4   46 1
    50    5   47 1
    51    6   48 1
    52    9   49 1
    53   10   50 1
    54   11   51 1
    55   12   52 1
    56   13   53 1
    57   13   54 1
    58   14   55 1
    59   14   56 1
    60   15   57 1
    61   15   58 1
    62   17   59 1
    63   17   60 1
    64   18   61 1
    65   18   62 1
    66   21   63 1
    67   22   64 1
    68   25   65 1
    69   26   66 1
    70   28   67 1
    71   28   68 1
    72   28   69 1
    73   30   70 1
    74   30   71 1
    75   32   72 1
    76   33   73 1
    77   34   74 1
    78   37   75 1
    79   37   76 1
@<TRIPOS>PROPERTY_DATA
  Total_Score	| 14.5221
  Crash		| -1.4472
  Polar		| 10.5598
  FragIndex	| 1
  FragRMSD	| 0.381

