@<TRIPOS>MOLECULE
BindingDB_14691
 75 78 0 0 0
SMALL
NO_CHARGES


@<TRIPOS>ATOM
1    C        20.3548   14.2649   22.4589  C     
2    C        21.1178   13.1114   22.1439  C     
3    C        20.4919   11.8732   21.8960  C     
4    C        19.0903   11.7680   21.9579  C     
5    C        18.3158   12.8998   22.2663  C     
6    C        18.9439   14.1370   22.5102  C     
7    C        20.9903   15.5191   22.7080  C     
8    C        22.2576   18.0407   23.1772  C     
9    C        22.8440   16.8411   23.6444  C     
10   C        22.2179   15.5988   23.4141  C     
11   C        20.4110   16.7240   22.2499  C     
12   C        21.0334   17.9635   22.4798  C     
13   C        22.8947   19.3669   23.4022  C     
14   C        20.4841   19.5610   26.0220  C     
15   C        21.8889   20.0455   25.5726  C     
16   C        21.3152   21.2480   23.5186  C     
17   C        19.1404   21.4195   24.7784  C     
18   C        19.4202   20.6811   26.1123  C     
19   N        21.9994   20.2620   24.1354  N     
20   O        21.4491   21.3993   22.3081  O     
21   C        20.3789   22.1662   24.1909  C     
22   N        19.8829   23.1909   23.3066  N     
23   C        20.5093   24.3001   22.9280  C     
24   O        21.6346   24.5663   23.3371  O     
25   C        19.8336   25.1721   21.9688  C     
26   N        20.3374   26.5201   22.0328  N     
27   C        19.7757   27.5439   22.6677  C     
28   C        20.4051   28.8437   22.6421  C     
29   O        18.7275   27.4136   23.2885  O     
30   C        19.9440   24.5911   20.5249  C     
31   C        19.1108   25.2983   19.5123  C     
32   C        17.4836   26.5530   17.5427  C     
33   C        16.8975   25.9135   18.6540  C     
34   C        17.7019   25.2851   19.6214  C     
35   C        19.6946   25.9254   18.3871  C     
36   C        18.8957   26.5144   17.3794  C     
37   O        16.6720   27.1621   16.6159  O     
38   P        16.0236   28.5086   17.0767  P     
39   O        15.9023   28.7118   18.5039  O     
40   O        16.7754   29.6736   16.4062  O     
41   O        14.5983   28.5766   16.5044  O     
42   C        19.4660   27.0090   16.2262  C     
43   O        19.5671   28.2176   16.0985  O     
44   H        22.1358   13.1635   22.0735  H     
45   H        21.0552   11.0522   21.6703  H     
46   H        18.6376   10.8680   21.7866  H     
47   H        17.2981   12.8237   22.3145  H     
48   H        18.3544   14.9422   22.7390  H     
49   H        23.7257   16.8613   24.1600  H     
50   H        22.6600   14.7536   23.7784  H     
51   H        19.5351   16.7163   21.7219  H     
52   H        20.5904   18.8132   22.1193  H     
53   H        23.8407   19.2650   23.9447  H     
54   H        23.1900   19.7546   22.4240  H     
55   H        20.1358   18.7747   25.3475  H     
56   H        20.5764   19.1155   27.0198  H     
57   H        22.1602   20.9581   26.1083  H     
58   H        22.6002   19.2871   25.9159  H     
59   H        18.7418   20.7113   24.0464  H     
60   H        18.3453   22.1423   24.9894  H     
61   H        18.4834   20.2345   26.4626  H     
62   H        19.7316   21.4078   26.8690  H     
63   H        20.8963   22.6671   25.0125  H     
64   H        19.0100   23.0296   22.9039  H     
65   H        18.7712   25.1699   22.2411  H     
66   H        21.1936   26.6912   21.6062  H     
67   H        21.4055   28.7731   23.0722  H     
68   H        19.8345   29.5764   23.2235  H     
69   H        20.4801   29.2034   21.6127  H     
70   H        20.9986   24.5966   20.2352  H     
71   H        19.6241   23.5473   20.5173  H     
72   H        15.8809   25.8920   18.7501  H     
73   H        17.2485   24.7952   20.3965  H     
74   H        20.7107   25.9011   18.2736  H     
75   H        19.3394   26.4795   15.3906  H     
@<TRIPOS>BOND
     1    1    2 2
     2    1    6 1
     3    1    7 1
     4    2    3 1
     5    3    4 2
     6    4    5 1
     7    5    6 2
     8    7   10 1
     9    7   11 2
    10    8    9 1
    11    8   12 2
    12    8   13 1
    13    9   10 2
    14   11   12 1
    15   13   19 1
    16   14   15 1
    17   14   18 1
    18   15   19 1
    19   16   19 1
    20   16   20 2
    21   16   21 1
    22   17   18 1
    23   17   21 1
    24   21   22 1
    25   22   23 am
    26   23   24 2
    27   23   25 1
    28   25   26 1
    29   25   30 1
    30   26   27 am
    31   27   28 1
    32   27   29 2
    33   30   31 1
    34   31   34 1
    35   31   35 2
    36   32   33 1
    37   32   36 2
    38   32   37 1
    39   33   34 2
    40   35   36 1
    41   36   42 1
    42   37   38 1
    43   38   39 2
    44   38   40 1
    45   38   41 1
    46   42   43 2
    47    2   44 1
    48    3   45 1
    49    4   46 1
    50    5   47 1
    51    6   48 1
    52    9   49 1
    53   10   50 1
    54   11   51 1
    55   12   52 1
    56   13   53 1
    57   13   54 1
    58   14   55 1
    59   14   56 1
    60   15   57 1
    61   15   58 1
    62   17   59 1
    63   17   60 1
    64   18   61 1
    65   18   62 1
    66   21   63 1
    67   22   64 1
    68   25   65 1
    69   26   66 1
    70   28   67 1
    71   28   68 1
    72   28   69 1
    73   30   70 1
    74   30   71 1
    75   33   72 1
    76   34   73 1
    77   35   74 1
    78   42   75 1
@<TRIPOS>PROPERTY_DATA
  Total_Score	| 10.9674
  Crash		| -1.7555
  Polar		| 7.3477
  FragIndex	| 1
  FragRMSD	| 0.136

