@<TRIPOS>MOLECULE
BindingDB_14698
 74 77 0 0 0
SMALL
NO_CHARGES


@<TRIPOS>ATOM
1    C        20.2652   14.1048   22.1674  C     
2    C        21.0474   12.9173   22.1436  C     
3    C        20.4603   11.6620   21.9028  C     
4    C        19.0718   11.5566   21.6916  C     
5    C        18.2804   12.7197   21.7155  C     
6    C        18.8644   13.9749   21.9459  C     
7    C        20.8628   15.3904   22.4158  C     
8    C        22.0773   17.9460   22.9956  C     
9    C        22.8338   16.8830   22.4496  C     
10   C        22.2401   15.6390   22.1653  C     
11   C        20.1030   16.4815   22.9140  C     
12   C        20.6935   17.7302   23.1766  C     
13   C        22.7398   19.2497   23.2757  C     
14   C        20.6151   19.7103   26.1649  C     
15   C        21.9787   20.0730   25.5129  C     
16   C        21.2462   21.1796   23.4496  C     
17   C        19.2259   21.5260   24.8774  C     
18   C        19.5783   20.8589   26.2300  C     
19   N        21.9515   20.2034   24.0567  N     
20   O        21.2019   21.2221   22.2183  O     
21   C        20.4467   22.1871   24.1622  C     
22   N        19.9679   23.2588   23.3192  N     
23   C        20.7054   24.2298   22.7837  C     
24   O        21.9052   24.2945   23.0191  O     
25   C        20.1464   25.1334   21.9371  C     
26   N        20.5019   26.4097   22.1199  N     
27   C        19.7613   27.3685   22.6675  C     
28   C        20.3459   28.6686   22.8716  C     
29   O        18.6209   27.1638   23.0683  O     
30   C        19.3139   24.7195   20.9515  C     
31   C        18.8002   25.4995   19.9266  C     
32   C        19.5880   26.3852   19.1528  C     
33   C        17.4485   25.3476   19.5670  C     
34   C        16.8796   26.1493   18.5718  C     
35   C        19.0505   27.1501   18.0839  C     
36   C        19.9829   27.8714   17.3089  C     
37   O        19.7458   28.3117   16.1803  O     
38   C        17.6476   27.0970   17.8404  C     
39   C        16.9262   28.0024   16.8971  C     
40   C        15.5665   28.4097   17.3171  C     
41   O        14.5672   28.5754   16.4175  O     
42   O        15.3036   28.6795   18.6238  O     
43   H        22.0542   12.9338   22.3353  H     
44   H        21.0384   10.8173   21.9105  H     
45   H        18.6414   10.6361   21.5224  H     
46   H        17.2705   12.6561   21.5670  H     
47   H        18.2404   14.7843   21.9447  H     
48   H        23.8317   17.0063   22.2502  H     
49   H        22.8428   14.9148   21.7601  H     
50   H        19.1016   16.3914   23.1203  H     
51   H        20.0850   18.4774   23.5099  H     
52   H        23.6758   19.0529   23.8046  H     
53   H        23.0452   19.6568   22.3050  H     
54   H        20.1758   18.8562   25.6495  H     
55   H        20.8064   19.3908   27.1929  H     
56   H        22.3615   20.9963   25.9511  H     
57   H        22.6745   19.2893   25.8241  H     
58   H        18.7513   20.7918   24.2153  H     
59   H        18.4707   22.2907   25.0949  H     
60   H        18.6552   20.4551   26.6586  H     
61   H        19.9433   21.6277   26.9170  H     
62   H        21.0723   22.6676   24.9171  H     
63   H        19.0175   23.2596   23.1113  H     
64   H        21.4388   26.6234   21.9955  H     
65   H        21.2400   28.5854   23.4990  H     
66   H        19.6465   29.3575   23.3637  H     
67   H        20.6285   29.1008   21.9061  H     
68   H        19.0180   23.7723   20.9556  H     
69   H        20.5909   26.4307   19.3635  H     
70   H        16.8438   24.6890   20.0679  H     
71   H        15.8757   26.0653   18.4217  H     
72   H        20.9367   27.9087   17.5913  H     
73   H        17.4711   28.9586   16.7486  H     
74   H        16.8386   27.4803   15.9413  H     
@<TRIPOS>BOND
     1    1    2 2
     2    1    6 1
     3    1    7 1
     4    2    3 1
     5    3    4 2
     6    4    5 1
     7    5    6 2
     8    7   10 1
     9    7   11 2
    10    8    9 1
    11    8   12 2
    12    8   13 1
    13    9   10 2
    14   11   12 1
    15   13   19 1
    16   14   15 1
    17   14   18 1
    18   15   19 1
    19   16   19 1
    20   16   20 2
    21   16   21 1
    22   17   18 1
    23   17   21 1
    24   21   22 1
    25   22   23 am
    26   23   24 2
    27   23   25 1
    28   25   26 1
    29   25   30 2
    30   26   27 am
    31   27   28 1
    32   27   29 2
    33   30   31 1
    34   31   32 1
    35   31   33 2
    36   32   35 2
    37   33   34 1
    38   34   38 2
    39   35   36 1
    40   35   38 1
    41   36   37 2
    42   38   39 1
    43   39   40 1
    44   40   41 2
    45   40   42 1
    46    2   43 1
    47    3   44 1
    48    4   45 1
    49    5   46 1
    50    6   47 1
    51    9   48 1
    52   10   49 1
    53   11   50 1
    54   12   51 1
    55   13   52 1
    56   13   53 1
    57   14   54 1
    58   14   55 1
    59   15   56 1
    60   15   57 1
    61   17   58 1
    62   17   59 1
    63   18   60 1
    64   18   61 1
    65   21   62 1
    66   22   63 1
    67   26   64 1
    68   28   65 1
    69   28   66 1
    70   28   67 1
    71   30   68 1
    72   32   69 1
    73   33   70 1
    74   34   71 1
    75   36   72 1
    76   39   73 1
    77   39   74 1
@<TRIPOS>PROPERTY_DATA
  Total_Score	| 13.6090
  Crash		| -1.7819
  Polar		| 10.6540
  FragIndex	| 1
  FragRMSD	| 0.391

