@<TRIPOS>MOLECULE
BindingDB_14690
 78 81 0 0 0
SMALL
NO_CHARGES


@<TRIPOS>ATOM
1    C        20.2749   14.1098   22.0434  C     
2    C        18.8740   13.9357   21.8111  C     
3    C        18.3168   12.6555   21.6321  C     
4    C        19.1392   11.5113   21.6457  C     
5    C        20.5237   11.6573   21.8590  C     
6    C        21.0761   12.9357   22.0632  C     
7    C        20.8467   15.4051   22.2859  C     
8    C        22.0532   17.9315   22.9729  C     
9    C        22.8204   16.8867   22.3890  C     
10   C        22.2264   15.6632   22.0337  C     
11   C        20.0706   16.4835   22.7993  C     
12   C        20.6636   17.7216   23.1087  C     
13   C        22.6650   19.2199   23.3840  C     
14   C        20.5081   19.6076   26.2572  C     
15   C        21.8828   20.0105   25.6541  C     
16   C        21.1726   21.1490   23.6183  C     
17   C        19.1205   21.4572   25.0212  C     
18   C        19.4707   20.7553   26.3603  C     
19   N        21.8520   20.1389   24.2046  N     
20   O        21.2222   21.2591   22.3947  O     
21   C        20.3372   22.1390   24.3285  C     
22   N        19.8399   23.1929   23.4871  N     
23   C        20.5423   24.2200   23.0243  C     
24   O        21.7502   24.3049   23.2365  O     
25   C        19.8968   25.1593   22.1246  C     
26   N        20.4661   26.4770   22.2730  N     
27   C        19.8839   27.5471   22.7919  C     
28   C        20.5768   28.8131   22.8103  C     
29   O        18.7635   27.4971   23.2851  O     
30   C        20.0391   24.6642   20.6540  C     
31   C        19.2979   25.5460   19.7200  C     
32   C        17.2122   26.2435   18.6724  C     
33   C        17.9174   25.3649   19.5099  C     
34   C        19.9478   26.6215   19.0794  C     
35   C        19.2565   27.5126   18.2221  C     
36   C        20.0307   28.5084   17.5589  C     
37   O        21.1648   29.0050   18.1068  O     
38   C        17.8446   27.3408   18.0355  C     
39   C        17.0224   28.2501   17.1628  C     
40   C        17.1732   27.8356   15.7560  C     
41   O        16.6053   28.5981   14.7961  O     
42   C        15.5877   28.3930   17.5223  C     
43   O        14.6177   28.5899   16.5958  O     
44   O        15.2619   28.6662   18.8030  O     
45   O        17.4106   26.5423   15.4387  O     
46   O        19.8633   28.7558   16.2400  O     
47   H        18.2384   14.7438   21.7924  H     
48   H        17.3064   12.5539   21.4766  H     
49   H        18.7372   10.5857   21.4861  H     
50   H        21.1285   10.8264   21.8701  H     
51   H        22.0849   12.9881   22.2693  H     
52   H        23.8227   17.0122   22.2196  H     
53   H        22.8184   14.9446   21.6028  H     
54   H        19.0715   16.3633   22.9977  H     
55   H        20.0657   18.4699   23.4759  H     
56   H        23.5880   19.0412   23.9435  H     
57   H        22.9639   19.7000   22.4433  H     
58   H        20.0696   18.7868   25.6816  H     
59   H        20.6714   19.2277   27.2697  H     
60   H        22.2255   20.9583   26.1021  H     
61   H        22.6082   19.2499   25.9601  H     
62   H        18.6565   20.7358   24.3413  H     
63   H        18.3591   22.2112   25.2546  H     
64   H        18.5468   20.3448   26.7843  H     
65   H        19.8433   21.5071   27.0661  H     
66   H        20.9341   22.6255   25.1056  H     
67   H        18.9016   23.1510   23.2345  H     
68   H        18.8240   25.1778   22.3651  H     
69   H        21.3728   26.5887   21.9458  H     
70   H        21.5513   28.7489   22.3188  H     
71   H        20.7311   29.1336   23.8422  H     
72   H        19.9775   29.5627   22.2912  H     
73   H        21.0973   24.6225   20.3779  H     
74   H        19.6493   23.6449   20.5671  H     
75   H        16.2141   26.0645   18.5490  H     
76   H        17.4118   24.6053   19.9742  H     
77   H        20.9548   26.7361   19.2366  H     
78   H        17.4136   29.2663   17.2591  H     
@<TRIPOS>BOND
     1    1    2 2
     2    1    6 1
     3    1    7 1
     4    2    3 1
     5    3    4 2
     6    4    5 1
     7    5    6 2
     8    7   10 1
     9    7   11 2
    10    8    9 1
    11    8   12 2
    12    8   13 1
    13    9   10 2
    14   11   12 1
    15   13   19 1
    16   14   15 1
    17   14   18 1
    18   15   19 1
    19   16   19 1
    20   16   20 2
    21   16   21 1
    22   17   18 1
    23   17   21 1
    24   21   22 1
    25   22   23 am
    26   23   24 2
    27   23   25 1
    28   25   26 1
    29   25   30 1
    30   26   27 am
    31   27   28 1
    32   27   29 2
    33   30   31 1
    34   31   33 1
    35   31   34 2
    36   32   33 2
    37   32   38 1
    38   34   35 1
    39   35   36 1
    40   35   38 2
    41   36   37 1
    42   36   46 2
    43   38   39 1
    44   39   40 1
    45   39   42 1
    46   40   41 2
    47   40   45 1
    48   42   43 2
    49   42   44 1
    50    2   47 1
    51    3   48 1
    52    4   49 1
    53    5   50 1
    54    6   51 1
    55    9   52 1
    56   10   53 1
    57   11   54 1
    58   12   55 1
    59   13   56 1
    60   13   57 1
    61   14   58 1
    62   14   59 1
    63   15   60 1
    64   15   61 1
    65   17   62 1
    66   17   63 1
    67   18   64 1
    68   18   65 1
    69   21   66 1
    70   22   67 1
    71   25   68 1
    72   26   69 1
    73   28   70 1
    74   28   71 1
    75   28   72 1
    76   30   73 1
    77   30   74 1
    78   32   75 1
    79   33   76 1
    80   34   77 1
    81   39   78 1
@<TRIPOS>PROPERTY_DATA
  Total_Score	| 15.9576
  Crash		| -2.4111
  Polar		| 13.2721
  FragIndex	| 1
  FragRMSD	| 0.215

