@<TRIPOS>MOLECULE
BindingDB_50316305
 50 53 0 0 0
SMALL
NO_CHARGES


@<TRIPOS>ATOM
1    N         1.3529    8.3120   12.4611  N     
2    C         0.8165    7.1423   12.0704  C     
3    N         2.5448    6.6801   13.3921  N     
4    C         1.5586    6.1181   12.6570  C     
5    C         0.9418    9.6360   12.0731  C     
6    N        -0.2716    6.8573   11.2856  N     
7    C         2.3929    8.0145   13.2784  C     
8    C         1.1628    4.8023   12.4326  C     
9    N         0.0831    4.5580   11.6902  N     
10   C        -0.3949   10.1122   12.6668  C     
11   C        -0.6405    5.5568   11.1086  C     
12   O         1.9414   10.6029   12.4096  O     
13   P         4.2435   12.4963   14.6702  P     
14   C         1.3292   11.7773   12.9575  C     
15   C        -0.1876   11.6354   12.6982  C     
16   C         3.5655    6.0807   14.2258  C     
17   C         1.7294   11.9666   14.4594  C     
18   O         3.0464   11.5164   14.7623  O     
19   O         1.7556    3.8422   12.9079  O     
20   O         4.9290   12.4746   16.0587  O     
21   O         3.9154   13.9536   14.3397  O     
22   O         5.2493   11.9968   13.7565  O     
23   N        -1.7324    5.2425   10.3918  N     
24   O        -0.6108    9.5778   13.9739  O     
25   O        -1.0224   12.2937   13.6460  O     
26   C         4.9235    6.1336   13.6258  C     
27   C         5.5429    7.3949   13.3876  C     
28   C         5.6278    4.9531   13.2808  C     
29   C         6.9213    5.0184   12.7244  C     
30   C         6.8331    7.4625   12.8109  C     
31   C         7.5313    6.2740   12.4811  C     
32   H         0.8614    9.6708   10.9829  H     
33   H         2.9762    8.7057   13.7579  H     
34   H        -0.2050    3.6419   11.5622  H     
35   H        -1.2423    9.8428   12.0331  H     
36   H         1.7172   12.6362   12.4002  H     
37   H        -0.4274   12.0467   11.7080  H     
38   H         3.5949    6.5913   15.1961  H     
39   H         3.2836    5.0534   14.4736  H     
40   H         1.1120   11.3308   15.1125  H     
41   H         1.6217   13.0358   14.7441  H     
42   H        -2.0139    4.3085   10.3446  H     
43   H        -2.2719    5.9432    9.9736  H     
44   H        -1.5632    9.7122   14.1649  H     
45   H        -0.7994   13.2482   13.5647  H     
46   H         5.0370    8.2829   13.6309  H     
47   H         5.2004    4.0288   13.4409  H     
48   H         7.4273    4.1607   12.4898  H     
49   H         7.2718    8.3672   12.6365  H     
50   H         8.4772    6.3245   12.0851  H     
@<TRIPOS>BOND
     1    1    2 1
     2    5    1 1
     3    1    7 1
     4    2    4 2
     5    2    6 1
     6    3    7 2
     7    3   16 1
     8    3    4 1
     9    4    8 1
    10    5   10 1
    11    5   12 1
    12    6   11 2
    13    8    9 1
    14    8   19 2
    15    9   11 1
    16   10   15 1
    17   10   24 1
    18   11   23 1
    19   12   14 1
    20   13   18 1
    21   13   20 1
    22   13   21 1
    23   13   22 2
    24   14   17 1
    25   14   15 1
    26   15   25 1
    27   16   26 1
    28   17   18 1
    29   26   27 2
    30   26   28 1
    31   27   30 1
    32   28   29 2
    33   29   31 1
    34   30   31 2
    35    5   32 1
    36    7   33 1
    37    9   34 1
    38   10   35 1
    39   14   36 1
    40   15   37 1
    41   16   38 1
    42   16   39 1
    43   17   40 1
    44   17   41 1
    45   23   42 1
    46   23   43 1
    47   24   44 1
    48   25   45 1
    49   27   46 1
    50   28   47 1
    51   29   48 1
    52   30   49 1
    53   31   50 1
@<TRIPOS>PROPERTY_DATA
  Total_Score	| 9.1651
  Crash		| -1.0066
  Polar		| 6.8353
  FragIndex	| 1
  FragRMSD	| 0.875

