@<TRIPOS>MOLECULE
BindingDB_50294221
 80 85 0 0 0
SMALL
NO_CHARGES


@<TRIPOS>ATOM
1    C        -0.9555   15.6873   14.0828  C     
2    C        -1.3570   17.1230   14.5470  C     
3    C        -2.7874   16.9531   15.0810  C     
4    C        -3.1770   15.5092   14.6839  C     
5    O        -1.9219   14.7983   14.6737  O     
6    N        -4.1660   14.9449   15.5671  N     
7    O        -3.7046   17.9159   14.5464  O     
8    O        -1.2540   18.0480   13.4561  O     
9    N        -6.1002   14.6721   16.6433  N     
10   C        -5.4113   15.4384   15.7710  C     
11   C        -5.2963   13.6451   16.9749  C     
12   C        -4.0945   13.8018   16.2768  C     
13   N        -3.1013   12.8832   16.4233  N     
14   C        -3.2713   11.7994   17.2294  C     
15   N        -4.4488   11.6288   17.8981  N     
16   C        -5.4701   12.5210   17.8089  C     
17   O        -6.6105   12.2745   18.5024  O     
18   C         0.5053   15.2844   14.4215  C     
19   O         0.7047   15.2734   15.8603  O     
20   P         2.1383   14.9790   16.3889  P     
21   O         3.2127   15.3227   15.3035  O     
22   P         4.6599   14.8037   15.5317  P     
23   O         4.8082   13.3456   16.0464  O     
24   P         4.3811   12.1949   15.0943  P     
25   O         2.9312   12.1507   14.5391  O     
26   C         2.6704   12.5731   13.1787  C     
27   C         1.4682   11.7913   12.5878  C     
28   C         0.3953   11.3787   13.6273  C     
29   C        -0.2026   10.0987   13.0141  C     
30   C         0.8909    9.6025   12.0262  C     
31   O         1.9493   10.5765   12.0018  O     
32   N         1.4110    8.3055   12.3583  N     
33   O        -1.4430   10.3436   12.3359  O     
34   O        -0.5386   12.4299   13.8677  O     
35   N         2.6958    6.7001   13.2023  N     
36   C         2.5430    8.0276   13.0479  C     
37   C         1.6495    6.1271   12.5967  C     
38   C         0.8396    7.1259   12.0635  C     
39   N        -0.2914    6.7983   11.3695  N     
40   C        -0.6326    5.4871   11.2307  C     
41   N         0.1584    4.5139   11.7790  N     
42   C         1.2686    4.8085   12.4520  C     
43   N        -1.7361    5.1503   10.5484  N     
44   O         1.9502    3.9150   12.9345  O     
45   S         2.3177   15.8828   18.0876  S     
46   O         5.4314   15.0388   14.2268  O     
47   O         5.4552   11.9080   14.0299  O     
48   O         2.0921   13.5583   16.6515  O     
49   O         5.3460   15.6484   16.4770  O     
50   O         4.4446   11.0167   15.9204  O     
51   N        -2.2906   10.8953   17.3653  N     
52   C        -7.4359   14.9274   17.0896  C     
53   H        -1.0737   15.6190   12.9851  H     
54   H        -0.7058   17.4770   15.3594  H     
55   H        -2.7812   17.0492   16.1782  H     
56   H        -3.5937   15.5026   13.6637  H     
57   H        -3.4219   18.7794   14.9206  H     
58   H        -0.2903   18.1464   13.2974  H     
59   H        -5.7565   16.2984   15.3343  H     
60   H        -6.4509   12.6223   19.4025  H     
61   H         0.6964   14.2708   14.0226  H     
62   H         1.2085   15.9761   13.9301  H     
63   H         2.4239   13.6348   13.1766  H     
64   H         3.5225   12.4049   12.5062  H     
65   H         0.9986   12.3860   11.7926  H     
66   H         0.8738   11.1215   14.5827  H     
67   H        -0.4028    9.3593   13.8044  H     
68   H         0.4842    9.5665   11.0118  H     
69   H        -1.2408   11.0418   11.6770  H     
70   H        -1.3408   11.9840   14.2147  H     
71   H         3.2001    8.7175   13.4217  H     
72   H        -0.1088    3.5874   11.6849  H     
73   H        -1.9885    4.2177   10.4576  H     
74   H        -2.2923    5.8409   10.1526  H     
75   H         2.6671   17.0708   17.5150  H     
76   H        -2.4179   10.1296   17.9538  H     
77   H        -1.4488   11.0138   16.8905  H     
78   H        -7.4372   15.0542   18.1718  H     
79   H        -8.0786   14.0861   16.8248  H     
80   H        -7.8508   15.8339   16.6380  H     
@<TRIPOS>BOND
     1    1    2 1
     2    1    5 1
     3    1   18 1
     4    2    3 1
     5    2    8 1
     6    3    4 1
     7    3    7 1
     8    4    5 1
     9    4    6 1
    10    6   10 1
    11    6   12 1
    12    9   10 2
    13    9   11 1
    14    9   52 1
    15   11   12 2
    16   11   16 1
    17   12   13 1
    18   13   14 2
    19   14   15 1
    20   14   51 1
    21   15   16 2
    22   16   17 1
    23   18   19 1
    24   19   20 1
    25   20   21 1
    26   20   45 1
    27   20   48 2
    28   21   22 1
    29   22   23 1
    30   22   46 1
    31   22   49 2
    32   23   24 1
    33   24   25 1
    34   24   47 1
    35   24   50 2
    36   25   26 1
    37   27   26 1
    38   27   28 1
    39   27   31 1
    40   28   29 1
    41   28   34 1
    42   29   30 1
    43   29   33 1
    44   30   31 1
    45   30   32 1
    46   32   36 1
    47   32   38 1
    48   35   36 2
    49   35   37 1
    50   37   38 2
    51   37   42 1
    52   38   39 1
    53   39   40 2
    54   40   41 1
    55   40   43 1
    56   41   42 1
    57   42   44 2
    58    1   53 1
    59    2   54 1
    60    3   55 1
    61    4   56 1
    62    7   57 1
    63    8   58 1
    64   10   59 1
    65   17   60 1
    66   18   61 1
    67   18   62 1
    68   26   63 1
    69   26   64 1
    70   27   65 1
    71   28   66 1
    72   29   67 1
    73   30   68 1
    74   33   69 1
    75   34   70 1
    76   36   71 1
    77   41   72 1
    78   43   73 1
    79   43   74 1
    80   45   75 1
    81   51   76 1
    82   51   77 1
    83   52   78 1
    84   52   79 1
    85   52   80 1
@<TRIPOS>PROPERTY_DATA
  Total_Score	| 8.6999
  Crash		| -1.5483
  Polar		| 10.5433
  FragIndex	| 1
  FragRMSD	| 1.035

