@<TRIPOS>MOLECULE
BindingDB_50386765
 54 57 0 0 0
SMALL
NO_CHARGES


@<TRIPOS>ATOM
1    N         1.5097    8.3079   12.4896  N     
2    C         0.9986    7.0910   12.2100  C     
3    C         1.8119    6.1315   12.8241  C     
4    N         2.8571    6.7719   13.3961  N     
5    C         0.9490    9.5716   12.0622  C     
6    N        -0.0686    6.7003   11.4306  N     
7    C         2.6376    8.0909   13.2106  C     
8    C         1.4692    4.7963   12.6926  C     
9    N         0.4285    4.4500   11.9319  N     
10   C        -0.2343   10.0587   12.9444  C     
11   C        -0.3306    5.3722   11.2754  C     
12   O         1.9546   10.6016   12.0582  O     
13   P         4.4382   11.7647   14.9192  P     
14   C         1.4242   11.7746   12.6821  C     
15   C         0.3618   11.2603   13.6749  C     
16   C         2.5624   12.6101   13.3131  C     
17   O         2.9285   12.0203   14.5853  O     
18   O         2.0918    3.9173   13.2686  O     
19   O         4.9230   12.7576   16.0049  O     
20   O         4.5008   10.3724   15.5861  O     
21   O         5.3657   11.7523   13.8005  O     
22   C         3.9977    6.1113   13.9675  C     
23   N        -1.3181    4.9540   10.4708  N     
24   O        -1.3632   10.4186   12.1513  O     
25   O        -0.5742   12.2681   14.0211  O     
26   C         5.2285    6.9584   14.3781  C     
27   O         6.4699    6.2525   14.2146  O     
28   C         6.8966    6.0803   12.9169  C     
29   C         7.1312    4.7797   12.4119  C     
30   C         7.1150    7.1908   12.0754  C     
31   C         7.5194    7.0036   10.7426  C     
32   C         7.5367    4.5988   11.0738  C     
33   C         7.7340    5.7078   10.2363  C     
34   H         0.6227    9.4579   11.0315  H     
35   H         3.2525    8.8382   13.5456  H     
36   H         0.2189    3.5005   11.8268  H     
37   H        -0.5411    9.2943   13.6668  H     
38   H         0.9419   12.3912   11.9112  H     
39   H         0.8421   10.9040   14.5939  H     
40   H         3.3712   12.6701   12.5756  H     
41   H         2.2163   13.6388   13.5015  H     
42   H         3.6640    5.5313   14.8393  H     
43   H         4.3459    5.3782   13.2236  H     
44   H        -1.4769    3.9988   10.3565  H     
45   H        -1.8501    5.5922    9.9735  H     
46   H        -2.0749   10.6545   12.7874  H     
47   H        -1.1793   11.8452   14.6652  H     
48   H         5.2457    7.9051   13.8245  H     
49   H         5.1364    7.2101   15.4303  H     
50   H         7.0058    3.9617   13.0104  H     
51   H         6.9685    8.1323   12.4400  H     
52   H         7.6527    7.8131   10.1347  H     
53   H         7.6853    3.6567   10.6939  H     
54   H         8.0227    5.5933    9.2643  H     
@<TRIPOS>BOND
     1    1    2 1
     2    5    1 1
     3    1    7 1
     4    2    3 2
     5    2    6 1
     6    3    4 1
     7    3    8 1
     8    4    7 2
     9    4   22 1
    10    5   10 1
    11    5   12 1
    12    6   11 2
    13    8    9 1
    14    8   18 2
    15    9   11 1
    16   10   15 1
    17   10   24 1
    18   11   23 1
    19   12   14 1
    20   13   17 1
    21   13   19 1
    22   13   20 1
    23   13   21 2
    24   14   15 1
    25   14   16 1
    26   15   25 1
    27   16   17 1
    28   22   26 1
    29   26   27 1
    30   27   28 1
    31   28   29 2
    32   28   30 1
    33   29   32 1
    34   30   31 2
    35   31   33 1
    36   32   33 2
    37    5   34 1
    38    7   35 1
    39    9   36 1
    40   10   37 1
    41   14   38 1
    42   15   39 1
    43   16   40 1
    44   16   41 1
    45   22   42 1
    46   22   43 1
    47   23   44 1
    48   23   45 1
    49   24   46 1
    50   25   47 1
    51   26   48 1
    52   26   49 1
    53   29   50 1
    54   30   51 1
    55   31   52 1
    56   32   53 1
    57   33   54 1
@<TRIPOS>PROPERTY_DATA
  Total_Score	| 10.0709
  Crash		| -1.6417
  Polar		| 7.0267
  FragIndex	| 1
  FragRMSD	| 0.289

