@<TRIPOS>MOLECULE
BindingDB_50316303
 44 46 0 0 0
SMALL
NO_CHARGES


@<TRIPOS>ATOM
1    N         1.3956    8.2535   12.3536  N     
2    C         0.8396    7.0552   12.0969  C     
3    C         1.6479    6.0655   12.6560  C     
4    N         2.7147    6.6697   13.2137  N     
5    C         0.8737    9.5325   11.9317  C     
6    N        -0.2902    6.7199   11.3947  N     
7    C         2.5596    7.9929   13.0006  C     
8    C         1.2603    4.7387   12.5121  C     
9    N         0.1484    4.4454   11.8392  N     
10   C        -0.3392   10.0923   12.7247  C     
11   C        -0.6302    5.4083   11.2737  C     
12   O         1.8356   10.5926   11.9775  O     
13   P         4.2672   12.5495   14.9158  P     
14   P         4.8911   15.0303   15.5269  P     
15   O         4.9857   13.5212   15.8926  O     
16   C         1.7501   11.2218   13.2700  C     
17   C         0.2746   11.0880   13.7312  C     
18   C         2.3295   12.6630   13.1971  C     
19   O         2.8829   13.1102   14.4498  O     
20   O         1.9090    3.8369   13.0126  O     
21   O         4.0693   11.2702   15.7412  O     
22   O         3.4585   15.5808   15.6790  O     
23   O         5.1789   12.1814   13.8582  O     
24   O         5.4172   15.3388   14.2235  O     
25   N        -1.7313    5.0536   10.5994  N     
26   C         3.8165    6.0337   13.8713  C     
27   O        -1.1644    9.0892   13.3289  O     
28   O         5.7531   15.7901   16.5467  O     
29   O         0.1868   10.6389   15.0914  O     
30   H         0.5730    9.4367   10.8868  H     
31   H         3.2459    8.6965   13.2763  H     
32   H        -0.1168    3.5117   11.7466  H     
33   H        -0.9717   10.6628   12.0229  H     
34   H         2.3761   10.6483   13.9589  H     
35   H        -0.2582   12.0423   13.6646  H     
36   H         3.0588   12.7387   12.3895  H     
37   H         1.5417   13.3643   12.9350  H     
38   H        -1.9693    4.1158   10.5357  H     
39   H        -2.2897    5.7254   10.1771  H     
40   H         3.4542    5.4781   14.7387  H     
41   H         4.3089    5.3385   13.1828  H     
42   H         4.5587    6.7613   14.2111  H     
43   H        -1.8205    9.5865   13.8638  H     
44   H         0.7015    9.8042   15.1172  H     
@<TRIPOS>BOND
     1    1    2 1
     2    5    1 1
     3    1    7 1
     4    2    3 2
     5    2    6 1
     6    3    8 1
     7    3    4 1
     8    4    7 2
     9    4   26 1
    10    5   10 1
    11    5   12 1
    12    6   11 2
    13    8   20 2
    14    8    9 1
    15    9   11 1
    16   10   17 1
    17   10   27 1
    18   11   25 1
    19   12   16 1
    20   13   19 1
    21   13   15 1
    22   13   21 1
    23   13   23 2
    24   14   15 1
    25   14   22 1
    26   14   24 2
    27   14   28 1
    28   16   18 1
    29   16   17 1
    30   17   29 1
    31   18   19 1
    32    5   30 1
    33    7   31 1
    34    9   32 1
    35   10   33 1
    36   16   34 1
    37   17   35 1
    38   18   36 1
    39   18   37 1
    40   25   38 1
    41   25   39 1
    42   26   40 1
    43   26   41 1
    44   26   42 1
    45   27   43 1
    46   29   44 1
@<TRIPOS>PROPERTY_DATA
  Total_Score	| 9.2722
  Crash		| -0.6755
  Polar		| 7.9993
  FragIndex	| 1
  FragRMSD	| 0.694

