@<TRIPOS>MOLECULE
BindingDB_50316304
 40 42 0 0 0
SMALL
NO_CHARGES


@<TRIPOS>ATOM
1    N         1.1603    8.3084   12.6647  N     
2    C         0.7388    7.1033   12.2373  C     
3    C         1.6395    6.1313   12.6841  C     
4    N         2.6355    6.7777   13.3274  N     
5    C         0.4165    9.5331   12.6037  C     
6    N        -0.3957    6.7445   11.5734  N     
7    C         2.3320    8.0955   13.2995  C     
8    C         1.3196    4.7941   12.4767  C     
9    N         0.1896    4.4760   11.8367  N     
10   C         1.0461   10.7259   11.8479  C     
11   C        -0.6709    5.4256   11.3664  C     
12   O         0.1238    9.9512   13.9445  O     
13   P         4.3641   11.7260   14.8907  P     
14   C         0.5226   11.3254   14.1379  C     
15   C         0.5636   11.9192   12.7046  C     
16   C         1.8061   11.3733   15.0287  C     
17   O         2.9328   12.0100   14.3590  O     
18   O         2.0472    3.9042   12.8895  O     
19   O         4.5882   10.2766   15.3732  O     
20   O         4.8978   12.7402   15.9257  O     
21   O         5.2151   11.8589   13.7343  O     
22   N        -1.7783    5.0850   10.6932  N     
23   C         3.7712    6.1872   13.9581  C     
24   O         2.4656   10.6554   11.7836  O     
25   O         1.3593   13.1004   12.5611  O     
26   H        -0.5626    9.3448   12.1441  H     
27   H         2.8906    8.8146   13.7570  H     
28   H        -0.0301    3.5364   11.7127  H     
29   H         0.6497   10.7994   10.8201  H     
30   H        -0.2902   11.8325   14.6693  H     
31   H        -0.4558   12.1795   12.3851  H     
32   H         2.0438   10.3463   15.3492  H     
33   H         1.5672   11.9440   15.9465  H     
34   H        -1.9918    4.1451   10.5496  H     
35   H        -2.3728    5.7837   10.3674  H     
36   H         3.4513    5.5583   14.7948  H     
37   H         4.4574    6.9453   14.3398  H     
38   H         4.3122    5.5697   13.2348  H     
39   H         2.7285   11.1880   10.9919  H     
40   H         1.2747   13.3551   11.6147  H     
@<TRIPOS>BOND
     1    1    2 1
     2    5    1 1
     3    1    7 1
     4    2    3 2
     5    2    6 1
     6    3    8 1
     7    3    4 1
     8    4    7 2
     9    4   23 1
    10    5   10 1
    11    5   12 1
    12    6   11 2
    13    8   18 2
    14    8    9 1
    15    9   11 1
    16   10   15 1
    17   10   24 1
    18   11   22 1
    19   12   14 1
    20   13   17 1
    21   13   19 1
    22   13   20 1
    23   13   21 2
    24   14   16 1
    25   14   15 1
    26   15   25 1
    27   16   17 1
    28    5   26 1
    29    7   27 1
    30    9   28 1
    31   10   29 1
    32   14   30 1
    33   15   31 1
    34   16   32 1
    35   16   33 1
    36   22   34 1
    37   22   35 1
    38   23   36 1
    39   23   37 1
    40   23   38 1
    41   24   39 1
    42   25   40 1
@<TRIPOS>PROPERTY_DATA
  Total_Score	| 8.2629
  Crash		| -0.3369
  Polar		| 7.0676
  FragIndex	| 1
  FragRMSD	| 1.386

