@<TRIPOS>MOLECULE
BindingDB_50386763
 53 56 0 0 0
SMALL
NO_CHARGES


@<TRIPOS>ATOM
1    N         1.3339    8.3744   12.4798  N     
2    C         0.9407    7.1299   12.1679  C     
3    C         1.6829    6.2227   12.9289  C     
4    N         2.5126    6.9454   13.7162  N     
5    C         0.7856    9.6164   11.9907  C     
6    N        -0.0491    6.6988   11.3265  N     
7    C         2.2783    8.2442   13.4326  C     
8    C         1.3813    4.8676   12.7974  C     
9    N         0.3984    4.4826   11.9832  N     
10   C        -0.3367   10.1775   12.9019  C     
11   C        -0.3171    5.3699   11.2391  C     
12   O         1.8278   10.6037   11.9105  O     
13   P         4.4792   11.7109   14.9652  P     
14   C         1.4346   11.7723   12.6369  C     
15   C         0.3562   11.3250   13.6425  C     
16   C         3.3999    6.5067   14.7632  C     
17   C         2.6795   12.4453   13.2704  C     
18   O         2.9816   11.8158   14.5449  O     
19   O         1.9883    4.0123   13.4130  O     
20   O         4.6516   10.3346   15.6333  O     
21   O         4.9306   12.7412   16.0165  O     
22   O         5.3538   11.7329   13.8300  O     
23   N        -1.2919    4.9187   10.4373  N     
24   O        -1.4336   10.6567   12.1239  O     
25   O        -0.5192   12.3881   14.0068  O     
26   C         7.3884    5.8019   11.4499  C     
27   C         4.8394    7.0864   14.7039  C     
28   C         5.6766    6.6536   13.5481  C     
29   Cl        8.4173    5.2890   10.2090  Cl    
30   C         7.3108    7.1675   11.7928  C     
31   C         6.6093    4.8669   12.1565  C     
32   C         6.4599    7.5887   12.8328  C     
33   C         5.7615    5.2877   13.1961  C     
34   H         0.3996    9.4580   10.9791  H     
35   H         2.7344    9.0315   13.9015  H     
36   H         0.1787    3.5384   11.9212  H     
37   H        -0.7133    9.4307   13.6068  H     
38   H         0.9953   12.4609   11.9094  H     
39   H         0.8105   10.9319   14.5531  H     
40   H         2.9551    6.8101   15.7178  H     
41   H         3.4606    5.4162   14.7989  H     
42   H         3.5031   12.3448   12.5465  H     
43   H         2.4886   13.5196   13.4193  H     
44   H        -1.4933    3.9668   10.4082  H     
45   H        -1.8073    5.5371    9.8949  H     
46   H        -1.8405    9.8507   11.7387  H     
47   H         0.0624   13.0909   14.3648  H     
48   H         4.7641    8.1753   14.7387  H     
49   H         5.3590    6.7960   15.6161  H     
50   H         7.8742    7.8531   11.2849  H     
51   H         6.6444    3.8787   11.9089  H     
52   H         6.4331    8.5856   13.0703  H     
53   H         5.2201    4.5869   13.6986  H     
@<TRIPOS>BOND
     1    1    2 1
     2    5    1 1
     3    1    7 1
     4    2    3 2
     5    2    6 1
     6    3    4 1
     7    3    8 1
     8    4    7 2
     9    4   16 1
    10    5   10 1
    11    5   12 1
    12    6   11 2
    13    8    9 1
    14    8   19 2
    15    9   11 1
    16   10   15 1
    17   10   24 1
    18   11   23 1
    19   12   14 1
    20   13   18 1
    21   13   20 1
    22   13   21 1
    23   13   22 2
    24   14   15 1
    25   14   17 1
    26   15   25 1
    27   16   27 1
    28   17   18 1
    29   26   29 1
    30   26   30 1
    31   26   31 2
    32   27   28 1
    33   28   32 1
    34   28   33 2
    35   30   32 2
    36   31   33 1
    37    5   34 1
    38    7   35 1
    39    9   36 1
    40   10   37 1
    41   14   38 1
    42   15   39 1
    43   16   40 1
    44   16   41 1
    45   17   42 1
    46   17   43 1
    47   23   44 1
    48   23   45 1
    49   24   46 1
    50   25   47 1
    51   27   48 1
    52   27   49 1
    53   30   50 1
    54   31   51 1
    55   32   52 1
    56   33   53 1
@<TRIPOS>PROPERTY_DATA
  Total_Score	| 11.1223
  Crash		| -1.0342
  Polar		| 8.3540
  FragIndex	| 1
  FragRMSD	| 0.374

