@<TRIPOS>MOLECULE
BindingDB_50316318
 53 56 0 0 0
SMALL
NO_CHARGES


@<TRIPOS>ATOM
1    N         0.9743    8.4037   12.4194  N     
2    C         0.5803    7.1490   12.1320  C     
3    N         2.3991    6.9653   13.3850  N     
4    C         1.4690    6.2413   12.7185  C     
5    C         0.3361    9.6346   12.0064  C     
6    N        -0.4872    6.7136   11.4064  N     
7    C         2.0477    8.2642   13.2233  C     
8    C         1.2285    4.8778   12.5282  C     
9    N         0.1744    4.4895   11.8041  N     
10   C         1.2850   10.8418   11.8664  C     
11   C        -0.6827    5.3796   11.2449  C     
12   O        -0.2558    9.5401   10.6995  O     
13   P        -3.1209    9.2494    8.8827  P     
14   C        -0.4219   10.8628   10.1514  C     
15   C         0.4848   11.8145   10.9770  C     
16   C         3.5122    6.5044   14.1808  C     
17   C        -1.9275   11.2368   10.0597  C     
18   O        -2.5546   10.7027    8.8817  O     
19   O         1.9609    4.0275   13.0049  O     
20   O        -2.5746    8.3091    9.9750  O     
21   O        -2.7798    8.6449    7.5077  O     
22   O        -4.5582    9.2972    8.9708  O     
23   N        -1.7192    4.9391   10.5165  N     
24   C         4.8577    6.7912   13.5936  C     
25   O         1.6604   11.4149   13.1202  O     
26   O        -0.2285   12.7494   11.7902  O     
27   C         5.7305    5.7372   13.2328  C     
28   C         7.0147    5.9926   12.7045  C     
29   C         6.5816    8.3880   12.8703  C     
30   C         5.3166    8.1190   13.4203  C     
31   C         7.4347    7.3277   12.5253  C     
32   C         7.9052    4.8631   12.3546  C     
33   H        -0.4599    9.8693   12.7187  H     
34   H         2.5261    9.0397   13.6752  H     
35   H         0.0121    3.5424   11.6720  H     
36   H         2.1941   10.5329   11.3412  H     
37   H        -0.0301   10.8396    9.1275  H     
38   H         1.1678   12.3750   10.3286  H     
39   H         3.4583    6.9876   15.1629  H     
40   H         3.3989    5.4334   14.3747  H     
41   H        -2.4590   10.9690   10.9803  H     
42   H        -2.0064   12.3222    9.9494  H     
43   H        -2.3425    5.5621   10.1110  H     
44   H        -1.8455    3.9863   10.3997  H     
45   H         2.2856   12.1379   12.8934  H     
46   H        -0.5591   13.4345   11.1717  H     
47   H         5.4310    4.7664   13.3563  H     
48   H         6.8935    9.3522   12.7464  H     
49   H         4.7416    8.9102   13.7106  H     
50   H         8.3714    7.5411   12.1630  H     
51   H         7.4259    4.2367   11.5999  H     
52   H         8.1047    4.2575   13.2435  H     
53   H         8.8619    5.2063   11.9586  H     
@<TRIPOS>BOND
     1    1    2 1
     2    5    1 1
     3    1    7 1
     4    2    4 2
     5    2    6 1
     6    3    7 2
     7    3   16 1
     8    3    4 1
     9    4    8 1
    10    5   10 1
    11    5   12 1
    12    6   11 2
    13    8    9 1
    14    8   19 2
    15    9   11 1
    16   10   15 1
    17   10   25 1
    18   11   23 1
    19   12   14 1
    20   13   18 1
    21   13   20 1
    22   13   21 1
    23   13   22 2
    24   14   17 1
    25   14   15 1
    26   15   26 1
    27   16   24 1
    28   17   18 1
    29   24   27 1
    30   24   30 2
    31   27   28 2
    32   28   31 1
    33   28   32 1
    34   29   30 1
    35   29   31 2
    36    5   33 1
    37    7   34 1
    38    9   35 1
    39   10   36 1
    40   14   37 1
    41   15   38 1
    42   16   39 1
    43   16   40 1
    44   17   41 1
    45   17   42 1
    46   23   43 1
    47   23   44 1
    48   25   45 1
    49   26   46 1
    50   27   47 1
    51   29   48 1
    52   30   49 1
    53   31   50 1
    54   32   51 1
    55   32   52 1
    56   32   53 1
@<TRIPOS>PROPERTY_DATA
  Total_Score	| 9.8528
  Crash		| -1.0905
  Polar		| 5.4791
  FragIndex	| 1
  FragRMSD	| 0.354

