@<TRIPOS>MOLECULE
BindingDB_35569
 50 54 0 0 0
SMALL
NO_CHARGES


@<TRIPOS>ATOM
1    C        35.3133   -1.0847   73.5586  C     
2    C        34.2140   -0.7361   72.7740  C     
3    C        34.0973    0.5479   72.1832  C     
4    C        35.0801    1.5181   72.5018  C     
5    C        36.1934    1.1715   73.3346  C     
6    C        36.3384   -0.1553   73.8253  C     
7    C        34.9255    2.8920   72.1716  C     
8    C        35.8675    3.8527   72.5671  C     
9    C        36.9768    3.4777   73.3338  C     
10   C        37.1554    2.1401   73.7437  C     
11   C        37.4674   -0.4826   74.5979  C     
12   C        38.2456    1.7402   74.5354  C     
13   N        38.3989    0.4528   74.9006  N     
14   C        39.5579    0.0495   75.5607  C     
15   C        41.0394    0.0796   77.5113  C     
16   C        39.8835    0.5319   76.8492  C     
17   C        40.4072   -0.9010   74.9559  C     
18   C        41.5655   -1.3598   75.6168  C     
19   C        41.8847   -0.8612   76.8931  C     
20   N        32.9489    0.6959   71.4360  N     
21   C        32.7480    0.7222   70.0196  C     
22   O        37.5900   -1.6417   74.9853  O     
23   O        39.0621    2.5849   74.8844  O     
24   Br       42.6500   -2.6302   74.8021  Br    
25   C        32.0697    2.2647   68.0972  C     
26   N        30.9005    1.3966   67.8232  N     
27   C        31.1220   -0.0284   68.1686  C     
28   C        31.5327   -0.1917   69.6535  C     
29   C        32.4421    2.1887   69.5989  C     
30   H        35.3665   -2.0398   73.9351  H     
31   H        33.5304   -1.4707   72.5690  H     
32   H        34.0976    3.2340   71.6980  H     
33   H        35.7327    4.8359   72.3173  H     
34   H        37.6230    4.2111   73.6330  H     
35   H        41.2634    0.4202   78.4446  H     
36   H        39.2687    1.2049   77.3146  H     
37   H        40.1816   -1.2718   74.0299  H     
38   H        42.7182   -1.2029   77.3776  H     
39   H        32.1323    0.5440   71.9378  H     
40   H        33.6061    0.3178   69.4792  H     
41   H        32.9231    1.9530   67.4807  H     
42   H        31.8159    3.2977   67.8339  H     
43   H        30.1138    1.7449   68.3795  H     
44   H        30.6552    1.4681   66.8329  H     
45   H        30.1903   -0.5751   67.9836  H     
46   H        31.8931   -0.4517   67.5203  H     
47   H        31.7793   -1.2444   69.8417  H     
48   H        30.6671    0.0605   70.2758  H     
49   H        31.5935    2.5820   70.1806  H     
50   H        33.3041    2.8310   69.7917  H     
@<TRIPOS>BOND
     1    1    2 1
     2    1    6 2
     3    2    3 2
     4    3    4 1
     5    3   20 1
     6    4    5 2
     7    4    7 1
     8    5    6 1
     9    5   10 1
    10    6   11 1
    11    7    8 2
    12    8    9 1
    13    9   10 2
    14   10   12 1
    15   11   13 1
    16   11   22 2
    17   12   13 1
    18   12   23 2
    19   13   14 1
    20   14   16 1
    21   14   17 2
    22   15   16 2
    23   15   19 1
    24   17   18 1
    25   18   19 2
    26   18   24 1
    27   20   21 1
    28   21   28 1
    29   21   29 1
    30   25   26 1
    31   25   29 1
    32   26   27 1
    33   27   28 1
    34    1   30 1
    35    2   31 1
    36    7   32 1
    37    8   33 1
    38    9   34 1
    39   15   35 1
    40   16   36 1
    41   17   37 1
    42   19   38 1
    43   20   39 1
    44   21   40 1
    45   25   41 1
    46   25   42 1
    47   26   43 1
    48   26   44 1
    49   27   45 1
    50   27   46 1
    51   28   47 1
    52   28   48 1
    53   29   49 1
    54   29   50 1
@<TRIPOS>PROPERTY_DATA
  Total_Score	| 6.1043
  Crash		| -1.6114
  Polar		| 0.0000
  FragIndex	| 1
  FragRMSD	| 0.255

