@<TRIPOS>MOLECULE
BindingDB_35567
 50 54 0 0 0
SMALL
NO_CHARGES


@<TRIPOS>ATOM
1    C        35.3018   -1.0838   73.5368  C     
2    C        34.2160   -0.7252   72.7240  C     
3    C        34.0902    0.5698   72.1725  C     
4    C        35.0771    1.5432   72.5274  C     
5    C        36.1817    1.1755   73.3721  C     
6    C        36.3047   -0.1519   73.8588  C     
7    C        35.0130    2.9115   72.1419  C     
8    C        35.9831    3.8540   72.5292  C     
9    C        37.0516    3.4634   73.3351  C     
10   C        37.1701    2.1221   73.7692  C     
11   C        37.4230   -0.4978   74.6429  C     
12   C        38.2473    1.7050   74.5775  C     
13   N        38.3744    0.4110   74.9502  N     
14   C        39.5328    0.0054   75.5925  C     
15   C        41.0760    0.0426   77.4935  C     
16   C        39.8974    0.4944   76.8681  C     
17   C        40.3763   -0.9330   74.9550  C     
18   C        41.5486   -1.3918   75.5837  C     
19   C        41.8967   -0.9062   76.8571  C     
20   N        32.9933    0.6412   71.3578  N     
21   C        32.8078    0.6517   69.9484  C     
22   O        37.5231   -1.6589   75.0471  O     
23   O        39.0989    2.5311   74.8923  O     
24   Br       42.6191   -2.6498   74.7267  Br    
25   C        32.5231    2.1350   67.8640  C     
26   C        31.2066    1.3960   67.5103  C     
27   C        31.2098   -0.0566   68.0668  C     
28   C        31.4794   -0.0786   69.5979  C     
29   C        32.7706    2.1134   69.3950  C     
30   H        35.3444   -2.0502   73.8832  H     
31   H        33.5171   -1.4491   72.5273  H     
32   H        34.2204    3.2900   71.6108  H     
33   H        35.9029    4.8223   72.2269  H     
34   H        37.7431    4.1718   73.6085  H     
35   H        41.3318    0.3967   78.4180  H     
36   H        39.3061    1.1769   77.3462  H     
37   H        40.1367   -1.2877   74.0263  H     
38   H        42.7430   -1.2466   77.3172  H     
39   H        32.1473    0.7803   71.8484  H     
40   H        33.5994    0.0597   69.4672  H     
41   H        33.3631    1.6530   67.3482  H     
42   H        32.4569    3.1662   67.5131  H     
43   H        30.3569    1.9422   67.9380  H     
44   H        31.0755    1.3683   66.4242  H     
45   H        30.2409   -0.5244   67.8605  H     
46   H        31.9843   -0.6389   67.5543  H     
47   H        31.5309   -1.1212   69.9448  H     
48   H        30.6412    0.4002   70.1192  H     
49   H        31.9632    2.6628   69.8853  H     
50   H        33.7131    2.6254   69.6204  H     
@<TRIPOS>BOND
     1    1    2 1
     2    1    6 2
     3    2    3 2
     4    3    4 1
     5    3   20 1
     6    4    5 2
     7    4    7 1
     8    5    6 1
     9    5   10 1
    10    6   11 1
    11    7    8 2
    12    8    9 1
    13    9   10 2
    14   10   12 1
    15   11   13 1
    16   11   22 2
    17   12   13 1
    18   12   23 2
    19   13   14 1
    20   14   16 1
    21   14   17 2
    22   15   16 2
    23   15   19 1
    24   17   18 1
    25   18   19 2
    26   18   24 1
    27   20   21 1
    28   21   28 1
    29   21   29 1
    30   25   26 1
    31   25   29 1
    32   26   27 1
    33   27   28 1
    34    1   30 1
    35    2   31 1
    36    7   32 1
    37    8   33 1
    38    9   34 1
    39   15   35 1
    40   16   36 1
    41   17   37 1
    42   19   38 1
    43   20   39 1
    44   21   40 1
    45   25   41 1
    46   25   42 1
    47   26   43 1
    48   26   44 1
    49   27   45 1
    50   27   46 1
    51   28   47 1
    52   28   48 1
    53   29   49 1
    54   29   50 1
@<TRIPOS>PROPERTY_DATA
  Total_Score	| 6.3011
  Crash		| -1.8190
  Polar		| 0.0000
  FragIndex	| 1
  FragRMSD	| 0.216

