@<TRIPOS>MOLECULE
BindingDB_35570
 63 68 0 0 0
SMALL
NO_CHARGES


@<TRIPOS>ATOM
1    C        35.2267   -1.1036   73.5217  C     
2    C        34.1666   -0.7370   72.6771  C     
3    C        34.0283    0.5898   72.2182  C     
4    C        34.9742    1.5655   72.6473  C     
5    C        36.0977    1.1702   73.4382  C     
6    C        36.2181   -0.1687   73.8958  C     
7    C        34.8813    2.9240   72.2513  C     
8    C        35.8546    3.8586   72.6255  C     
9    C        36.9767    3.4511   73.3563  C     
10   C        37.1217    2.1029   73.7640  C     
11   C        37.3236   -0.5062   74.6917  C     
12   C        38.2447    1.6437   74.4663  C     
13   N        38.3285    0.3728   74.9156  N     
14   C        39.4745   -0.0444   75.5859  C     
15   C        41.0069    0.0616   77.4998  C     
16   C        39.8158    0.4627   76.8638  C     
17   C        40.3529   -0.9679   74.9714  C     
18   C        41.5312   -1.3854   75.6132  C     
19   C        41.8664   -0.8588   76.8738  C     
20   N        33.0032    0.9370   71.3896  N     
21   C        32.8952    0.6654   69.9796  C     
22   O        37.3559   -1.6250   75.1969  O     
23   O        39.1800    2.4244   74.6307  O     
24   Br       42.6341   -2.6283   74.7769  Br    
25   C        32.7065    1.9663   67.7414  C     
26   N        31.3573    1.3488   67.5593  N     
27   C        31.3018   -0.0456   68.1004  C     
28   C        31.5482   -0.0231   69.6373  C     
29   C        33.0451    2.0416   69.2559  C     
30   C        30.6994    1.5634   66.2275  C     
31   C        30.8316    0.6272   65.0713  C     
32   C        31.0105   -0.9944   62.7392  C     
33   C        30.1139    0.0845   62.7749  C     
34   C        30.0210    0.8797   63.9344  C     
35   C        31.6965   -0.4902   65.0271  C     
36   C        31.8025   -1.2823   63.8657  C     
37   H        35.2712   -2.0706   73.8492  H     
38   H        33.4641   -1.4401   72.4415  H     
39   H        34.1066    3.2666   71.6808  H     
40   H        35.7462    4.8393   72.3617  H     
41   H        37.6811    4.1515   73.5957  H     
42   H        41.2458    0.4426   78.4190  H     
43   H        39.1977    1.1299   77.3337  H     
44   H        40.1397   -1.3358   74.0406  H     
45   H        42.7345   -1.1433   77.3359  H     
46   H        32.4369    1.6602   71.6886  H     
47   H        33.7081    0.0197   69.6300  H     
48   H        33.4819    1.4002   67.2198  H     
49   H        32.7145    2.9871   67.3396  H     
50   H        30.7566    1.8773   68.1948  H     
51   H        30.3164   -0.4897   67.9238  H     
52   H        32.0587   -0.6711   67.6178  H     
53   H        31.5534   -1.0517   70.0173  H     
54   H        30.7278    0.5166   70.1176  H     
55   H        32.3709    2.7797   69.7079  H     
56   H        34.0687    2.4077   69.3739  H     
57   H        29.6239    1.6994   66.4096  H     
58   H        31.0697    2.5340   65.8803  H     
59   H        31.0841   -1.5718   61.8970  H     
60   H        29.5213    0.2853   61.9644  H     
61   H        29.3667    1.6646   63.9248  H     
62   H        32.2830   -0.7368   65.8162  H     
63   H        32.4665   -2.0656   63.8358  H     
@<TRIPOS>BOND
     1    1    2 1
     2    1    6 2
     3    2    3 2
     4    3    4 1
     5    3   20 1
     6    4    5 2
     7    4    7 1
     8    5    6 1
     9    5   10 1
    10    6   11 1
    11    7    8 2
    12    8    9 1
    13    9   10 2
    14   10   12 1
    15   11   13 1
    16   11   22 2
    17   12   13 1
    18   12   23 2
    19   13   14 1
    20   14   16 1
    21   14   17 2
    22   15   16 2
    23   15   19 1
    24   17   18 1
    25   18   19 2
    26   18   24 1
    27   20   21 1
    28   21   28 1
    29   21   29 1
    30   25   26 1
    31   25   29 1
    32   26   27 1
    33   26   30 1
    34   27   28 1
    35   30   31 1
    36   31   34 1
    37   31   35 2
    38   32   33 1
    39   32   36 2
    40   33   34 2
    41   35   36 1
    42    1   37 1
    43    2   38 1
    44    7   39 1
    45    8   40 1
    46    9   41 1
    47   15   42 1
    48   16   43 1
    49   17   44 1
    50   19   45 1
    51   20   46 1
    52   21   47 1
    53   25   48 1
    54   25   49 1
    55   26   50 1
    56   27   51 1
    57   27   52 1
    58   28   53 1
    59   28   54 1
    60   29   55 1
    61   29   56 1
    62   30   57 1
    63   30   58 1
    64   32   59 1
    65   33   60 1
    66   34   61 1
    67   35   62 1
    68   36   63 1
@<TRIPOS>PROPERTY_DATA
  Total_Score	| 6.7343
  Crash		| -2.6964
  Polar		| 0.0000
  FragIndex	| 1
  FragRMSD	| 0.269

