@<TRIPOS>MOLECULE
BindingDB_35560
 44 47 0 0 0
SMALL
NO_CHARGES


@<TRIPOS>ATOM
1    C        35.3279   -1.2691   73.8254  C     
2    C        34.2152   -0.9792   73.0372  C     
3    C        34.0780    0.2563   72.3815  C     
4    C        35.0319    1.2871   72.6802  C     
5    C        36.1958    0.9759   73.4589  C     
6    C        36.3744   -0.3306   73.9911  C     
7    C        34.8011    2.6596   72.3945  C     
8    C        35.7243    3.6588   72.7525  C     
9    C        36.9043    3.3115   73.4209  C     
10   C        37.1544    1.9743   73.7995  C     
11   C        37.5489   -0.6194   74.7123  C     
12   C        38.3036    1.5997   74.5176  C     
13   N        38.4936    0.3267   74.9251  N     
14   O        37.6923   -1.7587   75.1494  O     
15   O        39.1519    2.4626   74.7379  O     
16   C        39.6877   -0.0310   75.5343  C     
17   C        41.3190    0.1651   77.3591  C     
18   C        40.1132    0.5636   76.7459  C     
19   C        40.5071   -1.0259   74.9508  C     
20   C        41.7041   -1.4342   75.5632  C     
21   C        42.1166   -0.8324   76.7670  C     
22   Br       42.7090   -2.7886   74.7772  Br    
23   N        33.0099    0.3630   71.5366  N     
24   C        32.8674    1.1534   70.3354  C     
25   C        32.4706    0.3019   69.0887  C     
26   O        33.5434    0.1255   68.1519  O     
27   C        34.0371    1.3012   67.4887  C     
28   H        35.3812   -2.1919   74.2476  H     
29   H        33.4942   -1.6852   72.9013  H     
30   H        33.9119    2.9714   71.9997  H     
31   H        35.5198    4.6421   72.5427  H     
32   H        37.5532    4.0550   73.6695  H     
33   H        41.6169    0.5973   78.2348  H     
34   H        39.5386    1.2790   77.1975  H     
35   H        40.2215   -1.4751   74.0787  H     
36   H        42.9908   -1.1261   77.2116  H     
37   H        32.2993   -0.2919   71.7157  H     
38   H        32.0961    1.9159   70.5610  H     
39   H        33.8031    1.6843   70.1178  H     
40   H        32.1588   -0.6930   69.3856  H     
41   H        31.6191    0.7657   68.6177  H     
42   H        33.2302    1.7660   66.9052  H     
43   H        34.8449    1.0064   66.8001  H     
44   H        34.4319    2.0082   68.2223  H     
@<TRIPOS>BOND
     1    1    2 1
     2    1    6 2
     3    2    3 2
     4    3    4 1
     5    3   23 1
     6    4    5 2
     7    4    7 1
     8    5    6 1
     9    5   10 1
    10    6   11 1
    11    7    8 2
    12    8    9 1
    13    9   10 2
    14   10   12 1
    15   11   13 1
    16   11   14 2
    17   12   13 1
    18   12   15 2
    19   13   16 1
    20   16   18 1
    21   16   19 2
    22   17   18 2
    23   17   21 1
    24   19   20 1
    25   20   21 2
    26   20   22 1
    27   23   24 1
    28   24   25 1
    29   25   26 1
    30   26   27 1
    31    1   28 1
    32    2   29 1
    33    7   30 1
    34    8   31 1
    35    9   32 1
    36   17   33 1
    37   18   34 1
    38   19   35 1
    39   21   36 1
    40   23   37 1
    41   24   38 1
    42   24   39 1
    43   25   40 1
    44   25   41 1
    45   27   42 1
    46   27   43 1
    47   27   44 1
@<TRIPOS>PROPERTY_DATA
  Total_Score	| 6.3285
  Crash		| -1.6677
  Polar		| 0.8596
  FragIndex	| 1
  FragRMSD	| 0.244

