@<TRIPOS>MOLECULE
BindingDB_35563
 41 44 0 0 0
SMALL
NO_CHARGES


@<TRIPOS>ATOM
1    C        35.5071   -1.2837   73.7544  C     
2    C        34.3527   -0.8812   73.0716  C     
3    C        34.2033    0.4378   72.5831  C     
4    C        35.2603    1.3655   72.7922  C     
5    C        36.4015    0.9781   73.5551  C     
6    C        36.5302   -0.3522   74.0416  C     
7    C        35.2076    2.6991   72.3008  C     
8    C        36.1823    3.6351   72.6471  C     
9    C        37.2670    3.2626   73.4490  C     
10   C        37.3931    1.9281   73.9203  C     
11   C        37.6785   -0.6891   74.7864  C     
12   C        38.4815    1.5137   74.7096  C     
13   N        38.6328    0.2257   75.0793  N     
14   C        39.7957   -0.1712   75.7105  C     
15   C        41.3817   -0.0488   77.5731  C     
16   C        40.1811    0.3609   76.9632  C     
17   C        40.6431   -1.1031   75.0784  C     
18   C        41.8313   -1.5343   75.6956  C     
19   C        42.2102   -0.9963   76.9415  C     
20   Cl       42.8156   -2.6889   74.9332  Cl    
21   N        33.0816    0.8127   71.9119  N     
22   C        31.7373    0.3553   72.1301  C     
23   C        31.0786   -0.1676   70.8254  C     
24   O        29.7313   -0.6016   71.0895  O     
25   O        37.7946   -1.8511   75.1716  O     
26   O        39.3172    2.3578   75.0184  O     
27   H        35.5735   -2.2507   74.0789  H     
28   H        33.6462   -1.5907   72.8808  H     
29   H        34.4252    3.0383   71.7453  H     
30   H        36.1057    4.6029   72.3126  H     
31   H        37.9620    3.9767   73.6918  H     
32   H        41.6674    0.3484   78.4798  H     
33   H        39.6007    1.0502   77.4426  H     
34   H        40.3864   -1.4835   74.1720  H     
35   H        43.0704   -1.3164   77.4071  H     
36   H        33.1330    1.5955   71.3550  H     
37   H        31.6601   -0.4055   72.9255  H     
38   H        31.1396    1.1949   72.4946  H     
39   H        31.0468    0.6260   70.0598  H     
40   H        31.6448   -1.0168   70.4355  H     
41   H        29.3589    0.0727   71.6922  H     
@<TRIPOS>BOND
     1    1    2 1
     2    1    6 2
     3    2    3 2
     4    3    4 1
     5    3   21 1
     6    4    5 2
     7    4    7 1
     8    5    6 1
     9    5   10 1
    10    6   11 1
    11    7    8 2
    12    8    9 1
    13    9   10 2
    14   10   12 1
    15   11   13 1
    16   11   25 2
    17   12   13 1
    18   12   26 2
    19   13   14 1
    20   14   16 1
    21   14   17 2
    22   15   16 2
    23   15   19 1
    24   17   18 1
    25   18   19 2
    26   18   20 1
    27   21   22 1
    28   22   23 1
    29   23   24 1
    30    1   27 1
    31    2   28 1
    32    7   29 1
    33    8   30 1
    34    9   31 1
    35   15   32 1
    36   16   33 1
    37   17   34 1
    38   19   35 1
    39   21   36 1
    40   22   37 1
    41   22   38 1
    42   23   39 1
    43   23   40 1
    44   24   41 1
@<TRIPOS>PROPERTY_DATA
  Total_Score	| 4.8250
  Crash		| -1.5158
  Polar		| 1.1213
  FragIndex	| 1
  FragRMSD	| 0.184

