@<TRIPOS>MOLECULE
BindingDB_35568
 46 49 0 0 0
SMALL
NO_CHARGES


@<TRIPOS>ATOM
1    C        37.0837    3.3481   73.3285  C     
2    C        35.9544    3.7226   72.6050  C     
3    C        35.0251    2.7851   72.1693  C     
4    C        35.1491    1.4257   72.5953  C     
5    C        36.2723    1.0405   73.3939  C     
6    C        37.2658    2.0098   73.7427  C     
7    C        34.1033    0.4821   72.4357  C     
8    C        34.2141   -0.8229   72.9293  C     
9    C        35.3569   -1.2001   73.6476  C     
10   C        36.3837   -0.2592   73.9230  C     
11   C        38.3662    1.6000   74.5083  C     
12   C        37.5084   -0.5870   74.7076  C     
13   N        38.4744    0.3238   74.9416  N     
14   C        39.6220   -0.0735   75.6178  C     
15   C        41.0927    0.0155   77.5709  C     
16   C        39.9310    0.4335   76.8982  C     
17   C        40.5080   -0.9963   75.0176  C     
18   C        41.6597   -1.4293   75.6907  C     
19   C        41.9555   -0.9260   76.9733  C     
20   N        33.9966    3.2915   71.4369  N     
21   C        33.7301    3.0053   70.0644  C     
22   O        39.2701    2.4033   74.7184  O     
23   O        37.5552   -1.7066   75.1980  O     
24   Br       42.7277   -2.7009   74.8508  Br    
25   C        34.5707    3.8660   69.0447  C     
26   N        35.6071    3.1181   68.2964  N     
27   C        35.1218    1.9747   67.4635  C     
28   H        37.7653    4.0628   73.5754  H     
29   H        35.8082    4.6944   72.3055  H     
30   H        33.2035    0.7586   72.0338  H     
31   H        33.4489   -1.4920   72.7793  H     
32   H        35.3997   -2.1519   74.0050  H     
33   H        41.3008    0.3870   78.5007  H     
34   H        39.3079    1.1137   77.3397  H     
35   H        40.3133   -1.3665   74.0870  H     
36   H        42.7895   -1.2455   77.4739  H     
37   H        33.6593    4.1561   71.7809  H     
38   H        33.8585    1.9395   69.8469  H     
39   H        32.6661    3.1758   69.9547  H     
40   H        33.8988    4.3222   68.3267  H     
41   H        35.0763    4.6946   69.5529  H     
42   H        36.0815    3.7760   67.6651  H     
43   H        36.3028    2.7835   68.9661  H     
44   H        34.8192    1.1104   68.0589  H     
45   H        35.9202    1.6503   66.7942  H     
46   H        34.2589    2.2548   66.8517  H     
@<TRIPOS>BOND
     1    1    2 1
     2    1    6 2
     3    2    3 2
     4    3    4 1
     5    3   20 1
     6    4    5 2
     7    4    7 1
     8    5    6 1
     9    5   10 1
    10    6   11 1
    11    7    8 2
    12    8    9 1
    13    9   10 2
    14   10   12 1
    15   11   13 1
    16   11   22 2
    17   12   13 1
    18   12   23 2
    19   13   14 1
    20   14   16 1
    21   14   17 2
    22   15   16 2
    23   15   19 1
    24   17   18 1
    25   18   19 2
    26   18   24 1
    27   20   21 1
    28   21   25 1
    29   25   26 1
    30   26   27 1
    31    1   28 1
    32    2   29 1
    33    7   30 1
    34    8   31 1
    35    9   32 1
    36   15   33 1
    37   16   34 1
    38   17   35 1
    39   19   36 1
    40   20   37 1
    41   21   38 1
    42   21   39 1
    43   25   40 1
    44   25   41 1
    45   26   42 1
    46   26   43 1
    47   27   44 1
    48   27   45 1
    49   27   46 1
@<TRIPOS>PROPERTY_DATA
  Total_Score	| 6.5492
  Crash		| -2.1803
  Polar		| 1.1904
  FragIndex	| 1
  FragRMSD	| 0.162

