@<TRIPOS>MOLECULE
BindingDB_35556
 32 35 0 0 0
SMALL
NO_CHARGES


@<TRIPOS>ATOM
1    C        37.0826    3.3201   73.3116  C     
2    C        35.9826    3.6546   72.5054  C     
3    C        35.0165    2.6870   72.1912  C     
4    C        35.1372    1.3740   72.6916  C     
5    C        36.2519    1.0329   73.5120  C     
6    C        37.2409    2.0069   73.8180  C     
7    C        34.1662    0.3962   72.3896  C     
8    C        34.2872   -0.9034   72.9060  C     
9    C        35.3800   -1.2390   73.7218  C     
10   C        36.3813   -0.2840   74.0282  C     
11   C        38.3463    1.6141   74.5894  C     
12   C        37.5115   -0.5814   74.8041  C     
13   N        38.4762    0.3417   75.0271  N     
14   O        39.2206    2.4472   74.8162  O     
15   O        37.6077   -1.7115   75.2763  O     
16   C        39.6523   -0.0470   75.6517  C     
17   C        41.2102    0.0121   77.5448  C     
18   C        40.0197    0.4465   76.9275  C     
19   C        40.5046   -0.9755   75.0082  C     
20   C        41.6833   -1.4232   75.6292  C     
21   C        42.0388   -0.9276   76.8990  C     
22   Br       42.7089   -2.7194   74.7813  Br    
23   H        37.7688    4.0475   73.5224  H     
24   H        35.8872    4.6037   72.1396  H     
25   H        34.2242    2.9510   71.5996  H     
26   H        33.3624    0.6228   71.7977  H     
27   H        33.5790   -1.6086   72.6861  H     
28   H        35.4374   -2.1935   74.0843  H     
29   H        41.4625    0.3654   78.4740  H     
30   H        39.4151    1.1139   77.4149  H     
31   H        40.2546   -1.3459   74.0875  H     
32   H        42.8907   -1.2582   77.3584  H     
@<TRIPOS>BOND
     1    1    2 1
     2    1    6 2
     3    2    3 2
     4    3    4 1
     5    4    5 2
     6    4    7 1
     7    5    6 1
     8    5   10 1
     9    6   11 1
    10    7    8 2
    11    8    9 1
    12    9   10 2
    13   10   12 1
    14   11   13 1
    15   11   14 2
    16   12   13 1
    17   12   15 2
    18   13   16 1
    19   16   18 1
    20   16   19 2
    21   17   18 2
    22   17   21 1
    23   19   20 1
    24   20   21 2
    25   20   22 1
    26    1   23 1
    27    2   24 1
    28    3   25 1
    29    7   26 1
    30    8   27 1
    31    9   28 1
    32   17   29 1
    33   18   30 1
    34   19   31 1
    35   21   32 1
@<TRIPOS>PROPERTY_DATA
  Total_Score	| 4.7798
  Crash		| -1.0162
  Polar		| 0.0000
  FragIndex	| 1
  FragRMSD	| 0.131

