@<TRIPOS>MOLECULE
BindingDB_35553
 41 44 0 0 0
SMALL
NO_CHARGES


@<TRIPOS>ATOM
1    C        35.3613   -1.2317   73.6927  C     
2    C        34.2424   -0.8933   72.9225  C     
3    C        34.0871    0.4011   72.3831  C     
4    C        35.1093    1.3651   72.6306  C     
5    C        36.2233    1.0326   73.4623  C     
6    C        36.3564   -0.2770   73.9916  C     
7    C        35.0040    2.6970   72.1578  C     
8    C        35.9767    3.6548   72.4765  C     
9    C        37.0684    3.3215   73.2876  C     
10   C        37.2138    2.0035   73.7827  C     
11   C        37.4937   -0.5874   74.7495  C     
12   C        38.3103    1.6160   74.5715  C     
13   N        38.4491    0.3396   74.9881  N     
14   O        37.5943   -1.7240   75.2054  O     
15   O        39.1707    2.4598   74.8106  O     
16   C        39.6275   -0.0461   75.6260  C     
17   C        41.1954    0.0776   77.4980  C     
18   C        40.0000    0.4872   76.8781  C     
19   C        40.4614   -1.0052   75.0126  C     
20   C        41.6484   -1.4277   75.6339  C     
21   C        42.0200   -0.8787   76.8742  C     
22   Br       42.7036   -2.7081   74.7992  Br    
23   N        33.0244    0.6811   71.5788  N     
24   C        31.6370    0.5079   71.9403  C     
25   C        30.7787   -0.4727   71.1074  C     
26   O        31.5502   -1.4189   70.3648  O     
27   H        35.4455   -2.1964   74.0407  H     
28   H        33.5951   -1.6448   72.6746  H     
29   H        34.2114    2.9937   71.5793  H     
30   H        35.8869    4.6043   72.1043  H     
31   H        37.7423    4.0473   73.5276  H     
32   H        41.4590    0.4685   78.4023  H     
33   H        39.4046    1.1780   77.3436  H     
34   H        40.1998   -1.4133   74.1162  H     
35   H        42.8826   -1.1884   77.3348  H     
36   H        33.1811    1.3373   70.8724  H     
37   H        31.5367    0.2834   73.0196  H     
38   H        31.1947    1.4842   71.7997  H     
39   H        30.1013   -1.0058   71.7629  H     
40   H        30.1533    0.0957   70.4136  H     
41   H        31.9686   -0.8998   69.6508  H     
@<TRIPOS>BOND
     1    1    2 1
     2    1    6 2
     3    2    3 2
     4    3    4 1
     5    3   23 1
     6    4    5 2
     7    4    7 1
     8    5    6 1
     9    5   10 1
    10    6   11 1
    11    7    8 2
    12    8    9 1
    13    9   10 2
    14   10   12 1
    15   11   13 1
    16   11   14 2
    17   12   13 1
    18   12   15 2
    19   13   16 1
    20   16   18 1
    21   16   19 2
    22   17   18 2
    23   17   21 1
    24   19   20 1
    25   20   21 2
    26   20   22 1
    27   23   24 1
    28   24   25 1
    29   25   26 1
    30    1   27 1
    31    2   28 1
    32    7   29 1
    33    8   30 1
    34    9   31 1
    35   17   32 1
    36   18   33 1
    37   19   34 1
    38   21   35 1
    39   23   36 1
    40   24   37 1
    41   24   38 1
    42   25   39 1
    43   25   40 1
    44   26   41 1
@<TRIPOS>PROPERTY_DATA
  Total_Score	| 6.1447
  Crash		| -1.3267
  Polar		| 1.1511
  FragIndex	| 1
  FragRMSD	| 0.139

