@<TRIPOS>MOLECULE
BindingDB_35555
 41 44 0 0 0
SMALL
NO_CHARGES


@<TRIPOS>ATOM
1    C        35.4159   -1.2933   73.7627  C     
2    C        34.3186   -0.9410   72.9594  C     
3    C        34.2017    0.3328   72.3631  C     
4    C        35.1868    1.3173   72.6781  C     
5    C        36.3031    0.9632   73.5119  C     
6    C        36.4395   -0.3555   74.0373  C     
7    C        35.0724    2.6702   72.3027  C     
8    C        36.0437    3.6242   72.6333  C     
9    C        37.1602    3.2537   73.3844  C     
10   C        37.3088    1.9192   73.8330  C     
11   C        37.5736   -0.6744   74.8066  C     
12   C        38.4158    1.5209   74.6113  C     
13   N        38.5485    0.2375   75.0310  N     
14   O        37.6713   -1.8108   75.2628  O     
15   O        39.2965    2.3445   74.8464  O     
16   C        39.7091   -0.1449   75.6932  C     
17   C        41.2535    0.0340   77.5891  C     
18   C        40.0684    0.4279   76.9347  C     
19   C        40.5588   -1.1260   75.1280  C     
20   C        41.7285   -1.5377   75.7900  C     
21   C        42.0840   -0.9445   77.0157  C     
22   N        33.1048    0.4474   71.5685  N     
23   C        32.8696    1.2393   70.3902  C     
24   C        32.2558    0.3761   69.2648  C     
25   O        33.2636   -0.1450   68.4048  O     
26   H        35.4618   -2.2386   74.1510  H     
27   H        33.6487   -1.6851   72.7302  H     
28   H        34.2462    3.0210   71.8401  H     
29   H        35.9326    4.5966   72.3287  H     
30   H        37.8446    3.9777   73.6286  H     
31   H        41.5061    0.4629   78.4840  H     
32   H        39.4728    1.1325   77.3653  H     
33   H        40.3234   -1.5475   74.2287  H     
34   H        42.3257   -2.2582   75.3778  H     
35   H        42.9379   -1.2352   77.4897  H     
36   H        32.3761   -0.1569   71.7870  H     
37   H        32.1514    2.0312   70.6429  H     
38   H        33.7785    1.6789   69.9909  H     
39   H        31.6853   -0.4617   69.6806  H     
40   H        31.5720    0.9773   68.6555  H     
41   H        33.6851    0.6492   67.9935  H     
@<TRIPOS>BOND
     1    1    2 1
     2    1    6 2
     3    2    3 2
     4    3    4 1
     5    3   22 1
     6    4    5 2
     7    4    7 1
     8    5    6 1
     9    5   10 1
    10    6   11 1
    11    7    8 2
    12    8    9 1
    13    9   10 2
    14   10   12 1
    15   11   13 1
    16   11   14 2
    17   12   13 1
    18   12   15 2
    19   13   16 1
    20   16   18 1
    21   16   19 2
    22   17   18 2
    23   17   21 1
    24   19   20 1
    25   20   21 2
    26   22   23 1
    27   23   24 1
    28   24   25 1
    29    1   26 1
    30    2   27 1
    31    7   28 1
    32    8   29 1
    33    9   30 1
    34   17   31 1
    35   18   32 1
    36   19   33 1
    37   20   34 1
    38   21   35 1
    39   22   36 1
    40   23   37 1
    41   23   38 1
    42   24   39 1
    43   24   40 1
    44   25   41 1
@<TRIPOS>PROPERTY_DATA
  Total_Score	| 5.1395
  Crash		| -1.2215
  Polar		| 1.1157
  FragIndex	| 1
  FragRMSD	| 0.127

