@<TRIPOS>MOLECULE
BindingDB_35559
 44 47 0 0 0
SMALL
NO_CHARGES


@<TRIPOS>ATOM
1    C        35.2213   -1.1744   73.6804  C     
2    C        34.0623   -0.8027   72.9816  C     
3    C        33.8826    0.5230   72.5385  C     
4    C        34.8896    1.4875   72.7965  C     
5    C        36.0707    1.1073   73.4998  C     
6    C        36.2370   -0.2276   73.9558  C     
7    C        34.7277    2.8354   72.4014  C     
8    C        35.7125    3.7885   72.6856  C     
9    C        36.8811    3.4085   73.3591  C     
10   C        37.0821    2.0667   73.7694  C     
11   C        37.4004   -0.5411   74.6765  C     
12   C        38.2314    1.6495   74.4592  C     
13   N        38.3751    0.3742   74.8875  N     
14   O        37.4988   -1.6720   75.1468  O     
15   O        39.1202    2.4776   74.6369  O     
16   C        39.5463    0.0020   75.5426  C     
17   C        41.0845    0.1680   77.4492  C     
18   C        39.8968    0.5546   76.7999  C     
19   C        40.4257   -0.9388   74.9536  C     
20   C        41.6052   -1.3376   75.6097  C     
21   C        41.9347   -0.7849   76.8598  C     
22   Br       42.7115   -2.6113   74.8274  Br    
23   N        32.7531    0.8238   71.8404  N     
24   C        32.8190    1.0119   70.4098  C     
25   C        32.0425   -0.0794   69.6352  C     
26   C        31.5284    1.0233   72.5753  C     
27   O        32.6855   -0.3816   68.3989  O     
28   H        35.3101   -2.1469   73.9823  H     
29   H        33.3517   -1.5158   72.7820  H     
30   H        33.8814    3.1447   71.9206  H     
31   H        35.5606    4.7631   72.4200  H     
32   H        37.5696    4.1343   73.5711  H     
33   H        41.3281    0.5802   78.3524  H     
34   H        39.2866    1.2432   77.2482  H     
35   H        40.2080   -1.3379   74.0401  H     
36   H        42.7881   -1.0763   77.3386  H     
37   H        32.4229    1.9990   70.1549  H     
38   H        33.8560    1.0040   70.0697  H     
39   H        31.9782   -1.0013   70.2161  H     
40   H        31.0257    0.2645   69.4383  H     
41   H        31.2604    0.1199   73.1296  H     
42   H        30.6951    1.2790   71.9193  H     
43   H        31.6493    1.8447   73.2888  H     
44   H        32.6726    0.4522   67.8822  H     
@<TRIPOS>BOND
     1    1    2 1
     2    1    6 2
     3    2    3 2
     4    3    4 1
     5    3   23 1
     6    4    5 2
     7    4    7 1
     8    5    6 1
     9    5   10 1
    10    6   11 1
    11    7    8 2
    12    8    9 1
    13    9   10 2
    14   10   12 1
    15   11   13 1
    16   11   14 2
    17   12   13 1
    18   12   15 2
    19   13   16 1
    20   16   18 1
    21   16   19 2
    22   17   18 2
    23   17   21 1
    24   19   20 1
    25   20   21 2
    26   20   22 1
    27   23   24 1
    28   23   26 1
    29   24   25 1
    30   25   27 1
    31    1   28 1
    32    2   29 1
    33    7   30 1
    34    8   31 1
    35    9   32 1
    36   17   33 1
    37   18   34 1
    38   19   35 1
    39   21   36 1
    40   24   37 1
    41   24   38 1
    42   25   39 1
    43   25   40 1
    44   26   41 1
    45   26   42 1
    46   26   43 1
    47   27   44 1
@<TRIPOS>PROPERTY_DATA
  Total_Score	| 4.9779
  Crash		| -1.4885
  Polar		| 1.0799
  FragIndex	| 1
  FragRMSD	| 0.294

