@<TRIPOS>MOLECULE
BindingDB_35566
 46 49 0 0 0
SMALL
NO_CHARGES


@<TRIPOS>ATOM
1    C        37.0890    3.3457   73.3684  C     
2    C        35.9962    3.6976   72.5666  C     
3    C        34.9589    2.7803   72.2978  C     
4    C        35.0652    1.4543   72.8200  C     
5    C        36.2161    1.0814   73.5871  C     
6    C        37.2332    2.0328   73.8627  C     
7    C        34.1128    0.4420   72.5283  C     
8    C        34.2768   -0.8767   72.9815  C     
9    C        35.4014   -1.2214   73.7426  C     
10   C        36.3917   -0.2568   74.0456  C     
11   C        38.3476    1.6332   74.6194  C     
12   C        37.5397   -0.5748   74.7863  C     
13   N        38.4966    0.3517   75.0178  N     
14   C        39.6727   -0.0403   75.6333  C     
15   C        41.2290    0.0221   77.5149  C     
16   C        40.0476    0.4681   76.8965  C     
17   C        40.5081   -0.9857   74.9974  C     
18   C        41.6837   -1.4375   75.6199  C     
19   C        42.0452   -0.9328   76.8805  C     
20   N        33.8573    3.1479   71.5829  N     
21   O        39.2262    2.4606   74.8518  O     
22   O        37.6574   -1.7266   75.2057  O     
23   Br       42.7139   -2.7191   74.7577  Br    
24   C        33.7361    3.9484   70.3959  C     
25   C        33.9292    3.0703   69.1086  C     
26   C        32.8447    3.3837   68.0286  C     
27   C        35.3654    3.2026   68.5301  C     
28   H        37.8035    4.0513   73.5588  H     
29   H        35.9359    4.6669   72.2561  H     
30   H        33.2770    0.6439   71.9785  H     
31   H        33.5717   -1.5882   72.7631  H     
32   H        35.4939   -2.1929   74.0574  H     
33   H        41.4925    0.3885   78.4310  H     
34   H        39.4563    1.1502   77.3740  H     
35   H        40.2458   -1.3598   74.0813  H     
36   H        42.8900   -1.2758   77.3411  H     
37   H        33.0353    2.7072   71.8355  H     
38   H        32.7107    4.3327   70.4246  H     
39   H        34.4003    4.8076   70.3799  H     
40   H        33.7825    2.0098   69.3721  H     
41   H        31.8433    3.2854   68.4578  H     
42   H        32.9124    2.6807   67.1978  H     
43   H        32.9534    4.4038   67.6446  H     
44   H        35.5302    4.2056   68.1248  H     
45   H        35.5292    2.4771   67.7280  H     
46   H        36.1051    3.0183   69.3046  H     
@<TRIPOS>BOND
     1    1    2 1
     2    1    6 2
     3    2    3 2
     4    3    4 1
     5    3   20 1
     6    4    5 2
     7    4    7 1
     8    5    6 1
     9    5   10 1
    10    6   11 1
    11    7    8 2
    12    8    9 1
    13    9   10 2
    14   10   12 1
    15   11   13 1
    16   11   21 2
    17   12   13 1
    18   12   22 2
    19   13   14 1
    20   14   16 1
    21   14   17 2
    22   15   16 2
    23   15   19 1
    24   17   18 1
    25   18   19 2
    26   18   23 1
    27   20   24 1
    28   24   25 1
    29   25   26 1
    30   25   27 1
    31    1   28 1
    32    2   29 1
    33    7   30 1
    34    8   31 1
    35    9   32 1
    36   15   33 1
    37   16   34 1
    38   17   35 1
    39   19   36 1
    40   20   37 1
    41   24   38 1
    42   24   39 1
    43   25   40 1
    44   26   41 1
    45   26   42 1
    46   26   43 1
    47   27   44 1
    48   27   45 1
    49   27   46 1
@<TRIPOS>PROPERTY_DATA
  Total_Score	| 5.6362
  Crash		| -1.4835
  Polar		| 0.0000
  FragIndex	| 1
  FragRMSD	| 0.147

