@<TRIPOS>MOLECULE
BindingDB_35561
 42 45 0 0 0
SMALL
NO_CHARGES


@<TRIPOS>ATOM
1    C        37.1633    3.2815   73.3038  C     
2    C        36.1377    3.6190   72.4124  C     
3    C        35.1538    2.6806   72.0237  C     
4    C        35.2006    1.3776   72.6026  C     
5    C        36.2606    1.0353   73.5045  C     
6    C        37.2648    1.9809   73.8453  C     
7    C        34.2373    0.3798   72.2962  C     
8    C        34.3027   -0.9014   72.8641  C     
9    C        35.3381   -1.2218   73.7510  C     
10   C        36.3242   -0.2654   74.0664  C     
11   C        38.3498    1.6077   74.6577  C     
12   C        37.4353   -0.6391   74.9745  C     
13   N        38.4781    0.3562   75.1317  N     
14   O        39.2378    2.4302   74.8692  O     
15   C        39.6450   -0.0638   75.7349  C     
16   C        41.2565   -0.0114   77.5762  C     
17   C        40.0537    0.4332   76.9932  C     
18   C        40.4703   -0.9975   75.0682  C     
19   C        41.6620   -1.4538   75.6558  C     
20   C        42.0583   -0.9588   76.9116  C     
21   Br       42.6861   -2.7192   74.7577  Br    
22   N        34.1848    3.0073   71.1166  N     
23   C        34.2726    3.8590   69.9691  C     
24   C        35.3289    3.3575   68.9559  C     
25   O        34.7734    2.3454   68.1188  O     
26   H        37.8493    4.0025   73.5404  H     
27   H        36.1295    4.5711   72.0469  H     
28   H        33.4653    0.5621   71.6540  H     
29   H        33.5970   -1.6043   72.6283  H     
30   H        35.3768   -2.1617   74.1546  H     
31   H        37.0161   -0.8584   75.9605  H     
32   H        37.8658   -1.5639   74.5828  H     
33   H        41.5455    0.3500   78.4872  H     
34   H        39.4760    1.1169   77.4881  H     
35   H        40.2026   -1.3521   74.1482  H     
36   H        42.9261   -1.2871   77.3413  H     
37   H        33.3261    2.5758   71.2246  H     
38   H        33.2988    3.8520   69.4745  H     
39   H        34.4777    4.8913   70.2617  H     
40   H        35.6646    4.1865   68.3290  H     
41   H        36.1942    2.9452   69.4761  H     
42   H        35.5207    2.0232   67.5730  H     
@<TRIPOS>BOND
     1    1    2 1
     2    1    6 2
     3    2    3 2
     4    3    4 1
     5    3   22 1
     6    4    5 2
     7    4    7 1
     8    5    6 1
     9    5   10 1
    10    6   11 1
    11    7    8 2
    12    8    9 1
    13    9   10 2
    14   10   12 1
    15   11   13 1
    16   11   14 2
    17   12   13 1
    18   13   15 1
    19   15   17 1
    20   15   18 2
    21   16   17 2
    22   16   20 1
    23   18   19 1
    24   19   20 2
    25   19   21 1
    26   22   23 1
    27   23   24 1
    28   24   25 1
    29    1   26 1
    30    2   27 1
    31    7   28 1
    32    8   29 1
    33    9   30 1
    34   12   31 1
    35   12   32 1
    36   16   33 1
    37   17   34 1
    38   18   35 1
    39   20   36 1
    40   22   37 1
    41   23   38 1
    42   23   39 1
    43   24   40 1
    44   24   41 1
    45   25   42 1
@<TRIPOS>PROPERTY_DATA
  Total_Score	| 5.6279
  Crash		| -1.3282
  Polar		| 0.0000
  FragIndex	| 1
  FragRMSD	| 0.085

