@<TRIPOS>MOLECULE
BindingDB_35571
 52 56 0 0 0
SMALL
NO_CHARGES


@<TRIPOS>ATOM
1    C        35.2756   -1.3068   73.8316  C     
2    C        34.1245   -1.0242   73.0812  C     
3    C        33.9085    0.2376   72.4816  C     
4    C        34.8667    1.2757   72.7369  C     
5    C        36.0538    0.9775   73.4914  C     
6    C        36.2644   -0.3203   74.0333  C     
7    C        34.6794    2.6191   72.3465  C     
8    C        35.6493    3.6081   72.5758  C     
9    C        36.8289    3.2851   73.2605  C     
10   C        37.0464    1.9714   73.7441  C     
11   C        37.4402   -0.5813   74.7629  C     
12   C        38.2053    1.6249   74.4656  C     
13   N        38.3924    0.3665   74.9216  N     
14   C        39.6002    0.0289   75.5295  C     
15   C        41.2114    0.2005   77.3711  C     
16   C        40.0116    0.6047   76.7536  C     
17   C        40.4371   -0.9413   74.9266  C     
18   C        41.6267   -1.3600   75.5474  C     
19   C        42.0188   -0.7816   76.7690  C     
20   N        32.7752    0.2355   71.7192  N     
21   C        32.2003    1.0959   70.7182  C     
22   O        37.5898   -1.6978   75.2516  O     
23   O        39.0639    2.4888   74.6256  O     
24   Br       42.6635   -2.6778   74.7343  Br    
25   C        30.2501    1.1492   69.0097  C     
26   C        31.2269    1.4546   67.8341  C     
27   C        32.5200    2.1346   68.3686  C     
28   C        33.1838    1.3645   69.5433  C     
29   C        30.9126    0.3925   70.1938  C     
30   C        31.5107    0.2651   66.9847  C     
31   O        30.9288    0.1430   65.7672  O     
32   O        32.3639   -0.7101   67.3709  O     
33   H        35.3802   -2.2475   74.2225  H     
34   H        33.4642   -1.7946   72.9381  H     
35   H        33.8214    2.9277   71.9006  H     
36   H        35.4820    4.5719   72.2683  H     
37   H        37.4977    4.0318   73.4340  H     
38   H        41.4970    0.6214   78.2575  H     
39   H        39.4324    1.3115   77.2057  H     
40   H        40.1672   -1.3636   74.0367  H     
41   H        42.8792   -1.0909   77.2297  H     
42   H        32.2194   -0.5591   71.8714  H     
43   H        31.8851    2.0330   71.1751  H     
44   H        29.8516    2.0957   69.3862  H     
45   H        29.3980    0.5746   68.6415  H     
46   H        30.7276    2.1925   67.1921  H     
47   H        33.2482    2.2505   67.5596  H     
48   H        32.2676    3.1445   68.7229  H     
49   H        34.0290    1.9589   69.8852  H     
50   H        33.5923    0.4175   69.1801  H     
51   H        31.1557   -0.6239   69.8689  H     
52   H        30.1845    0.3193   71.0080  H     
@<TRIPOS>BOND
     1    1    2 1
     2    1    6 2
     3    2    3 2
     4    3    4 1
     5    3   20 1
     6    4    5 2
     7    4    7 1
     8    5    6 1
     9    5   10 1
    10    6   11 1
    11    7    8 2
    12    8    9 1
    13    9   10 2
    14   10   12 1
    15   11   13 1
    16   11   22 2
    17   12   13 1
    18   12   23 2
    19   13   14 1
    20   14   16 1
    21   14   17 2
    22   15   16 2
    23   15   19 1
    24   17   18 1
    25   18   19 2
    26   18   24 1
    27   21   20 1
    28   21   28 1
    29   21   29 1
    30   25   26 1
    31   25   29 1
    32   26   27 1
    33   26   30 1
    34   27   28 1
    35   30   31 2
    36   30   32 1
    37    1   33 1
    38    2   34 1
    39    7   35 1
    40    8   36 1
    41    9   37 1
    42   15   38 1
    43   16   39 1
    44   17   40 1
    45   19   41 1
    46   20   42 1
    47   21   43 1
    48   25   44 1
    49   25   45 1
    50   26   46 1
    51   27   47 1
    52   27   48 1
    53   28   49 1
    54   28   50 1
    55   29   51 1
    56   29   52 1
@<TRIPOS>PROPERTY_DATA
  Total_Score	| 6.7707
  Crash		| -1.7120
  Polar		| 1.4530
  FragIndex	| 1
  FragRMSD	| 0.310

