@<TRIPOS>MOLECULE
BindingDB_35558
 40 43 0 0 0
SMALL
NO_CHARGES


@<TRIPOS>ATOM
1    C        35.3896   -1.2486   73.6440  C     
2    C        34.2448   -0.8904   72.9193  C     
3    C        34.0846    0.4122   72.3974  C     
4    C        35.1383    1.3592   72.6005  C     
5    C        36.2542    1.0246   73.4374  C     
6    C        36.3771   -0.2890   73.9666  C     
7    C        35.0459    2.6857   72.1147  C     
8    C        36.0118    3.6412   72.4492  C     
9    C        37.0849    3.3121   73.2865  C     
10   C        37.2288    1.9953   73.7883  C     
11   C        37.5056   -0.5888   74.7507  C     
12   C        38.3236    1.6085   74.5801  C     
13   N        38.4566    0.3331   75.0004  N     
14   O        37.5803   -1.7184   75.2266  O     
15   O        39.1807    2.4540   74.8144  O     
16   C        39.6319   -0.0533   75.6421  C     
17   C        41.2257    0.0883   77.5020  C     
18   C        40.0132    0.4846   76.8963  C     
19   C        40.4805   -0.9970   75.0255  C     
20   C        41.6707   -1.4120   75.6352  C     
21   C        42.0513   -0.8679   76.8753  C     
22   Br       42.7155   -2.6968   74.7953  Br    
23   N        32.9654    0.7145   71.6962  N     
24   C        31.6086    0.5629   72.1716  C     
25   C        30.7964   -0.2856   71.1777  C     
26   H        35.4719   -2.2109   73.9808  H     
27   H        33.5670   -1.6231   72.6891  H     
28   H        34.2654    2.9666   71.5132  H     
29   H        35.9273    4.5982   72.0771  H     
30   H        37.7489    4.0460   73.5461  H     
31   H        41.4884    0.4791   78.4042  H     
32   H        39.4197    1.1708   77.3662  H     
33   H        40.2182   -1.4070   74.1275  H     
34   H        42.9156   -1.1644   77.3254  H     
35   H        33.0696    1.2672   70.9014  H     
36   H        31.5233    0.1569   73.2013  H     
37   H        31.1657    1.5507   72.1813  H     
38   H        30.7848    0.1885   70.1867  H     
39   H        29.7634   -0.3835   71.5265  H     
40   H        31.2253   -1.2866   71.0802  H     
@<TRIPOS>BOND
     1    1    2 1
     2    1    6 2
     3    2    3 2
     4    3    4 1
     5    3   23 1
     6    4    5 2
     7    4    7 1
     8    5    6 1
     9    5   10 1
    10    6   11 1
    11    7    8 2
    12    8    9 1
    13    9   10 2
    14   10   12 1
    15   11   13 1
    16   11   14 2
    17   12   13 1
    18   12   15 2
    19   13   16 1
    20   16   18 1
    21   16   19 2
    22   17   18 2
    23   17   21 1
    24   19   20 1
    25   20   21 2
    26   20   22 1
    27   23   24 1
    28   24   25 1
    29    1   26 1
    30    2   27 1
    31    7   28 1
    32    8   29 1
    33    9   30 1
    34   17   31 1
    35   18   32 1
    36   19   33 1
    37   21   34 1
    38   23   35 1
    39   24   36 1
    40   24   37 1
    41   25   38 1
    42   25   39 1
    43   25   40 1
@<TRIPOS>PROPERTY_DATA
  Total_Score	| 5.0311
  Crash		| -1.2235
  Polar		| 0.0000
  FragIndex	| 1
  FragRMSD	| 0.132

