@<TRIPOS>MOLECULE
BindingDB_35557
 34 37 0 0 0
SMALL
NO_CHARGES


@<TRIPOS>ATOM
1    C        37.0614    3.3328   73.2844  C     
2    C        35.9664    3.6650   72.4739  C     
3    C        34.9941    2.7010   72.1524  C     
4    C        35.1124    1.3839   72.6643  C     
5    C        36.2308    1.0497   73.4905  C     
6    C        37.2192    2.0243   73.7963  C     
7    C        34.1535    0.3836   72.3783  C     
8    C        34.2835   -0.9089   72.9063  C     
9    C        35.3773   -1.2273   73.7245  C     
10   C        36.3720   -0.2628   74.0172  C     
11   C        38.3266    1.6424   74.5717  C     
12   C        37.5080   -0.5551   74.7887  C     
13   N        38.4717    0.3710   75.0082  N     
14   O        39.1908    2.4844   74.7983  O     
15   O        37.6074   -1.6853   75.2605  O     
16   C        39.6542   -0.0113   75.6285  C     
17   C        41.1914    0.0044   77.5432  C     
18   C        40.0119    0.4552   76.9172  C     
19   C        40.5077   -0.9364   74.9851  C     
20   C        41.6780   -1.3957   75.6123  C     
21   C        42.0202   -0.9297   76.8962  C     
22   Br       42.6939   -2.7033   74.7723  Br    
23   N        33.9779    3.0905   71.3560  N     
24   H        37.7459    4.0611   73.4942  H     
25   H        35.8869    4.6183   72.1125  H     
26   H        33.3444    0.5811   71.7867  H     
27   H        33.5825   -1.6221   72.6902  H     
28   H        35.4403   -2.1771   74.0990  H     
29   H        41.4287    0.3240   78.4865  H     
30   H        39.4076    1.1106   77.4101  H     
31   H        40.2626   -1.2974   74.0641  H     
32   H        42.8591   -1.2827   77.3656  H     
33   H        33.2833    2.4654   71.0990  H     
34   H        33.9428    4.0031   71.0311  H     
@<TRIPOS>BOND
     1    1    2 1
     2    1    6 2
     3    2    3 2
     4    3    4 1
     5    3   23 1
     6    4    5 2
     7    4    7 1
     8    5    6 1
     9    5   10 1
    10    6   11 1
    11    7    8 2
    12    8    9 1
    13    9   10 2
    14   10   12 1
    15   11   13 1
    16   11   14 2
    17   12   13 1
    18   12   15 2
    19   13   16 1
    20   16   18 1
    21   16   19 2
    22   17   18 2
    23   17   21 1
    24   19   20 1
    25   20   21 2
    26   20   22 1
    27    1   24 1
    28    2   25 1
    29    7   26 1
    30    8   27 1
    31    9   28 1
    32   17   29 1
    33   18   30 1
    34   19   31 1
    35   21   32 1
    36   23   33 1
    37   23   34 1
@<TRIPOS>PROPERTY_DATA
  Total_Score	| 4.9378
  Crash		| -0.9744
  Polar		| 0.0000
  FragIndex	| 1
  FragRMSD	| 0.138

