@<TRIPOS>MOLECULE
BindingDB_29764
 78 82 0 0 0
SMALL
NO_CHARGES


@<TRIPOS>ATOM
1    C        31.1920   -0.0471   36.1505  C     
2    C        31.3677   -1.0919   37.0862  C     
3    C        31.0412   -2.3992   36.6602  C     
4    C        30.5128   -2.6565   35.4017  C     
5    C        30.2875   -1.6035   34.4975  C     
6    C        30.6511   -0.2799   34.8590  C     
7    C        30.5003    0.7689   33.9601  C     
8    N        31.8035   -0.8336   38.3596  N     
9    O        31.4091    1.5818   33.8394  O     
10   N        29.3625    0.9220   33.2943  N     
11   C        29.1027    1.8669   32.2415  C     
12   C        28.3675    3.1309   32.8010  C     
13   C        28.2996    1.1582   31.1028  C     
14   C        28.8246   -0.1876   30.7260  C     
15   C        28.5342   -2.6213   30.5293  C     
16   C        28.0194   -1.3485   30.8445  C     
17   C        30.1557   -0.3389   30.2720  C     
18   C        30.6743   -1.6134   29.9628  C     
19   C        29.8639   -2.7540   30.0914  C     
20   C        29.1084    3.8106   33.9857  C     
21   N        28.4581    5.0945   34.3507  N     
22   O        28.2485    4.1182   31.7706  O     
23   C        29.3608    6.1758   34.8125  C     
24   C        30.1832    6.8640   33.7760  C     
25   C        29.6504    7.3681   32.5626  C     
26   C        31.5588    7.0668   34.0396  C     
27   C        32.3730    7.7510   33.1195  C     
28   C        31.8258    8.2539   31.9285  C     
29   C        30.4543    8.0717   31.6265  C     
30   C        29.8491    8.5748   30.3629  C     
31   F        30.6555    9.4460   29.6591  F     
32   F        29.5854    7.5166   29.5311  F     
33   F        28.6702    9.2397   30.6040  F     
34   C        31.7937   -0.7434   40.6707  C     
35   C        33.1463   -0.1911   40.1857  C     
36   C        33.0778   -0.2684   38.6454  C     
37   C        31.1023   -1.0637   39.4566  C     
38   O        29.9538   -1.4854   39.4795  O     
39   C        31.1504   -3.6220   37.2407  C     
40   N        30.7477   -4.5163   36.4166  N     
41   N        30.3501   -3.9928   35.3232  N     
42   C        29.8919   -4.7517   34.1955  C     
43   C        28.3630   -4.6542   34.0001  C     
44   H        31.4351    0.9099   36.4230  H     
45   H        29.9065   -1.8096   33.5714  H     
46   H        28.6415    0.3107   33.5109  H     
47   H        30.0416    2.2157   31.7968  H     
48   H        27.3616    2.8567   33.1378  H     
49   H        27.2550    1.0752   31.4242  H     
50   H        28.3073    1.7845   30.2075  H     
51   H        27.9444   -3.4510   30.6263  H     
52   H        27.0538   -1.2792   31.1725  H     
53   H        30.7655    0.4765   30.1709  H     
54   H        31.6431   -1.7106   29.6516  H     
55   H        30.2406   -3.6788   29.8645  H     
56   H        29.0824    3.1633   34.8637  H     
57   H        30.1521    3.9801   33.7016  H     
58   H        27.9175    5.4461   33.5548  H     
59   H        27.7988    4.8888   35.1112  H     
60   H        27.3617    3.9916   31.3748  H     
61   H        28.7183    6.9296   35.2628  H     
62   H        30.0147    5.7891   35.5976  H     
63   H        28.6584    7.2382   32.3639  H     
64   H        31.9817    6.7189   34.9067  H     
65   H        33.3688    7.8931   33.3274  H     
66   H        32.4499    8.7478   31.2786  H     
67   H        31.9262   -1.6394   41.2852  H     
68   H        31.2401    0.0088   41.2408  H     
69   H        33.2847    0.8424   40.5155  H     
70   H        33.9726   -0.7963   40.5724  H     
71   H        33.8759   -0.9079   38.2561  H     
72   H        33.1740    0.7293   38.2105  H     
73   H        31.5184   -3.8156   38.1436  H     
74   H        30.3982   -4.3967   33.2946  H     
75   H        30.1490   -5.8077   34.3127  H     
76   H        27.8522   -5.1424   34.8348  H     
77   H        28.0755   -5.1572   33.0746  H     
78   H        28.0438   -3.6130   33.9467  H     
@<TRIPOS>BOND
     1    1    2 1
     2    1    6 2
     3    2    3 2
     4    2    8 1
     5    3    4 1
     6    3   39 1
     7    4    5 2
     8    4   41 1
     9    5    6 1
    10    6    7 1
    11    7    9 2
    12    7   10 am
    13    8   36 1
    14    8   37 1
    15   10   11 1
    16   11   12 1
    17   11   13 1
    18   12   20 1
    19   12   22 1
    20   13   14 1
    21   14   16 1
    22   14   17 2
    23   15   16 2
    24   15   19 1
    25   17   18 1
    26   18   19 2
    27   20   21 1
    28   21   23 1
    29   23   24 1
    30   24   25 1
    31   24   26 2
    32   25   29 2
    33   26   27 1
    34   27   28 2
    35   28   29 1
    36   29   30 1
    37   30   31 1
    38   30   32 1
    39   30   33 1
    40   34   35 1
    41   34   37 1
    42   35   36 1
    43   37   38 2
    44   39   40 2
    45   40   41 1
    46   41   42 1
    47   42   43 1
    48    1   44 1
    49    5   45 1
    50   10   46 1
    51   11   47 1
    52   12   48 1
    53   13   49 1
    54   13   50 1
    55   15   51 1
    56   16   52 1
    57   17   53 1
    58   18   54 1
    59   19   55 1
    60   20   56 1
    61   20   57 1
    62   21   58 1
    63   21   59 1
    64   22   60 1
    65   23   61 1
    66   23   62 1
    67   25   63 1
    68   26   64 1
    69   27   65 1
    70   28   66 1
    71   34   67 1
    72   34   68 1
    73   35   69 1
    74   35   70 1
    75   36   71 1
    76   36   72 1
    77   39   73 1
    78   42   74 1
    79   42   75 1
    80   43   76 1
    81   43   77 1
    82   43   78 1
@<TRIPOS>PROPERTY_DATA
  Total_Score	| 15.7663
  Crash		| -0.9730
  Polar		| 6.5405
  FragIndex	| 1
  FragRMSD	| 0.274

