@<TRIPOS>MOLECULE
BindingDB_29769
 80 84 0 0 0
SMALL
NO_CHARGES


@<TRIPOS>ATOM
1    C        31.1887    0.0722   36.2405  C     
2    C        31.3640   -0.9816   37.1692  C     
3    C        31.0572   -2.2875   36.7326  C     
4    C        30.5773   -2.5434   35.4537  C     
5    C        30.3488   -1.4839   34.5567  C     
6    C        30.6641   -0.1570   34.9401  C     
7    C        30.5036    0.8902   34.0427  C     
8    N        31.8329   -0.7568   38.4377  N     
9    O        31.4024    1.7165   33.9325  O     
10   N        29.3812    1.0008   33.3414  N     
11   C        29.1071    1.9433   32.2840  C     
12   C        28.3855    3.2266   32.8208  C     
13   C        28.2817    1.2290   31.1648  C     
14   C        28.8057   -0.1120   30.7723  C     
15   C        30.6644   -1.5243   30.0091  C     
16   C        30.1390   -0.2551   30.3136  C     
17   C        28.0021   -1.2745   30.8768  C     
18   C        28.5239   -2.5432   30.5580  C     
19   C        29.8578   -2.6692   30.1316  C     
20   C        29.1673    3.9639   33.9450  C     
21   N        28.4750    5.2143   34.3466  N     
22   O        28.2239    4.1724   31.7574  O     
23   C        29.3106    6.2533   35.0000  C     
24   C        30.2198    6.9433   34.0425  C     
25   C        29.6924    7.5720   32.8895  C     
26   C        31.6209    6.9826   34.2479  C     
27   C        32.4689    7.6083   33.3150  C     
28   C        31.9296    8.2043   32.1606  C     
29   C        30.5423    8.1718   31.9336  C     
30   O        30.0214    8.7477   30.8064  O     
31   C        31.8960   -0.7008   40.7476  C     
32   C        33.2755   -0.2540   40.2268  C     
33   C        33.1195   -0.2009   38.6939  C     
34   C        31.1691   -1.0167   39.5534  C     
35   O        30.0205   -1.4383   39.6049  O     
36   N        31.1787   -3.4712   37.3400  N     
37   C        30.8304   -4.4162   36.4959  C     
38   N        30.4536   -3.8907   35.3351  N     
39   C        30.0585   -4.6109   34.1530  C     
40   C        28.5269   -4.6090   33.9552  C     
41   O        30.8781   -5.6030   36.7857  O     
42   C        29.8061    7.7981   29.7443  C     
43   H        31.4149    1.0288   36.5339  H     
44   H        29.9964   -1.6859   33.6190  H     
45   H        28.6961    0.3321   33.5076  H     
46   H        30.0469    2.2668   31.8265  H     
47   H        27.3926    2.9611   33.2036  H     
48   H        27.2459    1.1457   31.5047  H     
49   H        28.2737    1.8549   30.2683  H     
50   H        31.6370   -1.6164   29.7105  H     
51   H        30.7428    0.5652   30.2133  H     
52   H        27.0312   -1.2077   31.1964  H     
53   H        27.9358   -3.3759   30.6450  H     
54   H        30.2404   -3.5901   29.9114  H     
55   H        29.2498    3.3261   34.8288  H     
56   H        30.1758    4.1851   33.5795  H     
57   H        28.0502    5.6296   33.5150  H     
58   H        27.7190    4.9563   34.9836  H     
59   H        27.3803    3.9489   31.3104  H     
60   H        28.6379    6.9972   35.4273  H     
61   H        29.8632    5.8010   35.8289  H     
62   H        28.6843    7.5774   32.7222  H     
63   H        32.0350    6.5516   35.0773  H     
64   H        33.4814    7.6200   33.4692  H     
65   H        32.5517    8.6484   31.4805  H     
66   H        31.9820   -1.5809   41.3904  H     
67   H        31.4005    0.1045   41.2973  H     
68   H        33.5541    0.7229   40.6334  H     
69   H        34.0414   -0.9831   40.5103  H     
70   H        33.9020   -0.7916   38.2075  H     
71   H        33.1740    0.8315   38.3376  H     
72   H        31.5030   -3.6124   38.2456  H     
73   H        30.5356   -4.1641   33.2761  H     
74   H        30.3911   -5.6517   34.1976  H     
75   H        28.0398   -5.1029   34.7985  H     
76   H        28.2723   -5.1462   33.0383  H     
77   H        28.1487   -3.5876   33.8777  H     
78   H        30.7352    7.2965   29.4552  H     
79   H        29.4277    8.3402   28.8739  H     
80   H        29.0612    7.0500   30.0291  H     
@<TRIPOS>BOND
     1    1    2 1
     2    1    6 2
     3    2    3 2
     4    2    8 1
     5    3    4 1
     6    3   36 1
     7    4    5 2
     8    4   38 1
     9    5    6 1
    10    6    7 1
    11    7    9 2
    12    7   10 am
    13    8   33 1
    14    8   34 1
    15   10   11 1
    16   11   12 1
    17   11   13 1
    18   12   20 1
    19   12   22 1
    20   13   14 1
    21   14   16 1
    22   14   17 2
    23   15   16 2
    24   15   19 1
    25   17   18 1
    26   18   19 2
    27   20   21 1
    28   21   23 1
    29   23   24 1
    30   24   25 1
    31   24   26 2
    32   25   29 2
    33   26   27 1
    34   27   28 2
    35   28   29 1
    36   29   30 1
    37   30   42 1
    38   31   32 1
    39   31   34 1
    40   32   33 1
    41   34   35 2
    42   36   37 1
    43   37   38 1
    44   37   41 2
    45   38   39 1
    46   39   40 1
    47    1   43 1
    48    5   44 1
    49   10   45 1
    50   11   46 1
    51   12   47 1
    52   13   48 1
    53   13   49 1
    54   15   50 1
    55   16   51 1
    56   17   52 1
    57   18   53 1
    58   19   54 1
    59   20   55 1
    60   20   56 1
    61   21   57 1
    62   21   58 1
    63   22   59 1
    64   23   60 1
    65   23   61 1
    66   25   62 1
    67   26   63 1
    68   27   64 1
    69   28   65 1
    70   31   66 1
    71   31   67 1
    72   32   68 1
    73   32   69 1
    74   33   70 1
    75   33   71 1
    76   36   72 1
    77   39   73 1
    78   39   74 1
    79   40   75 1
    80   40   76 1
    81   40   77 1
    82   42   78 1
    83   42   79 1
    84   42   80 1
@<TRIPOS>PROPERTY_DATA
  Total_Score	| 15.8535
  Crash		| -1.0291
  Polar		| 6.3281
  FragIndex	| 1
  FragRMSD	| 0.245

