@<TRIPOS>MOLECULE
BindingDB_29756
 77 80 0 0 0
SMALL
NO_CHARGES


@<TRIPOS>ATOM
1    C        31.1185   -0.0648   36.0038  C     
2    C        31.1224   -1.0300   37.0330  C     
3    C        30.5991   -2.3120   36.7513  C     
4    C        30.0921   -2.6477   35.4755  C     
5    C        30.0394   -1.6352   34.4902  C     
6    C        30.5425   -0.3378   34.7402  C     
7    C        30.4743    0.6608   33.7743  C     
8    N        29.7163   -3.9421   35.2595  N     
9    C        29.4832   -4.6082   34.0083  C     
10   C        27.9945   -4.6639   33.6142  C     
11   N        31.6461   -0.7321   38.2724  N     
12   O        31.4154    1.4419   33.6660  O     
13   N        29.3631    0.8234   33.0559  N     
14   C        29.1101    1.8290   32.0572  C     
15   C        28.0725    2.8765   32.5962  C     
16   C        28.6451    1.1642   30.7077  C     
17   C        29.0983   -0.2453   30.4856  C     
18   C        30.8763   -1.8517   29.9725  C     
19   C        30.4340   -0.5236   30.1028  C     
20   C        28.2192   -1.3336   30.7238  C     
21   C        28.6698   -2.6590   30.5993  C     
22   C        29.9994   -2.9174   30.2305  C     
23   C        28.0957    3.2331   34.1240  C     
24   N        28.4213    4.6512   34.4583  N     
25   O        28.2129    4.0708   31.8131  O     
26   C        29.8559    4.9678   34.6899  C     
27   C        30.2234    6.3137   34.1727  C     
28   C        29.6963    6.7590   32.9413  C     
29   C        31.1445    7.1555   34.8377  C     
30   C        31.5378    8.3860   34.2740  C     
31   C        30.9901    8.8050   33.0474  C     
32   C        30.0494    8.0015   32.3638  C     
33   C        29.4002    8.4197   31.0860  C     
34   F        29.8493    9.6163   30.5788  F     
35   F        29.6028    7.4690   30.1127  F     
36   F        28.0456    8.5480   31.2861  F     
37   C        31.8770   -0.6705   40.5782  C     
38   C        33.1858   -0.1399   39.9662  C     
39   C        32.9186   -0.1047   38.4463  C     
40   C        31.0685   -0.9881   39.4344  C     
41   O        29.9375   -1.4444   39.5732  O     
42   H        31.4946    0.8665   36.1951  H     
43   H        30.6279   -3.0304   37.4852  H     
44   H        29.6554   -1.8461   33.5712  H     
45   H        29.7110   -4.5226   36.0469  H     
46   H        30.0636   -4.1501   33.2144  H     
47   H        29.8387   -5.6318   34.1108  H     
48   H        27.4126   -5.1693   34.3911  H     
49   H        27.8818   -5.2240   32.6825  H     
50   H        27.5894   -3.6597   33.4666  H     
51   H        28.6333    0.2097   33.2631  H     
52   H        30.0333    2.3745   31.8511  H     
53   H        27.0624    2.4907   32.4092  H     
54   H        27.5505    1.1853   30.6448  H     
55   H        28.9955    1.7762   29.8678  H     
56   H        31.8389   -2.0410   29.6890  H     
57   H        31.0826    0.2425   29.9052  H     
58   H        27.2479   -1.1641   30.9902  H     
59   H        28.0265   -3.4315   30.7784  H     
60   H        30.3330   -3.8864   30.1634  H     
61   H        27.0884    3.0750   34.5308  H     
62   H        28.7322    2.5577   34.6933  H     
63   H        28.0516    5.2376   33.7033  H     
64   H        27.8963    4.8876   35.3084  H     
65   H        27.4574    4.0637   31.1593  H     
66   H        30.0556    4.8853   35.7617  H     
67   H        30.4868    4.2429   34.1698  H     
68   H        29.0333    6.1559   32.4501  H     
69   H        31.5527    6.8738   35.7273  H     
70   H        32.2144    8.9808   34.7605  H     
71   H        31.2842    9.7052   32.6713  H     
72   H        32.0540   -1.5675   41.1788  H     
73   H        31.3881    0.0870   41.1956  H     
74   H        33.4255    0.8570   40.3418  H     
75   H        34.0149   -0.8144   40.1905  H     
76   H        33.7009   -0.6495   37.9041  H     
77   H        32.8984    0.9324   38.0892  H     
@<TRIPOS>BOND
     1    1    2 1
     2    1    6 2
     3    2    3 2
     4    2   11 1
     5    3    4 1
     6    4    5 2
     7    4    8 1
     8    5    6 1
     9    6    7 1
    10    7   12 2
    11    7   13 am
    12    8    9 1
    13    9   10 1
    14   11   39 1
    15   11   40 1
    16   13   14 1
    17   14   15 1
    18   14   16 1
    19   15   23 1
    20   15   25 1
    21   16   17 1
    22   17   19 1
    23   17   20 2
    24   18   19 2
    25   18   22 1
    26   20   21 1
    27   21   22 2
    28   23   24 1
    29   24   26 1
    30   26   27 1
    31   27   28 1
    32   27   29 2
    33   28   32 2
    34   29   30 1
    35   30   31 2
    36   31   32 1
    37   32   33 1
    38   33   34 1
    39   33   35 1
    40   33   36 1
    41   37   38 1
    42   37   40 1
    43   38   39 1
    44   40   41 2
    45    1   42 1
    46    3   43 1
    47    5   44 1
    48    8   45 1
    49    9   46 1
    50    9   47 1
    51   10   48 1
    52   10   49 1
    53   10   50 1
    54   13   51 1
    55   14   52 1
    56   15   53 1
    57   16   54 1
    58   16   55 1
    59   18   56 1
    60   19   57 1
    61   20   58 1
    62   21   59 1
    63   22   60 1
    64   23   61 1
    65   23   62 1
    66   24   63 1
    67   24   64 1
    68   25   65 1
    69   26   66 1
    70   26   67 1
    71   28   68 1
    72   29   69 1
    73   30   70 1
    74   31   71 1
    75   37   72 1
    76   37   73 1
    77   38   74 1
    78   38   75 1
    79   39   76 1
    80   39   77 1
@<TRIPOS>PROPERTY_DATA
  Total_Score	| 15.4642
  Crash		| -1.8327
  Polar		| 6.0391
  FragIndex	| 1
  FragRMSD	| 0.703

