@<TRIPOS>MOLECULE
BindingDB_29757
 80 83 0 0 0
SMALL
NO_CHARGES


@<TRIPOS>ATOM
1    C        31.1564   -0.2450   36.0499  C     
2    C        31.3067   -1.2974   36.9772  C     
3    C        30.8748   -2.6110   36.6158  C     
4    C        30.1809   -2.8146   35.3836  C     
5    C        29.9711   -1.7026   34.5247  C     
6    C        30.5025   -0.4257   34.8085  C     
7    C        30.4149    0.6115   33.8782  C     
8    N        29.7381   -4.0712   35.0707  N     
9    C        29.3454   -4.6074   33.7988  C     
10   C        27.8028   -4.6344   33.6675  C     
11   N        31.7869   -0.9758   38.2313  N     
12   O        31.3602    1.3874   33.7843  O     
13   N        29.3080    0.8081   33.1474  N     
14   C        29.0964    1.8267   32.1296  C     
15   C        28.0720    2.9322   32.5834  C     
16   C        28.6451    1.1856   30.7744  C     
17   C        29.1450   -0.1965   30.5184  C     
18   C        28.7412   -2.6107   30.4349  C     
19   C        28.2632   -1.3013   30.6016  C     
20   C        30.5062   -0.4319   30.2383  C     
21   C        30.9800   -1.7448   30.0594  C     
22   C        30.0988   -2.8367   30.1612  C     
23   C        28.1021    3.3376   34.1028  C     
24   N        28.3502    4.7835   34.3763  N     
25   O        28.2844    4.0770   31.7487  O     
26   C        29.7734    5.1502   34.6623  C     
27   C        30.1461    6.4862   34.1304  C     
28   C        29.7836    6.8504   32.8048  C     
29   C        30.9228    7.3870   34.8898  C     
30   C        31.3129    8.6232   34.3455  C     
31   C        30.9507    8.9746   33.0320  C     
32   C        30.1836    8.0867   32.2398  C     
33   C        29.8325    8.4743   30.8412  C     
34   F        30.9860    8.6803   30.1198  F     
35   F        29.0966    7.5315   30.1517  F     
36   F        29.0959    9.6374   30.8420  F     
37   C        31.1653   -3.7803   37.5048  C     
38   C        31.8324   -0.7393   40.5345  C     
39   C        33.1374   -0.1542   39.9713  C     
40   C        33.1039   -0.4800   38.4637  C     
41   C        31.0913   -1.0882   39.3551  C     
42   O        29.9376   -1.4994   39.4261  O     
43   H        31.4899    0.6916   36.2988  H     
44   H        29.4769   -1.8338   33.6427  H     
45   H        29.6104   -4.6784   35.8158  H     
46   H        29.7854   -4.0704   32.9540  H     
47   H        29.7170   -5.6369   33.7476  H     
48   H        27.3683   -5.3056   34.4144  H     
49   H        27.5275   -4.9887   32.6688  H     
50   H        27.3903   -3.6277   33.8081  H     
51   H        28.5547    0.2214   33.3315  H     
52   H        30.0455    2.3327   31.9348  H     
53   H        27.0507    2.5613   32.3990  H     
54   H        27.5506    1.1744   30.7406  H     
55   H        28.9673    1.8262   29.9527  H     
56   H        28.0929   -3.3985   30.5136  H     
57   H        27.2686   -1.1650   30.7984  H     
58   H        31.1646    0.3503   30.1580  H     
59   H        31.9695   -1.9081   29.8515  H     
60   H        30.4456   -3.7906   30.0382  H     
61   H        27.1085    3.1191   34.5363  H     
62   H        28.8080    2.7351   34.6898  H     
63   H        28.0161    5.3444   33.5776  H     
64   H        27.7738    5.0234   35.1883  H     
65   H        27.4467    4.1684   31.2237  H     
66   H        29.9005    5.1017   35.7515  H     
67   H        30.4678    4.4215   34.2250  H     
68   H        29.2223    6.1948   32.2548  H     
69   H        31.2143    7.1539   35.8471  H     
70   H        31.8657    9.2811   34.9066  H     
71   H        31.2467    9.8796   32.6546  H     
72   H        31.7982   -3.5347   38.3573  H     
73   H        31.6866   -4.5568   36.9381  H     
74   H        30.2227   -4.1846   37.8789  H     
75   H        32.0201   -1.6310   41.1362  H     
76   H        31.2942   -0.0031   41.1352  H     
77   H        33.1577    0.9308   40.1244  H     
78   H        34.0136   -0.5936   40.4570  H     
79   H        33.8438   -1.2444   38.2093  H     
80   H        33.3012    0.4202   37.8758  H     
@<TRIPOS>BOND
     1    1    2 1
     2    1    6 2
     3    2    3 2
     4    2   11 1
     5    3    4 1
     6    3   37 1
     7    4    5 2
     8    4    8 1
     9    5    6 1
    10    6    7 1
    11    7   12 2
    12    7   13 am
    13    8    9 1
    14    9   10 1
    15   11   40 1
    16   11   41 1
    17   13   14 1
    18   14   15 1
    19   14   16 1
    20   15   23 1
    21   15   25 1
    22   16   17 1
    23   17   19 1
    24   17   20 2
    25   18   19 2
    26   18   22 1
    27   20   21 1
    28   21   22 2
    29   23   24 1
    30   24   26 1
    31   26   27 1
    32   27   28 1
    33   27   29 2
    34   28   32 2
    35   29   30 1
    36   30   31 2
    37   31   32 1
    38   32   33 1
    39   33   34 1
    40   33   35 1
    41   33   36 1
    42   38   39 1
    43   38   41 1
    44   39   40 1
    45   41   42 2
    46    1   43 1
    47    5   44 1
    48    8   45 1
    49    9   46 1
    50    9   47 1
    51   10   48 1
    52   10   49 1
    53   10   50 1
    54   13   51 1
    55   14   52 1
    56   15   53 1
    57   16   54 1
    58   16   55 1
    59   18   56 1
    60   19   57 1
    61   20   58 1
    62   21   59 1
    63   22   60 1
    64   23   61 1
    65   23   62 1
    66   24   63 1
    67   24   64 1
    68   25   65 1
    69   26   66 1
    70   26   67 1
    71   28   68 1
    72   29   69 1
    73   30   70 1
    74   31   71 1
    75   37   72 1
    76   37   73 1
    77   37   74 1
    78   38   75 1
    79   38   76 1
    80   39   77 1
    81   39   78 1
    82   40   79 1
    83   40   80 1
@<TRIPOS>PROPERTY_DATA
  Total_Score	| 15.2808
  Crash		| -1.7738
  Polar		| 6.2763
  FragIndex	| 1
  FragRMSD	| 0.674

