@<TRIPOS>MOLECULE
BindingDB_29765
 77 81 0 0 0
SMALL
NO_CHARGES


@<TRIPOS>ATOM
1    C        31.1464   -0.0673   36.0404  C     
2    C        31.3422   -1.0983   36.9919  C     
3    C        31.0377   -2.4173   36.6012  C     
4    C        30.5204   -2.7061   35.3532  C     
5    C        30.2847   -1.6824   34.4160  C     
6    C        30.6218   -0.3428   34.7489  C     
7    C        30.4566    0.6834   33.8217  C     
8    N        31.7578   -0.8256   38.2601  N     
9    O        31.3536    1.5102   33.7196  O     
10   N        29.3320    0.7807   33.1145  N     
11   C        29.0326    1.7676   32.1065  C     
12   C        28.0417    2.8541   32.6470  C     
13   C        28.4755    1.0955   30.8051  C     
14   C        28.9669   -0.2842   30.5440  C     
15   C        30.7553   -1.8104   29.8357  C     
16   C        30.2826   -0.5018   30.0656  C     
17   C        28.1290   -1.4089   30.7485  C     
18   C        28.6034   -2.7169   30.5252  C     
19   C        29.9181   -2.9159   30.0677  C     
20   C        28.1356    3.2395   34.1650  C     
21   N        28.3549    4.6978   34.4038  N     
22   O        28.2108    4.0248   31.8279  O     
23   C        29.7720    5.1013   34.6471  C     
24   C        30.0455    6.4777   34.1546  C     
25   C        29.5776    6.8791   32.8785  C     
26   C        30.8429    7.3844   34.8910  C     
27   C        31.1511    8.6514   34.3672  C     
28   C        30.6881    9.0299   33.0938  C     
29   C        29.8947    8.1449   32.3231  C     
30   C        29.3439    8.5139   30.9830  C     
31   F        29.8279    9.7021   30.4809  F     
32   F        29.6354    7.5460   30.0481  F     
33   F        27.9759    8.6251   31.0733  F     
34   C        31.7086   -0.7129   40.5601  C     
35   C        33.0695   -0.1598   40.0857  C     
36   C        33.0552   -0.3180   38.5496  C     
37   C        31.0218   -1.0162   39.3407  C     
38   O        29.8667   -1.4245   39.3395  O     
39   N        31.1679   -3.5958   37.2247  N     
40   N        30.7934   -4.5076   36.4358  N     
41   N        30.3983   -4.0409   35.3144  N     
42   C        29.9959   -4.8357   34.1974  C     
43   C        28.4809   -4.7361   33.9052  C     
44   H        31.3691    0.8932   36.3085  H     
45   H        29.9258   -1.9123   33.4905  H     
46   H        28.6268    0.1567   33.3384  H     
47   H        29.9557    2.2882   31.8278  H     
48   H        27.0163    2.4904   32.4987  H     
49   H        27.3830    1.0643   30.8421  H     
50   H        28.7177    1.7242   29.9414  H     
51   H        31.7104   -1.9553   29.4961  H     
52   H        30.9072    0.2885   29.9079  H     
53   H        27.1739   -1.2955   31.1001  H     
54   H        27.9899   -3.5207   30.6898  H     
55   H        30.2617   -3.8649   29.8911  H     
56   H        27.1698    3.0003   34.6392  H     
57   H        28.8895    2.6420   34.6990  H     
58   H        27.9968    5.2204   33.5913  H     
59   H        27.7821    4.9412   35.2403  H     
60   H        27.3665    4.1036   31.3093  H     
61   H        29.9614    5.0163   35.7313  H     
62   H        30.4696    4.4282   34.1307  H     
63   H        28.9913    6.2284   32.3372  H     
64   H        31.2049    7.1172   35.8057  H     
65   H        31.7172    9.2989   34.9191  H     
66   H        30.9221    9.9615   32.7486  H     
67   H        31.8317   -1.6210   41.1557  H     
68   H        31.1565    0.0348   41.1393  H     
69   H        33.1696    0.8973   40.3644  H     
70   H        33.8947   -0.7214   40.5357  H     
71   H        33.8220   -1.0261   38.2285  H     
72   H        33.2260    0.6467   38.0630  H     
73   H        30.5527   -4.5144   33.3142  H     
74   H        30.2367   -5.8878   34.3732  H     
75   H        27.9097   -5.1114   34.7595  H     
76   H        28.2351   -5.3373   33.0248  H     
77   H        28.1882   -3.7019   33.7103  H     
@<TRIPOS>BOND
     1    1    2 1
     2    1    6 2
     3    2    3 2
     4    2    8 1
     5    3    4 1
     6    3   39 1
     7    4    5 2
     8    4   41 1
     9    5    6 1
    10    6    7 1
    11    7    9 2
    12    7   10 am
    13    8   36 1
    14    8   37 1
    15   10   11 1
    16   11   12 1
    17   11   13 1
    18   12   20 1
    19   12   22 1
    20   13   14 1
    21   14   16 1
    22   14   17 2
    23   15   16 2
    24   15   19 1
    25   17   18 1
    26   18   19 2
    27   20   21 1
    28   21   23 1
    29   23   24 1
    30   24   25 1
    31   24   26 2
    32   25   29 2
    33   26   27 1
    34   27   28 2
    35   28   29 1
    36   29   30 1
    37   30   31 1
    38   30   32 1
    39   30   33 1
    40   34   35 1
    41   34   37 1
    42   35   36 1
    43   37   38 2
    44   39   40 2
    45   40   41 1
    46   41   42 1
    47   42   43 1
    48    1   44 1
    49    5   45 1
    50   10   46 1
    51   11   47 1
    52   12   48 1
    53   13   49 1
    54   13   50 1
    55   15   51 1
    56   16   52 1
    57   17   53 1
    58   18   54 1
    59   19   55 1
    60   20   56 1
    61   20   57 1
    62   21   58 1
    63   21   59 1
    64   22   60 1
    65   23   61 1
    66   23   62 1
    67   25   63 1
    68   26   64 1
    69   27   65 1
    70   28   66 1
    71   34   67 1
    72   34   68 1
    73   35   69 1
    74   35   70 1
    75   36   71 1
    76   36   72 1
    77   42   73 1
    78   42   74 1
    79   43   75 1
    80   43   76 1
    81   43   77 1
@<TRIPOS>PROPERTY_DATA
  Total_Score	| 15.7451
  Crash		| -1.8195
  Polar		| 6.3609
  FragIndex	| 1
  FragRMSD	| 0.649

