@<TRIPOS>MOLECULE
BindingDB_29767
 78 82 0 0 0
SMALL
NO_CHARGES


@<TRIPOS>ATOM
1    C        31.1568   -0.0047   36.1226  C     
2    C        31.2796   -1.0593   37.0638  C     
3    C        30.8836   -2.3497   36.6572  C     
4    C        30.3737   -2.5858   35.3877  C     
5    C        30.2213   -1.5369   34.4649  C     
6    C        30.6112   -0.2290   34.8350  C     
7    C        30.4914    0.8174   33.9352  C     
8    N        31.7579   -0.8223   38.3249  N     
9    O        31.4084    1.6107   33.8210  O     
10   N        29.3570    0.9580   33.2574  N     
11   C        29.1015    1.8902   32.1883  C     
12   C        28.3613    3.1638   32.7132  C     
13   C        28.3070    1.1647   31.0532  C     
14   C        28.8194   -0.1919   30.6851  C     
15   C        28.5136   -2.6273   30.5469  C     
16   C        28.0110   -1.3489   30.8429  C     
17   C        30.1361   -0.3572   30.1877  C     
18   C        30.6395   -1.6363   29.8990  C     
19   C        29.8325   -2.7758   30.0843  C     
20   C        29.1035    3.8934   33.8634  C     
21   N        28.3627    5.1067   34.2879  N     
22   O        28.2152    4.1475   31.6769  O     
23   C        29.1375    6.1799   34.9484  C     
24   C        30.0318    6.8974   33.9988  C     
25   C        29.5020    7.4751   32.8176  C     
26   C        31.4261    6.9968   34.2278  C     
27   C        32.2576    7.6365   33.2961  C     
28   C        31.7173    8.1867   32.1183  C     
29   C        30.3259    8.1023   31.8561  C     
30   C        29.7099    8.6202   30.6033  C     
31   F        30.5982    9.2174   29.7345  F     
32   F        29.1203    7.5857   29.9168  F     
33   F        28.7460    9.5533   30.8973  F     
34   C        31.8319   -0.7534   40.6300  C     
35   C        33.1927   -0.2495   40.0987  C     
36   C        33.0723   -0.3263   38.5644  C     
37   C        31.0844   -1.0368   39.4440  C     
38   O        29.9309   -1.4266   39.4983  O     
39   O        30.9689   -3.5018   37.3811  O     
40   C        30.5174   -4.4074   36.5127  C     
41   C        30.1438   -3.9178   35.3268  C     
42   C        29.6486   -4.6832   34.1816  C     
43   C        28.1297   -4.5138   33.9414  C     
44   H        31.4369    0.9435   36.4001  H     
45   H        29.8663   -1.7314   33.5232  H     
46   H        28.6367    0.3372   33.4832  H     
47   H        30.0488    2.2173   31.7657  H     
48   H        27.3553    2.8845   33.0632  H     
49   H        27.2586    1.0941   31.3456  H     
50   H        28.3435    1.7818   30.1492  H     
51   H        27.9265   -3.4540   30.6775  H     
52   H        27.0489   -1.2678   31.1839  H     
53   H        30.7317    0.4559   30.0390  H     
54   H        31.6010   -1.7429   29.5620  H     
55   H        30.2089   -3.7057   29.8794  H     
56   H        29.1848    3.2365   34.7360  H     
57   H        30.1017    4.1446   33.5239  H     
58   H        27.8875    5.5114   33.4762  H     
59   H        27.6288    4.8019   34.9439  H     
60   H        27.4132    3.8974   31.1434  H     
61   H        28.4265    6.8994   35.3554  H     
62   H        29.6881    5.7589   35.7887  H     
63   H        28.4944    7.4125   32.6471  H     
64   H        31.8388    6.5926   35.0658  H     
65   H        33.2643    7.6959   33.4686  H     
66   H        32.3471    8.6316   31.4544  H     
67   H        31.9539   -1.6561   41.2332  H     
68   H        31.3366    0.0211   41.2324  H     
69   H        33.3775    0.7828   40.4212  H     
70   H        34.0064   -0.8819   40.4596  H     
71   H        33.8169   -1.0084   38.1500  H     
72   H        33.2059    0.6651   38.1194  H     
73   H        30.4684   -5.3719   36.7428  H     
74   H        30.2087   -4.3647   33.2908  H     
75   H        29.8440   -5.7488   34.3214  H     
76   H        27.5786   -4.8662   34.8059  H     
77   H        27.8375   -5.1012   33.0736  H     
78   H        27.8756   -3.4670   33.7539  H     
@<TRIPOS>BOND
     1    1    2 1
     2    1    6 2
     3    2    3 2
     4    2    8 1
     5    3    4 1
     6    3   39 1
     7    4    5 2
     8    4   41 1
     9    5    6 1
    10    6    7 1
    11    7    9 2
    12    7   10 am
    13    8   36 1
    14    8   37 1
    15   10   11 1
    16   11   12 1
    17   11   13 1
    18   12   20 1
    19   12   22 1
    20   13   14 1
    21   14   16 1
    22   14   17 2
    23   15   16 2
    24   15   19 1
    25   17   18 1
    26   18   19 2
    27   20   21 1
    28   21   23 1
    29   23   24 1
    30   24   25 1
    31   24   26 2
    32   25   29 2
    33   26   27 1
    34   27   28 2
    35   28   29 1
    36   29   30 1
    37   30   31 1
    38   30   32 1
    39   30   33 1
    40   34   35 1
    41   34   37 1
    42   35   36 1
    43   37   38 2
    44   39   40 1
    45   40   41 2
    46   41   42 1
    47   42   43 1
    48    1   44 1
    49    5   45 1
    50   10   46 1
    51   11   47 1
    52   12   48 1
    53   13   49 1
    54   13   50 1
    55   15   51 1
    56   16   52 1
    57   17   53 1
    58   18   54 1
    59   19   55 1
    60   20   56 1
    61   20   57 1
    62   21   58 1
    63   21   59 1
    64   22   60 1
    65   23   61 1
    66   23   62 1
    67   25   63 1
    68   26   64 1
    69   27   65 1
    70   28   66 1
    71   34   67 1
    72   34   68 1
    73   35   69 1
    74   35   70 1
    75   36   71 1
    76   36   72 1
    77   40   73 1
    78   42   74 1
    79   42   75 1
    80   43   76 1
    81   43   77 1
    82   43   78 1
@<TRIPOS>PROPERTY_DATA
  Total_Score	| 15.8531
  Crash		| -0.9547
  Polar		| 6.4180
  FragIndex	| 1
  FragRMSD	| 0.313

