@<TRIPOS>MOLECULE
BindingDB_29758
 81 84 0 0 0
SMALL
NO_CHARGES


@<TRIPOS>ATOM
1    C        31.1081   -0.1928   36.1721  C     
2    C        31.1493   -1.1809   37.1779  C     
3    C        30.6116   -2.4655   36.8990  C     
4    C        30.0675   -2.7668   35.6231  C     
5    C        30.0116   -1.7338   34.6532  C     
6    C        30.5104   -0.4350   34.9117  C     
7    C        30.4338    0.5769   33.9584  C     
8    N        29.6424   -4.0372   35.3927  N     
9    C        29.3827   -4.6667   34.1189  C     
10   C        27.8843   -4.6021   33.7412  C     
11   N        31.7001   -0.8701   38.4032  N     
12   O        31.3819    1.3436   33.8416  O     
13   N        29.3292    0.7580   33.2393  N     
14   C        29.1084    1.7559   32.2166  C     
15   C        28.1501    2.8925   32.7372  C     
16   C        28.5378    1.1137   30.8926  C     
17   C        29.0033   -0.2656   30.5825  C     
18   C        28.5941   -2.6827   30.5142  C     
19   C        28.1434   -1.3754   30.7628  C     
20   C        30.3196   -0.4996   30.1227  C     
21   C        30.7646   -1.8110   29.8638  C     
22   C        29.9088   -2.9028   30.0750  C     
23   C        28.3003    3.3577   34.2259  C     
24   N        28.4749    4.8149   34.4549  N     
25   O        28.2821    4.0144   31.8563  O     
26   C        29.8470    5.3010   34.7994  C     
27   C        30.4204    6.3848   33.9470  C     
28   C        29.7538    6.9440   32.8222  C     
29   C        31.7269    6.8457   34.2345  C     
30   C        32.3410    7.8224   33.4288  C     
31   C        31.6607    8.3560   32.3168  C     
32   C        30.3545    7.9280   31.9950  C     
33   C        29.5983    8.4675   30.8295  C     
34   F        30.3004    9.3541   30.0572  F     
35   F        29.2163    7.4412   29.9986  F     
36   F        28.4746    9.1204   31.2736  F     
37   O        30.5967   -3.4153   37.8918  O     
38   C        31.7430   -4.2809   37.9075  C     
39   C        31.9550   -0.7674   40.7041  C     
40   C        33.2012   -0.1250   40.0611  C     
41   C        32.9874   -0.2729   38.5418  C     
42   C        31.1414   -1.1171   39.5803  C     
43   O        30.0301   -1.6114   39.7327  O     
44   H        31.4764    0.7378   36.3846  H     
45   H        29.6073   -1.9266   33.7339  H     
46   H        29.6791   -4.6473   36.1446  H     
47   H        29.9888   -4.2157   33.3295  H     
48   H        29.6764   -5.7129   34.1821  H     
49   H        27.2818   -5.1903   34.4438  H     
50   H        27.7458   -5.0144   32.7334  H     
51   H        27.5230   -3.5700   33.7519  H     
52   H        28.5803    0.1696   33.4195  H     
53   H        30.0547    2.2426   31.9564  H     
54   H        27.1217    2.5176   32.6425  H     
55   H        27.4455    1.1117   30.9393  H     
56   H        28.7947    1.7681   30.0540  H     
57   H        27.9674   -3.4726   30.6711  H     
58   H        27.1804   -1.2422   31.0810  H     
59   H        30.9563    0.2859   29.9594  H     
60   H        31.7181   -1.9661   29.5262  H     
61   H        30.2373   -3.8585   29.8998  H     
62   H        27.3662    3.1135   34.7425  H     
63   H        29.0838    2.8013   34.7474  H     
64   H        28.1229    5.3011   33.6305  H     
65   H        27.8556    5.0390   35.2416  H     
66   H        27.4437    4.0683   31.3324  H     
67   H        29.7897    5.6660   35.8304  H     
68   H        30.5745    4.4760   34.7950  H     
69   H        28.8196    6.6169   32.5720  H     
70   H        32.2553    6.4778   35.0253  H     
71   H        33.2903    8.1513   33.6475  H     
72   H        32.1263    9.0672   31.7520  H     
73   H        31.7912   -4.8790   36.9965  H     
74   H        31.6458   -4.9630   38.7552  H     
75   H        32.6745   -3.7246   38.0318  H     
76   H        32.2176   -1.6647   41.2688  H     
77   H        31.4384   -0.0597   41.3577  H     
78   H        33.2671    0.9311   40.3478  H     
79   H        34.1156   -0.6339   40.3862  H     
80   H        33.7556   -0.9155   38.1056  H     
81   H        33.0325    0.7069   38.0584  H     
@<TRIPOS>BOND
     1    1    2 1
     2    1    6 2
     3    2    3 2
     4    2   11 1
     5    3    4 1
     6    3   37 1
     7    4    5 2
     8    4    8 1
     9    5    6 1
    10    6    7 1
    11    7   12 2
    12    7   13 am
    13    8    9 1
    14    9   10 1
    15   11   41 1
    16   11   42 1
    17   13   14 1
    18   14   15 1
    19   14   16 1
    20   15   23 1
    21   15   25 1
    22   16   17 1
    23   17   19 1
    24   17   20 2
    25   18   19 2
    26   18   22 1
    27   20   21 1
    28   21   22 2
    29   23   24 1
    30   24   26 1
    31   26   27 1
    32   27   28 1
    33   27   29 2
    34   28   32 2
    35   29   30 1
    36   30   31 2
    37   31   32 1
    38   32   33 1
    39   33   34 1
    40   33   35 1
    41   33   36 1
    42   37   38 1
    43   39   40 1
    44   39   42 1
    45   40   41 1
    46   42   43 2
    47    1   44 1
    48    5   45 1
    49    8   46 1
    50    9   47 1
    51    9   48 1
    52   10   49 1
    53   10   50 1
    54   10   51 1
    55   13   52 1
    56   14   53 1
    57   15   54 1
    58   16   55 1
    59   16   56 1
    60   18   57 1
    61   19   58 1
    62   20   59 1
    63   21   60 1
    64   22   61 1
    65   23   62 1
    66   23   63 1
    67   24   64 1
    68   24   65 1
    69   25   66 1
    70   26   67 1
    71   26   68 1
    72   28   69 1
    73   29   70 1
    74   30   71 1
    75   31   72 1
    76   38   73 1
    77   38   74 1
    78   38   75 1
    79   39   76 1
    80   39   77 1
    81   40   78 1
    82   40   79 1
    83   41   80 1
    84   41   81 1
@<TRIPOS>PROPERTY_DATA
  Total_Score	| 15.6993
  Crash		| -1.9458
  Polar		| 6.0812
  FragIndex	| 1
  FragRMSD	| 0.425

