@<TRIPOS>MOLECULE
BindingDB_29755
 77 80 0 0 0
SMALL
NO_CHARGES


@<TRIPOS>ATOM
1    C        31.1192   -0.0768   36.0960  C     
2    C        31.3116   -1.1314   37.0242  C     
3    C        30.9408   -2.4465   36.6602  C     
4    C        30.3625   -2.7286   35.3991  C     
5    C        30.1479   -1.6523   34.5004  C     
6    C        30.5445   -0.3326   34.8164  C     
7    F        31.4063    1.1560   36.4497  F     
8    C        30.4200    0.6752   33.8557  C     
9    N        30.0452   -4.0335   35.1501  N     
10   C        29.3974   -4.5726   33.9709  C     
11   C        27.8537   -4.4777   34.0805  C     
12   N        31.7692   -0.8746   38.2926  N     
13   O        31.3341    1.4902   33.7461  O     
14   N        29.2938    0.8005   33.1438  N     
15   C        29.0403    1.7812   32.1144  C     
16   C        28.0394    2.8767   32.6213  C     
17   C        28.5156    1.1239   30.7894  C     
18   C        29.0263   -0.2513   30.5281  C     
19   C        28.6644   -2.6736   30.5076  C     
20   C        28.1705   -1.3682   30.6730  C     
21   C        30.3828   -0.4648   30.1998  C     
22   C        30.8694   -1.7726   30.0147  C     
23   C        30.0078   -2.8749   30.1616  C     
24   C        28.0655    3.2726   34.1410  C     
25   N        28.3741    4.7025   34.4164  N     
26   O        28.2411    4.0289   31.7882  O     
27   C        29.8165    5.0085   34.6097  C     
28   C        30.1789    6.3597   34.0920  C     
29   C        29.7317    6.7866   32.8196  C     
30   C        31.0107    7.2245   34.8342  C     
31   C        31.3768    8.4823   34.3108  C     
32   C        30.9346    8.8857   33.0471  C     
33   C        30.0952    8.0451   32.2732  C     
34   C        29.6086    8.4274   30.9160  C     
35   F        30.0160    9.6747   30.4965  F     
36   F        30.0768    7.5209   29.9940  F     
37   F        28.2330    8.4182   30.8815  F     
38   C        31.7810   -0.7691   40.5956  C     
39   C        33.1129   -0.1888   40.0778  C     
40   C        33.0967   -0.4348   38.5564  C     
41   C        31.0646   -1.0662   39.3928  C     
42   O        29.9072   -1.4695   39.4102  O     
43   H        31.0700   -3.2091   37.3316  H     
44   H        29.7670   -1.8301   33.5651  H     
45   H        30.1743   -4.6595   35.8772  H     
46   H        29.7517   -4.0818   33.0602  H     
47   H        29.6701   -5.6391   33.9085  H     
48   H        27.4938   -5.1263   34.8895  H     
49   H        27.3968   -4.8049   33.1344  H     
50   H        27.5368   -3.4445   34.2834  H     
51   H        28.5749    0.1777   33.3477  H     
52   H        29.9698    2.2970   31.8587  H     
53   H        27.0222    2.5154   32.4298  H     
54   H        27.4239    1.0866   30.8097  H     
55   H        28.7803    1.7583   29.9386  H     
56   H        28.0340   -3.4677   30.6267  H     
57   H        27.1845   -1.2460   30.9220  H     
58   H        31.0179    0.3306   30.0761  H     
59   H        31.8474   -1.9190   29.7512  H     
60   H        30.3640   -3.8277   30.0230  H     
61   H        27.0597    3.0934   34.5566  H     
62   H        28.7411    2.6385   34.7345  H     
63   H        28.0157    5.2670   33.6379  H     
64   H        27.8426    4.9484   35.2656  H     
65   H        27.4463    4.0963   31.2118  H     
66   H        30.0215    4.9221   35.6873  H     
67   H        30.4687    4.2889   34.1018  H     
68   H        29.1222    6.1710   32.2695  H     
69   H        31.3500    6.9564   35.7564  H     
70   H        31.9617    9.1096   34.8688  H     
71   H        31.2119    9.8069   32.6970  H     
72   H        31.9369   -1.6795   41.1715  H     
73   H        31.2451   -0.0394   41.2014  H     
74   H        33.1563    0.8867   40.2830  H     
75   H        33.9695   -0.6740   40.5555  H     
76   H        33.8065   -1.2179   38.2746  H     
77   H        33.3440    0.4874   38.0201  H     
@<TRIPOS>BOND
     1    1    2 1
     2    1    6 2
     3    1    7 1
     4    2    3 2
     5    2   12 1
     6    3    4 1
     7    4    5 2
     8    4    9 1
     9    5    6 1
    10    6    8 1
    11    8   13 2
    12    8   14 am
    13    9   10 1
    14   10   11 1
    15   12   40 1
    16   12   41 1
    17   14   15 1
    18   15   16 1
    19   15   17 1
    20   16   24 1
    21   16   26 1
    22   17   18 1
    23   18   20 1
    24   18   21 2
    25   19   20 2
    26   19   23 1
    27   21   22 1
    28   22   23 2
    29   24   25 1
    30   25   27 1
    31   27   28 1
    32   28   29 1
    33   28   30 2
    34   29   33 2
    35   30   31 1
    36   31   32 2
    37   32   33 1
    38   33   34 1
    39   34   35 1
    40   34   36 1
    41   34   37 1
    42   38   39 1
    43   38   41 1
    44   39   40 1
    45   41   42 2
    46    3   43 1
    47    5   44 1
    48    9   45 1
    49   10   46 1
    50   10   47 1
    51   11   48 1
    52   11   49 1
    53   11   50 1
    54   14   51 1
    55   15   52 1
    56   16   53 1
    57   17   54 1
    58   17   55 1
    59   19   56 1
    60   20   57 1
    61   21   58 1
    62   22   59 1
    63   23   60 1
    64   24   61 1
    65   24   62 1
    66   25   63 1
    67   25   64 1
    68   26   65 1
    69   27   66 1
    70   27   67 1
    71   29   68 1
    72   30   69 1
    73   31   70 1
    74   32   71 1
    75   38   72 1
    76   38   73 1
    77   39   74 1
    78   39   75 1
    79   40   76 1
    80   40   77 1
@<TRIPOS>PROPERTY_DATA
  Total_Score	| 15.4713
  Crash		| -1.6726
  Polar		| 6.1909
  FragIndex	| 1
  FragRMSD	| 0.675

