@<TRIPOS>MOLECULE
BindingDB_29761
 78 82 0 0 0
SMALL
NO_CHARGES


@<TRIPOS>ATOM
1    C        31.2794   -0.0367   36.3401  C     
2    C        31.4825   -1.1009   37.2492  C     
3    C        31.1555   -2.4015   36.8126  C     
4    C        30.6345   -2.6433   35.5417  C     
5    C        30.4020   -1.5746   34.6550  C     
6    C        30.7296   -0.2506   35.0461  C     
7    C        30.5036    0.8228   34.1971  C     
8    N        31.9633   -0.8622   38.5113  N     
9    O        31.3609    1.6960   34.1065  O     
10   N        29.3332    0.9429   33.5783  N     
11   C        28.9362    2.0417   32.7386  C     
12   C        28.1413    3.0537   33.6268  C     
13   C        28.1718    1.5210   31.4758  C     
14   C        28.7199    0.2340   30.9490  C     
15   C        28.4794   -2.1714   30.5055  C     
16   C        27.9190   -0.9355   30.8778  C     
17   C        30.0790    0.1395   30.5655  C     
18   C        30.6409   -1.0990   30.2029  C     
19   C        29.8444   -2.2595   30.1821  C     
20   C        28.0162    4.5007   33.0392  C     
21   N        28.0848    5.5366   34.1090  N     
22   O        26.8361    2.5253   33.9112  O     
23   C        29.4519    5.9465   34.5448  C     
24   C        30.2564    6.7907   33.6119  C     
25   C        29.7380    7.3381   32.4120  C     
26   C        31.5931    7.0949   33.9623  C     
27   C        32.3877    7.9038   33.1328  C     
28   C        31.8604    8.4358   31.9438  C     
29   C        30.5273    8.1597   31.5624  C     
30   C        29.9308    8.6910   30.3004  C     
31   F        30.7593    9.5195   29.5744  F     
32   F        29.5887    7.6426   29.4749  F     
33   F        28.7892    9.4110   30.5763  F     
34   C        32.0120   -0.7221   40.8160  C     
35   C        33.3867   -0.2700   40.2906  C     
36   C        33.2567   -0.3150   38.7531  C     
37   C        31.2930   -1.0791   39.6287  C     
38   O        30.1394   -1.4847   39.6917  O     
39   N        31.2933   -3.5775   37.4405  N     
40   C        30.8824   -4.5252   36.5810  C     
41   N        30.4733   -3.9778   35.4149  N     
42   C        30.0249   -4.6935   34.2524  C     
43   C        28.4959   -4.5964   34.0514  C     
44   H        31.4922    0.9201   36.6450  H     
45   H        30.0238   -1.7639   33.7238  H     
46   H        28.6540    0.2814   33.7907  H     
47   H        29.8286    2.5561   32.3705  H     
48   H        28.6478    3.1192   34.6110  H     
49   H        27.1086    1.4003   31.7201  H     
50   H        28.2362    2.2738   30.6812  H     
51   H        27.8941   -3.0074   30.4695  H     
52   H        26.9294   -0.9096   31.1355  H     
53   H        30.6851    0.9668   30.5949  H     
54   H        31.6349   -1.1556   29.9642  H     
55   H        30.2570   -3.1609   29.9300  H     
56   H        28.7809    4.6831   32.2816  H     
57   H        27.0384    4.6026   32.5516  H     
58   H        27.5775    6.3703   33.7948  H     
59   H        27.5832    5.1694   34.9248  H     
60   H        26.4304    3.1760   34.5369  H     
61   H        29.3213    6.5007   35.4781  H     
62   H        30.0271    5.0506   34.7946  H     
63   H        28.7680    7.1326   32.1497  H     
64   H        32.0040    6.7150   34.8228  H     
65   H        33.3516    8.1074   33.3927  H     
66   H        32.4599    9.0151   31.3563  H     
67   H        32.1093   -1.5865   41.4767  H     
68   H        31.5055    0.0895   41.3441  H     
69   H        33.6285    0.7398   40.6379  H     
70   H        34.1712   -0.9547   40.6302  H     
71   H        34.0339   -0.9516   38.3197  H     
72   H        33.3420    0.6918   38.3325  H     
73   H        30.8935   -5.5255   36.7940  H     
74   H        30.5249   -4.2958   33.3663  H     
75   H        30.2898   -5.7525   34.3220  H     
76   H        27.9742   -5.0430   34.9028  H     
77   H        28.2040   -5.1332   33.1442  H     
78   H        28.1814   -3.5550   33.9531  H     
@<TRIPOS>BOND
     1    1    2 1
     2    1    6 2
     3    2    3 2
     4    2    8 1
     5    3    4 1
     6    3   39 1
     7    4    5 2
     8    4   41 1
     9    5    6 1
    10    6    7 1
    11    7    9 2
    12    7   10 am
    13    8   36 1
    14    8   37 1
    15   10   11 1
    16   11   12 1
    17   11   13 1
    18   12   20 1
    19   12   22 1
    20   13   14 1
    21   14   16 1
    22   14   17 2
    23   15   16 2
    24   15   19 1
    25   17   18 1
    26   18   19 2
    27   20   21 1
    28   21   23 1
    29   23   24 1
    30   24   25 1
    31   24   26 2
    32   25   29 2
    33   26   27 1
    34   27   28 2
    35   28   29 1
    36   29   30 1
    37   30   31 1
    38   30   32 1
    39   30   33 1
    40   34   35 1
    41   34   37 1
    42   35   36 1
    43   37   38 2
    44   39   40 2
    45   40   41 1
    46   41   42 1
    47   42   43 1
    48    1   44 1
    49    5   45 1
    50   10   46 1
    51   11   47 1
    52   12   48 1
    53   13   49 1
    54   13   50 1
    55   15   51 1
    56   16   52 1
    57   17   53 1
    58   18   54 1
    59   19   55 1
    60   20   56 1
    61   20   57 1
    62   21   58 1
    63   21   59 1
    64   22   60 1
    65   23   61 1
    66   23   62 1
    67   25   63 1
    68   26   64 1
    69   27   65 1
    70   28   66 1
    71   34   67 1
    72   34   68 1
    73   35   69 1
    74   35   70 1
    75   36   71 1
    76   36   72 1
    77   40   73 1
    78   42   74 1
    79   42   75 1
    80   43   76 1
    81   43   77 1
    82   43   78 1
@<TRIPOS>PROPERTY_DATA
  Total_Score	| 15.8576
  Crash		| -1.3043
  Polar		| 7.3510
  FragIndex	| 1
  FragRMSD	| 0.683

