@<TRIPOS>MOLECULE
BindingDB_26768
 76 79 0 0 0
SMALL
NO_CHARGES


@<TRIPOS>ATOM
1    C        31.0117   -0.0345   36.1335  C     
2    C        30.9535   -1.0487   37.1185  C     
3    C        30.2015   -2.2191   36.8484  C     
4    C        29.5725   -1.3430   34.6831  C     
5    C        30.2996   -0.1476   34.9134  C     
6    C        29.5054   -2.3777   35.6318  C     
7    O        28.8509   -3.5811   35.4674  O     
8    C        27.6537   -3.7178   34.6758  C     
9    C        26.3966   -3.1158   35.3433  C     
10   C        31.1582   -1.2040   39.5177  C     
11   C        32.0714   -0.9392   40.5980  C     
12   C        33.3646   -0.5057   39.8886  C     
13   C        32.9605   -0.3782   38.4048  C     
14   N        31.6308   -0.8991   38.3163  N     
15   O        30.0288   -1.6175   39.7386  O     
16   C        30.3140    0.8803   33.9633  C     
17   O        31.2755    1.6404   33.8942  O     
18   N        29.2549    1.0652   33.1776  N     
19   C        29.1011    1.9904   32.0959  C     
20   C        28.2916    1.2934   30.9665  C     
21   C        28.8530   -0.0378   30.5976  C     
22   C        28.6143   -2.4684   30.4166  C     
23   C        28.0527   -1.2037   30.6530  C     
24   C        30.2282   -0.1779   30.2767  C     
25   C        30.7910   -1.4481   30.0497  C     
26   C        29.9841   -2.5972   30.1245  C     
27   C        28.4236    3.2875   32.6453  C     
28   C        29.2577    3.9475   33.7865  C     
29   O        28.2686    4.2628   31.6124  O     
30   N        28.5491    5.0802   34.4236  N     
31   C        29.4101    6.1230   35.0378  C     
32   C        30.2413    6.8484   34.0409  C     
33   C        29.6555    7.3449   32.8537  C     
34   C        31.6294    7.0313   34.2350  C     
35   C        32.4035    7.6951   33.2689  C     
36   C        31.7987    8.1853   32.0962  C     
37   C        30.4134    8.0173   31.8674  C     
38   C        29.7350    8.5083   30.6339  C     
39   F        30.5440    9.2007   29.7698  F     
40   F        29.2415    7.4439   29.9219  F     
41   F        28.6886    9.3392   30.9571  F     
42   H        31.5416    0.8251   36.3240  H     
43   H        30.1708   -2.9709   37.5384  H     
44   H        29.1023   -1.4648   33.7844  H     
45   H        27.7953   -3.2900   33.6790  H     
46   H        27.4755   -4.7864   34.5451  H     
47   H        26.1672   -3.6244   36.2818  H     
48   H        25.5402   -3.2199   34.6693  H     
49   H        26.5515   -2.0559   35.5516  H     
50   H        31.6804   -0.1372   41.2326  H     
51   H        32.2380   -1.8405   41.1978  H     
52   H        33.7331    0.4489   40.2759  H     
53   H        34.1456   -1.2639   40.0063  H     
54   H        32.9955    0.6710   38.0891  H     
55   H        33.6438   -0.9606   37.7652  H     
56   H        28.4894    0.5069   33.3685  H     
57   H        30.0725    2.2724   31.6818  H     
58   H        27.2568    1.1909   31.2907  H     
59   H        28.2810    1.9227   30.0748  H     
60   H        28.0302   -3.3063   30.4804  H     
61   H        27.0639   -1.1450   30.8974  H     
62   H        30.8380    0.6505   30.2311  H     
63   H        31.7890   -1.5309   29.8502  H     
64   H        30.3887   -3.5213   29.9652  H     
65   H        27.4230    3.0454   33.0344  H     
66   H        29.4755    3.2136   34.5630  H     
67   H        30.2077    4.2729   33.3595  H     
68   H        27.4224    4.0471   31.1629  H     
69   H        27.9521    5.5288   33.7213  H     
70   H        27.9431    4.7000   35.1496  H     
71   H        28.7533    6.8418   35.5293  H     
72   H        30.0296    5.6532   35.8155  H     
73   H        28.6560    7.2039   32.6977  H     
74   H        32.0917    6.6791   35.0767  H     
75   H        33.4104    7.8281   33.4132  H     
76   H        32.3877    8.6650   31.4077  H     
@<TRIPOS>BOND
     1    1    2 2
     2    1    5 1
     3    2    3 1
     4    2   14 1
     5    3    6 2
     6    4    5 2
     7    4    6 1
     8    5   16 1
     9    6    7 1
    10    7    8 1
    11    8    9 1
    12   10   11 1
    13   10   14 1
    14   10   15 2
    15   11   12 1
    16   12   13 1
    17   13   14 1
    18   16   17 2
    19   16   18 am
    20   18   19 1
    21   19   20 1
    22   19   27 1
    23   20   21 1
    24   21   23 2
    25   21   24 1
    26   22   23 1
    27   22   26 2
    28   24   25 2
    29   25   26 1
    30   27   28 1
    31   27   29 1
    32   28   30 1
    33   30   31 1
    34   31   32 1
    35   32   33 2
    36   32   34 1
    37   33   37 1
    38   34   35 2
    39   35   36 1
    40   36   37 2
    41   37   38 1
    42   38   39 1
    43   38   40 1
    44   38   41 1
    45    1   42 1
    46    3   43 1
    47    4   44 1
    48    8   45 1
    49    8   46 1
    50    9   47 1
    51    9   48 1
    52    9   49 1
    53   11   50 1
    54   11   51 1
    55   12   52 1
    56   12   53 1
    57   13   54 1
    58   13   55 1
    59   18   56 1
    60   19   57 1
    61   20   58 1
    62   20   59 1
    63   22   60 1
    64   23   61 1
    65   24   62 1
    66   25   63 1
    67   26   64 1
    68   27   65 1
    69   28   66 1
    70   28   67 1
    71   29   68 1
    72   30   69 1
    73   30   70 1
    74   31   71 1
    75   31   72 1
    76   33   73 1
    77   34   74 1
    78   35   75 1
    79   36   76 1
@<TRIPOS>PROPERTY_DATA
  Total_Score	| 14.1021
  Crash		| -1.2284
  Polar		| 6.2415
  FragIndex	| 1
  FragRMSD	| 0.073

