@<TRIPOS>MOLECULE
BindingDB_26503
 80 84 0 0 0
SMALL
NO_CHARGES


@<TRIPOS>ATOM
1    C        31.3683   -0.0950   36.1159  C     
2    C        30.3273   -1.7205   34.6356  C     
3    C        30.7152   -0.3803   34.8892  C     
4    C        30.4875    0.6221   33.9441  C     
5    O        31.3422    1.4873   33.7859  O     
6    N        29.3507    0.6786   33.2555  N     
7    C        29.0106    1.6147   32.2174  C     
8    C        28.3810    0.8753   30.9788  C     
9    C        28.9478   -0.4658   30.6724  C     
10   C        28.7480   -2.9182   30.7067  C     
11   C        28.2022   -1.6414   30.9464  C     
12   C        30.2541   -0.6019   30.1548  C     
13   C        30.7967   -1.8785   29.9007  C     
14   C        30.0398   -3.0367   30.1641  C     
15   C        28.0297    2.7204   32.7511  C     
16   C        28.0474    3.0795   34.2706  C     
17   O        28.2350    3.8952   31.9547  O     
18   N        28.5468    4.4351   34.6371  N     
19   C        30.6036   -2.7212   35.5874  C     
20   C        30.9218   -4.5934   36.7335  C     
21   C        30.3802   -4.0957   35.5498  C     
22   C        31.2640   -2.4287   36.7857  C     
23   C        31.6481   -1.0971   37.0772  C     
24   C        31.6398   -3.0796   39.9282  C     
25   C        32.2146   -3.7873   38.6784  C     
26   N        32.2416   -0.7583   38.2697  N     
27   C        33.4543    0.0136   38.3416  C     
28   S        31.5317   -1.2926   39.7085  S     
29   O        29.9876   -0.9093   39.7336  O     
30   O        32.1460   -0.5564   40.9775  O     
31   N        31.4572   -3.5873   37.4668  N     
32   C        29.7920   -4.8947   34.4474  C     
33   C        28.2965   -4.5972   34.1918  C     
34   C        29.8792    4.5418   35.2841  C     
35   C        30.1425    5.9753   35.5897  C     
36   C        30.0019    6.4767   36.9037  C     
37   C        30.4979    6.8742   34.5554  C     
38   C        30.7012    8.2356   34.8339  C     
39   C        30.5699    8.7163   36.1468  C     
40   C        30.2204    7.8436   37.2055  C     
41   C        30.0337    8.3248   38.6025  C     
42   F        30.4530    9.6163   38.8195  F     
43   F        28.6978    8.2757   38.9112  F     
44   F        30.7219    7.5373   39.4957  F     
45   H        31.6232    0.8706   36.3320  H     
46   H        29.8896   -1.9836   33.7494  H     
47   H        28.6775    0.0104   33.4580  H     
48   H        29.9093    2.1180   31.8496  H     
49   H        27.3012    0.7535   31.1174  H     
50   H        28.4841    1.5087   30.0874  H     
51   H        28.2043   -3.7605   30.9245  H     
52   H        27.2657   -1.5878   31.3545  H     
53   H        30.8241    0.2277   29.9698  H     
54   H        31.7416   -1.9646   29.5109  H     
55   H        30.4313   -3.9591   29.9716  H     
56   H        27.0114    2.3706   32.5572  H     
57   H        26.9981    3.0759   34.5994  H     
58   H        28.5418    2.2865   34.8516  H     
59   H        27.4121    4.0118   31.4181  H     
60   H        28.5287    5.0469   33.8240  H     
61   H        27.8701    4.7902   35.3198  H     
62   H        30.9512   -5.5862   36.9811  H     
63   H        30.6438   -3.4691   40.1463  H     
64   H        32.2788   -3.2856   40.7889  H     
65   H        33.2400   -3.4456   38.5076  H     
66   H        32.2786   -4.8547   38.9175  H     
67   H        33.8703    0.2416   37.3559  H     
68   H        34.2130   -0.5444   38.8962  H     
69   H        33.2652    0.9596   38.8561  H     
70   H        30.3600   -4.7002   33.5338  H     
71   H        29.8882   -5.9618   34.6713  H     
72   H        28.1453   -3.5536   33.9039  H     
73   H        27.7080   -4.8064   35.0878  H     
74   H        27.9276   -5.2319   33.3819  H     
75   H        29.8931    3.9452   36.2020  H     
76   H        30.6611    4.1524   34.6271  H     
77   H        29.7167    5.8392   37.6512  H     
78   H        30.6040    6.5397   33.5912  H     
79   H        30.9574    8.8814   34.0819  H     
80   H        30.7258    9.7086   36.3226  H     
@<TRIPOS>BOND
     1    1    3 1
     2    1   23 2
     3    2    3 2
     4    2   19 1
     5    3    4 1
     6    4    5 2
     7    4    6 am
     8    6    7 1
     9    7    8 1
    10    7   15 1
    11    8    9 1
    12    9   11 2
    13    9   12 1
    14   10   11 1
    15   10   14 2
    16   12   13 2
    17   13   14 1
    18   15   16 1
    19   15   17 1
    20   16   18 1
    21   18   34 1
    22   19   21 1
    23   19   22 2
    24   20   21 2
    25   20   31 1
    26   21   32 1
    27   22   23 1
    28   22   31 1
    29   23   26 1
    30   24   25 1
    31   24   28 1
    32   25   31 1
    33   26   27 1
    34   26   28 1
    35   28   29 2
    36   28   30 2
    37   32   33 1
    38   34   35 1
    39   35   36 2
    40   35   37 1
    41   36   40 1
    42   37   38 2
    43   38   39 1
    44   39   40 2
    45   40   41 1
    46   41   42 1
    47   41   43 1
    48   41   44 1
    49    1   45 1
    50    2   46 1
    51    6   47 1
    52    7   48 1
    53    8   49 1
    54    8   50 1
    55   10   51 1
    56   11   52 1
    57   12   53 1
    58   13   54 1
    59   14   55 1
    60   15   56 1
    61   16   57 1
    62   16   58 1
    63   17   59 1
    64   18   60 1
    65   18   61 1
    66   20   62 1
    67   24   63 1
    68   24   64 1
    69   25   65 1
    70   25   66 1
    71   27   67 1
    72   27   68 1
    73   27   69 1
    74   32   70 1
    75   32   71 1
    76   33   72 1
    77   33   73 1
    78   33   74 1
    79   34   75 1
    80   34   76 1
    81   36   77 1
    82   37   78 1
    83   38   79 1
    84   39   80 1
@<TRIPOS>PROPERTY_DATA
  Total_Score	| 16.4825
  Crash		| -1.7701
  Polar		| 5.5754
  FragIndex	| 1
  FragRMSD	| 0.313

