@<TRIPOS>MOLECULE
BindingDB_29768
 80 84 0 0 0
SMALL
NO_CHARGES


@<TRIPOS>ATOM
1    C        31.1352   -0.0736   36.2897  C     
2    C        31.3186   -1.1178   37.2207  C     
3    C        31.0014   -2.4405   36.8408  C     
4    C        30.4479   -2.7402   35.5620  C     
5    C        30.2334   -1.6489   34.6751  C     
6    C        30.5936   -0.3183   35.0081  C     
7    C        30.4876    0.7200   34.0858  C     
8    N        31.8285   -0.8283   38.4615  N     
9    O        31.4433    1.4797   33.9491  O     
10   N        29.3727    0.8969   33.3818  N     
11   C        29.1615    1.8426   32.3117  C     
12   C        28.4580    3.1391   32.8334  C     
13   C        28.3771    1.1473   31.1554  C     
14   C        28.9046   -0.1962   30.7686  C     
15   C        30.7295   -1.6168   29.9488  C     
16   C        30.2301   -0.3467   30.2955  C     
17   C        28.0904   -1.3509   30.8801  C     
18   C        28.5874   -2.6169   30.5276  C     
19   C        29.9072   -2.7523   30.0641  C     
20   C        29.2596    3.8768   33.9397  C     
21   N        28.5240    5.0709   34.4248  N     
22   O        28.2894    4.0610   31.7536  O     
23   C        29.3492    6.1453   35.0291  C     
24   C        30.2084    6.8348   34.0257  C     
25   C        29.6381    7.3506   32.8371  C     
26   C        31.5933    7.0095   34.2375  C     
27   C        32.3824    7.6909   33.2956  C     
28   C        31.7996    8.2042   32.1235  C     
29   C        30.4183    8.0323   31.8693  C     
30   C        29.7660    8.5433   30.6265  C     
31   F        30.6115    9.2141   29.7692  F     
32   F        29.2237    7.4975   29.9144  F     
33   F        28.7579    9.4192   30.9572  F     
34   C        31.9741   -0.6965   40.7597  C     
35   C        33.2838   -0.1322   40.1679  C     
36   C        33.1517   -0.3270   38.6436  C     
37   C        31.1929   -1.0212   39.6032  C     
38   O        30.0497   -1.4468   39.7067  O     
39   N        31.2519   -3.4640   37.7010  N     
40   C        31.0074   -4.7258   37.3948  C     
41   C        30.4893   -5.0579   36.1812  C     
42   C        30.1938   -4.1099   35.2509  C     
43   C        29.6051   -4.5479   33.9753  C     
44   C        28.0591   -4.5167   33.9955  C     
45   H        31.3760    0.8852   36.5698  H     
46   H        29.8549   -1.8174   33.7426  H     
47   H        28.6329    0.3009   33.5878  H     
48   H        30.1267    2.1503   31.8981  H     
49   H        27.4681    2.8967   33.2268  H     
50   H        27.3276    1.0782   31.4486  H     
51   H        28.4138    1.7885   30.2732  H     
52   H        31.6868   -1.7174   29.6149  H     
53   H        30.8427    0.4668   30.2016  H     
54   H        27.1301   -1.2791   31.2226  H     
55   H        27.9886   -3.4389   30.6116  H     
56   H        30.2694   -3.6752   29.8079  H     
57   H        29.4124    3.2093   34.7932  H     
58   H        30.2425    4.1560   33.5375  H     
59   H        28.0138    5.4805   33.6339  H     
60   H        27.8441    4.7555   35.1243  H     
61   H        27.4351    3.8351   31.3268  H     
62   H        28.6670    6.8860   35.4534  H     
63   H        29.9407    5.7375   35.8581  H     
64   H        28.6329    7.2256   32.6678  H     
65   H        32.0391    6.6516   35.0860  H     
66   H        33.3863    7.8207   33.4652  H     
67   H        32.3944    8.7133   31.4643  H     
68   H        32.1590   -1.6001   41.3523  H     
69   H        31.4636    0.0521   41.3757  H     
70   H        33.3812    0.9325   40.4102  H     
71   H        34.1531   -0.6695   40.5596  H     
72   H        33.8858   -1.0548   38.2759  H     
73   H        33.2946    0.6267   38.1206  H     
74   H        31.2068   -5.4340   38.0644  H     
75   H        30.3169   -6.0230   36.0002  H     
76   H        29.9795   -3.9283   33.1575  H     
77   H        29.9032   -5.5737   33.7279  H     
78   H        27.6732   -5.1472   34.8011  H     
79   H        27.6725   -4.9034   33.0499  H     
80   H        27.6917   -3.4970   34.1317  H     
@<TRIPOS>BOND
     1    1    2 1
     2    1    6 2
     3    2    3 2
     4    2    8 1
     5    3    4 1
     6    3   39 1
     7    4    5 2
     8    4   42 1
     9    5    6 1
    10    6    7 1
    11    7    9 2
    12    7   10 am
    13    8   36 1
    14    8   37 1
    15   10   11 1
    16   11   12 1
    17   11   13 1
    18   12   20 1
    19   12   22 1
    20   13   14 1
    21   14   16 1
    22   14   17 2
    23   15   16 2
    24   15   19 1
    25   17   18 1
    26   18   19 2
    27   20   21 1
    28   21   23 1
    29   23   24 1
    30   24   25 1
    31   24   26 2
    32   25   29 2
    33   26   27 1
    34   27   28 2
    35   28   29 1
    36   29   30 1
    37   30   31 1
    38   30   32 1
    39   30   33 1
    40   34   35 1
    41   34   37 1
    42   35   36 1
    43   37   38 2
    44   39   40 2
    45   40   41 1
    46   41   42 2
    47   42   43 1
    48   43   44 1
    49    1   45 1
    50    5   46 1
    51   10   47 1
    52   11   48 1
    53   12   49 1
    54   13   50 1
    55   13   51 1
    56   15   52 1
    57   16   53 1
    58   17   54 1
    59   18   55 1
    60   19   56 1
    61   20   57 1
    62   20   58 1
    63   21   59 1
    64   21   60 1
    65   22   61 1
    66   23   62 1
    67   23   63 1
    68   25   64 1
    69   26   65 1
    70   27   66 1
    71   28   67 1
    72   34   68 1
    73   34   69 1
    74   35   70 1
    75   35   71 1
    76   36   72 1
    77   36   73 1
    78   40   74 1
    79   41   75 1
    80   43   76 1
    81   43   77 1
    82   44   78 1
    83   44   79 1
    84   44   80 1
@<TRIPOS>PROPERTY_DATA
  Total_Score	| 15.8916
  Crash		| -1.0311
  Polar		| 6.3949
  FragIndex	| 1
  FragRMSD	| 0.168

