@<TRIPOS>MOLECULE
BindingDB_29762
 79 83 0 0 0
SMALL
NO_CHARGES


@<TRIPOS>ATOM
1    C        31.1361   -0.1925   35.9663  C     
2    C        31.2436   -1.2421   36.9114  C     
3    C        30.8736   -2.5399   36.4909  C     
4    C        30.3882   -2.7790   35.2033  C     
5    C        30.2385   -1.7170   34.2893  C     
6    C        30.6188   -0.4055   34.6636  C     
7    C        30.4941    0.6471   33.7761  C     
8    N        31.6784   -0.9849   38.1874  N     
9    O        31.4034    1.4647   33.6902  O     
10   N        29.3568    0.8129   33.1111  N     
11   C        29.0637    1.8057   32.1102  C     
12   C        28.0867    2.9047   32.6603  C     
13   C        28.5085    1.1169   30.8135  C     
14   C        29.0139   -0.2608   30.5398  C     
15   C        28.6691   -2.6912   30.5242  C     
16   C        28.1698   -1.3872   30.7014  C     
17   C        30.3603   -0.4756   30.1611  C     
18   C        30.8573   -1.7800   29.9752  C     
19   C        30.0148   -2.8897   30.1694  C     
20   C        28.1490    3.2426   34.1864  C     
21   N        28.5228    4.6478   34.5236  N     
22   O        28.2904    4.0859   31.8682  O     
23   C        29.8073    4.8887   35.2218  C     
24   C        30.3223    6.2514   34.9249  C     
25   C        30.4246    7.2569   35.9202  C     
26   C        30.7663    6.5567   33.6191  C     
27   C        31.2932    7.8220   33.3103  C     
28   C        31.3932    8.8023   34.3097  C     
29   C        30.9677    8.5415   35.6338  C     
30   C        31.0874    9.5646   36.7172  C     
31   F        31.6901   10.7381   36.3304  F     
32   F        29.8430    9.8909   37.1932  F     
33   F        31.8401    9.0715   37.7524  F     
34   C        31.6605   -0.8544   40.4924  C     
35   C        33.0511   -0.4042   40.0104  C     
36   C        32.9827   -0.4857   38.4712  C     
37   C        30.9468   -1.1301   39.2777  C     
38   O        29.7637   -1.4470   39.2948  O     
39   C        30.9093   -3.7541   37.1071  C     
40   C        30.4907   -4.6754   36.2389  C     
41   N        30.1592   -4.1081   35.0854  N     
42   C        29.6823   -4.7981   33.9175  C     
43   C        28.1516   -4.6747   33.7506  C     
44   H        31.3995    0.7583   36.2541  H     
45   H        29.8887   -1.9110   33.3497  H     
46   H        28.6400    0.1930   33.3173  H     
47   H        29.9999    2.3129   31.8253  H     
48   H        27.0630    2.5790   32.4719  H     
49   H        27.4157    1.0719   30.8765  H     
50   H        28.7335    1.7471   29.9461  H     
51   H        28.0490   -3.5001   30.6565  H     
52   H        27.1906   -1.2728   30.9657  H     
53   H        30.9907    0.3216   30.0166  H     
54   H        31.8296   -1.9248   29.6964  H     
55   H        30.3796   -3.8379   30.0517  H     
56   H        27.1472    3.1086   34.5922  H     
57   H        28.7800    2.5391   34.7307  H     
58   H        28.4978    5.2166   33.6649  H     
59   H        27.7691    4.9904   35.1403  H     
60   H        27.4735    4.1807   31.2985  H     
61   H        29.6379    4.7513   36.2932  H     
62   H        30.5540    4.1657   34.9087  H     
63   H        30.1048    7.0508   36.8715  H     
64   H        30.7154    5.8480   32.8784  H     
65   H        31.6109    8.0257   32.3607  H     
66   H        31.7827    9.7111   34.0583  H     
67   H        31.7237   -1.7606   41.1005  H     
68   H        31.1638   -0.0655   41.0633  H     
69   H        33.2606    0.6190   40.3335  H     
70   H        33.8295   -1.0646   40.3971  H     
71   H        33.7498   -1.1622   38.0794  H     
72   H        33.1259    0.5081   38.0324  H     
73   H        31.2171   -3.9327   38.0338  H     
74   H        30.4402   -5.6446   36.4378  H     
75   H        30.1758   -4.3936   33.0285  H     
76   H        29.9346   -5.8616   33.9651  H     
77   H        27.6429   -5.1526   34.5912  H     
78   H        27.8405   -5.1695   32.8272  H     
79   H        27.8511   -3.6270   33.7033  H     
@<TRIPOS>BOND
     1    1    2 1
     2    1    6 2
     3    2    3 2
     4    2    8 1
     5    3    4 1
     6    3   39 1
     7    4    5 2
     8    4   41 1
     9    5    6 1
    10    6    7 1
    11    7    9 2
    12    7   10 am
    13    8   36 1
    14    8   37 1
    15   10   11 1
    16   11   12 1
    17   11   13 1
    18   12   20 1
    19   12   22 1
    20   13   14 1
    21   14   16 1
    22   14   17 2
    23   15   16 2
    24   15   19 1
    25   17   18 1
    26   18   19 2
    27   20   21 1
    28   21   23 1
    29   23   24 1
    30   24   25 1
    31   24   26 2
    32   25   29 2
    33   26   27 1
    34   27   28 2
    35   28   29 1
    36   29   30 1
    37   30   31 1
    38   30   32 1
    39   30   33 1
    40   34   35 1
    41   34   37 1
    42   35   36 1
    43   37   38 2
    44   39   40 2
    45   40   41 1
    46   41   42 1
    47   42   43 1
    48    1   44 1
    49    5   45 1
    50   10   46 1
    51   11   47 1
    52   12   48 1
    53   13   49 1
    54   13   50 1
    55   15   51 1
    56   16   52 1
    57   17   53 1
    58   18   54 1
    59   19   55 1
    60   20   56 1
    61   20   57 1
    62   21   58 1
    63   21   59 1
    64   22   60 1
    65   23   61 1
    66   23   62 1
    67   25   63 1
    68   26   64 1
    69   27   65 1
    70   28   66 1
    71   34   67 1
    72   34   68 1
    73   35   69 1
    74   35   70 1
    75   36   71 1
    76   36   72 1
    77   39   73 1
    78   40   74 1
    79   42   75 1
    80   42   76 1
    81   43   77 1
    82   43   78 1
    83   43   79 1
@<TRIPOS>PROPERTY_DATA
  Total_Score	| 17.3042
  Crash		| -1.3900
  Polar		| 6.3771
  FragIndex	| 1
  FragRMSD	| 0.708

