@<TRIPOS>MOLECULE
BindingDB_29763
 79 83 0 0 0
SMALL
NO_CHARGES


@<TRIPOS>ATOM
1    C        31.1743    0.0401   36.1379  C     
2    C        31.3162   -1.0001   37.0832  C     
3    C        30.9542   -2.3030   36.6819  C     
4    C        30.4344   -2.5701   35.4172  C     
5    C        30.2140   -1.5167   34.5099  C     
6    C        30.6149   -0.2011   34.8535  C     
7    C        30.4988    0.8163   33.9231  C     
8    N        31.8016   -0.7631   38.3414  N     
9    O        31.4188    1.6213   33.8185  O     
10   N        29.3931    0.9416   33.1968  N     
11   C        29.1693    1.8917   32.1424  C     
12   C        28.3888    3.1319   32.6905  C     
13   C        28.4401    1.1923   30.9503  C     
14   C        28.9390   -0.1779   30.6393  C     
15   C        30.7718   -1.6885   30.0180  C     
16   C        30.2867   -0.3888   30.2592  C     
17   C        28.0845   -1.3042   30.7489  C     
18   C        28.5674   -2.6018   30.4994  C     
19   C        29.9151   -2.7951   30.1390  C     
20   C        29.1156    3.8562   33.8582  C     
21   N        28.3826    5.0740   34.2921  N     
22   O        28.2164    4.0985   31.6491  O     
23   C        29.1834    6.1310   34.9589  C     
24   C        30.0716    6.8651   34.0130  C     
25   C        29.5434    7.4043   32.8184  C     
26   C        31.4577    6.9870   34.2553  C     
27   C        32.2907    7.6330   33.3253  C     
28   C        31.7494    8.1580   32.1408  C     
29   C        30.3684    8.0409   31.8571  C     
30   C        29.7698    8.5333   30.5845  C     
31   F        30.6569    9.1636   29.7435  F     
32   F        29.2407    7.4755   29.8834  F     
33   F        28.7625    9.4311   30.8476  F     
34   C        31.8990   -0.7409   40.6483  C     
35   C        33.2236   -0.1601   40.1128  C     
36   C        33.1308   -0.3107   38.5810  C     
37   C        31.1339   -0.9862   39.4653  C     
38   O        29.9778   -1.3850   39.5226  O     
39   N        31.0435   -3.4766   37.3206  N     
40   C        30.6462   -4.4349   36.5091  C     
41   C        30.2782   -3.9249   35.3272  C     
42   C        29.9108   -4.6973   34.1490  C     
43   C        28.4076   -4.6338   33.8147  C     
44   H        31.4500    0.9883   36.3979  H     
45   H        29.8088   -1.7106   33.5889  H     
46   H        28.6675    0.3274   33.3991  H     
47   H        30.1236    2.2572   31.7514  H     
48   H        27.3965    2.8177   33.0360  H     
49   H        27.3676    1.1639   31.1716  H     
50   H        28.5627    1.8030   30.0519  H     
51   H        31.7557   -1.8319   29.7728  H     
52   H        30.9315    0.4006   30.1720  H     
53   H        27.1041   -1.1893   31.0207  H     
54   H        27.9450   -3.4087   30.5971  H     
55   H        30.2665   -3.7397   29.9646  H     
56   H        29.1889    3.1942   34.7229  H     
57   H        30.1257    4.1032   33.5260  H     
58   H        27.9247    5.4937   33.4836  H     
59   H        27.6552    4.7795   34.9423  H     
60   H        27.2622    4.0936   31.4235  H     
61   H        28.4875    6.8516   35.3986  H     
62   H        29.7492    5.6835   35.7832  H     
63   H        28.5408    7.3131   32.6291  H     
64   H        31.8746    6.5945   35.1015  H     
65   H        33.2959    7.7040   33.5068  H     
66   H        32.3818    8.6097   31.4790  H     
67   H        32.0648   -1.6769   41.1904  H     
68   H        31.3929   -0.0260   41.3011  H     
69   H        33.3127    0.8971   40.3812  H     
70   H        34.0842   -0.6999   40.5158  H     
71   H        33.8533   -1.0511   38.2222  H     
72   H        33.3184    0.6467   38.0852  H     
73   H        31.3964   -3.6057   38.2174  H     
74   H        30.6780   -5.3982   36.7373  H     
75   H        30.4663   -4.3539   33.2708  H     
76   H        30.1821   -5.7461   34.3085  H     
77   H        27.8406   -5.2010   34.5547  H     
78   H        28.2363   -5.0743   32.8301  H     
79   H        28.0481   -3.6015   33.7989  H     
@<TRIPOS>BOND
     1    1    2 1
     2    1    6 2
     3    2    3 2
     4    2    8 1
     5    3    4 1
     6    3   39 1
     7    4    5 2
     8    4   41 1
     9    5    6 1
    10    6    7 1
    11    7    9 2
    12    7   10 am
    13    8   36 1
    14    8   37 1
    15   10   11 1
    16   11   12 1
    17   11   13 1
    18   12   20 1
    19   12   22 1
    20   13   14 1
    21   14   16 1
    22   14   17 2
    23   15   16 2
    24   15   19 1
    25   17   18 1
    26   18   19 2
    27   20   21 1
    28   21   23 1
    29   23   24 1
    30   24   25 1
    31   24   26 2
    32   25   29 2
    33   26   27 1
    34   27   28 2
    35   28   29 1
    36   29   30 1
    37   30   31 1
    38   30   32 1
    39   30   33 1
    40   34   35 1
    41   34   37 1
    42   35   36 1
    43   37   38 2
    44   39   40 1
    45   40   41 2
    46   41   42 1
    47   42   43 1
    48    1   44 1
    49    5   45 1
    50   10   46 1
    51   11   47 1
    52   12   48 1
    53   13   49 1
    54   13   50 1
    55   15   51 1
    56   16   52 1
    57   17   53 1
    58   18   54 1
    59   19   55 1
    60   20   56 1
    61   20   57 1
    62   21   58 1
    63   21   59 1
    64   22   60 1
    65   23   61 1
    66   23   62 1
    67   25   63 1
    68   26   64 1
    69   27   65 1
    70   28   66 1
    71   34   67 1
    72   34   68 1
    73   35   69 1
    74   35   70 1
    75   36   71 1
    76   36   72 1
    77   39   73 1
    78   40   74 1
    79   42   75 1
    80   42   76 1
    81   43   77 1
    82   43   78 1
    83   43   79 1
@<TRIPOS>PROPERTY_DATA
  Total_Score	| 16.1428
  Crash		| -0.9693
  Polar		| 6.4617
  FragIndex	| 1
  FragRMSD	| 0.304

