@<TRIPOS>MOLECULE
BindingDB_29766
 82 86 0 0 0
SMALL
NO_CHARGES


@<TRIPOS>ATOM
1    C        31.1785   -0.0542   36.1951  C     
2    C        31.3238   -1.1238   37.1061  C     
3    C        30.9611   -2.4286   36.6880  C     
4    C        30.4250   -2.6269   35.4103  C     
5    C        30.2185   -1.5529   34.5239  C     
6    C        30.6221   -0.2506   34.9037  C     
7    C        30.5086    0.8010   34.0122  C     
8    N        31.7815   -0.8633   38.3640  N     
9    O        31.4285    1.6126   33.9302  O     
10   N        29.3900    0.9585   33.3120  N     
11   C        29.1716    1.9195   32.2640  C     
12   C        28.4415    3.1837   32.8350  C     
13   C        28.4215    1.2380   31.0737  C     
14   C        28.9162   -0.1311   30.7384  C     
15   C        30.7299   -1.6041   29.9854  C     
16   C        30.2502   -0.3170   30.3046  C     
17   C        28.0721   -1.2684   30.8531  C     
18   C        28.5561   -2.5499   30.5242  C     
19   C        29.8807   -2.7207   30.0849  C     
20   C        29.2697    3.9019   33.9389  C     
21   N        28.5847    5.1259   34.4358  N     
22   O        28.2243    4.1428   31.7935  O     
23   C        29.4474    6.1814   35.0228  C     
24   C        30.2622    6.8989   34.0039  C     
25   C        29.6438    7.4348   32.8507  C     
26   C        31.6633    7.0272   34.1448  C     
27   C        32.4230    7.6745   33.1590  C     
28   C        31.7967    8.1968   32.0127  C     
29   C        30.3988    8.0731   31.8321  C     
30   C        29.7120    8.5255   30.5882  C     
31   F        30.5245    9.1881   29.6937  F     
32   F        29.1949    7.4345   29.9260  F     
33   F        28.6767    9.3797   30.8910  F     
34   C        31.8005   -0.7475   40.6634  C     
35   C        33.1799   -0.2851   40.1545  C     
36   C        33.0855   -0.3534   38.6153  C     
37   C        31.0790   -1.0504   39.4660  C     
38   O        29.9309   -1.4763   39.4969  O     
39   N        31.0557   -3.6485   37.2664  N     
40   C        30.5990   -4.5450   36.3986  C     
41   C        30.2206   -3.9681   35.2535  C     
42   C        29.8429   -4.6749   34.0373  C     
43   C        28.3187   -4.6974   33.8080  C     
44   C        31.6110   -3.9795   38.5473  C     
45   H        31.4491    0.8933   36.4883  H     
46   H        29.8162   -1.7237   33.5962  H     
47   H        28.6696    0.3275   33.4880  H     
48   H        30.1272    2.2641   31.8602  H     
49   H        27.4709    2.8985   33.2492  H     
50   H        27.3505    1.2217   31.2860  H     
51   H        28.5509    1.8557   30.1799  H     
52   H        31.7004   -1.7228   29.6867  H     
53   H        30.8844    0.4862   30.2152  H     
54   H        27.1040   -1.1699   31.1778  H     
55   H        27.9426   -3.3631   30.6045  H     
56   H        30.2251   -3.6499   29.8362  H     
57   H        29.4280    3.2387   34.7922  H     
58   H        30.2480    4.1498   33.5206  H     
59   H        28.0699    5.5494   33.6609  H     
60   H        27.9071    4.8399   35.1507  H     
61   H        27.3530    3.9260   31.4018  H     
62   H        28.7960    6.9092   35.5136  H     
63   H        30.0718    5.7382   35.8039  H     
64   H        28.6336    7.3424   32.7361  H     
65   H        32.1432    6.6316   34.9565  H     
66   H        33.4366    7.7538   33.2637  H     
67   H        32.3773    8.6585   31.3045  H     
68   H        31.8859   -1.6441   41.2819  H     
69   H        31.3008    0.0402   41.2318  H     
70   H        33.3948    0.7341   40.4876  H     
71   H        33.9681   -0.9494   40.5240  H     
72   H        33.8538   -1.0174   38.2073  H     
73   H        33.2040    0.6441   38.1767  H     
74   H        30.6040   -5.5277   36.5476  H     
75   H        30.3198   -4.2090   33.1705  H     
76   H        30.2120   -5.7046   34.0877  H     
77   H        27.8141   -5.1956   34.6366  H     
78   H        28.0974   -5.2420   32.8880  H     
79   H        27.9277   -3.6833   33.7126  H     
80   H        32.6060   -3.5431   38.6398  H     
81   H        31.7137   -5.0619   38.6816  H     
82   H        30.9682   -3.5887   39.3437  H     
@<TRIPOS>BOND
     1    1    2 1
     2    1    6 2
     3    2    3 2
     4    2    8 1
     5    3    4 1
     6    3   39 1
     7    4    5 2
     8    4   41 1
     9    5    6 1
    10    6    7 1
    11    7    9 2
    12    7   10 am
    13    8   36 1
    14    8   37 1
    15   10   11 1
    16   11   12 1
    17   11   13 1
    18   12   20 1
    19   12   22 1
    20   13   14 1
    21   14   16 1
    22   14   17 2
    23   15   16 2
    24   15   19 1
    25   17   18 1
    26   18   19 2
    27   20   21 1
    28   21   23 1
    29   23   24 1
    30   24   25 1
    31   24   26 2
    32   25   29 2
    33   26   27 1
    34   27   28 2
    35   28   29 1
    36   29   30 1
    37   30   31 1
    38   30   32 1
    39   30   33 1
    40   34   35 1
    41   34   37 1
    42   35   36 1
    43   37   38 2
    44   39   40 1
    45   39   44 1
    46   40   41 2
    47   41   42 1
    48   42   43 1
    49    1   45 1
    50    5   46 1
    51   10   47 1
    52   11   48 1
    53   12   49 1
    54   13   50 1
    55   13   51 1
    56   15   52 1
    57   16   53 1
    58   17   54 1
    59   18   55 1
    60   19   56 1
    61   20   57 1
    62   20   58 1
    63   21   59 1
    64   21   60 1
    65   22   61 1
    66   23   62 1
    67   23   63 1
    68   25   64 1
    69   26   65 1
    70   27   66 1
    71   28   67 1
    72   34   68 1
    73   34   69 1
    74   35   70 1
    75   35   71 1
    76   36   72 1
    77   36   73 1
    78   40   74 1
    79   42   75 1
    80   42   76 1
    81   43   77 1
    82   43   78 1
    83   43   79 1
    84   44   80 1
    85   44   81 1
    86   44   82 1
@<TRIPOS>PROPERTY_DATA
  Total_Score	| 16.2041
  Crash		| -1.0997
  Polar		| 6.4753
  FragIndex	| 1
  FragRMSD	| 0.258

