@<TRIPOS>MOLECULE
BindingDB_50102517
 62 64 0 0 0
SMALL
NO_CHARGES


@<TRIPOS>ATOM
1    N         9.9793    2.7413   13.6308  N     
2    C        10.9676    3.6472   13.8189  C     
3    C        12.2673    3.3909   13.3159  C     
4    C        10.1946    1.5812   12.9767  C     
5    C        12.4791    2.1655   12.6270  C     
6    N        11.4304    1.3043   12.5030  N     
7    C        13.2584    4.3930   13.4077  C     
8    N        14.2996    7.1055   11.2561  N     
9    N        15.0338    8.0545   10.8643  N     
10   C        14.3077    6.3620   12.3756  C     
11   C        13.3171    5.3572   12.3831  C     
12   C        15.2039    6.4417   13.4765  C     
13   N        14.9393    8.6239    9.7511  N     
14   C        12.6423   10.7237    6.7436  C     
15   C        14.1680    4.4599   14.4786  C     
16   N        10.6515    4.7746   14.4855  N     
17   O        11.4283   10.3357    7.2007  O     
18   C        15.1266    5.4918   14.5226  C     
19   N         9.1925    0.7071   12.8043  N     
20   C        16.8912    8.3365    8.3814  C     
21   C        16.1263    9.2411    9.2861  C     
22   C        17.3852    7.0957    8.8451  C     
23   C        13.6933    8.7676    9.0649  C     
24   Cl       16.3956    7.6478   13.5921  Cl    
25   O        13.7256    9.9055    6.8605  O     
26   C        13.7842    1.7426   12.0329  C     
27   C        13.7445    8.6200    7.5081  C     
28   C        18.0087    6.1768    7.9727  C     
29   C        17.8138    7.8164    6.1707  C     
30   C        12.7884   12.0574    6.1504  C     
31   C        17.1447    8.6981    7.0352  C     
32   C        18.2276    6.5517    6.6335  C     
33   C        18.3734    4.8286    8.4730  C     
34   C        14.1894    2.5235   10.7588  C     
35   H        12.6441    5.3022   11.6012  H     
36   H        14.1423    3.7663   15.2323  H     
37   H        11.3210    5.4598   14.6458  H     
38   H         9.7513    4.8986   14.8147  H     
39   H        15.7815    5.5354   15.3099  H     
40   H         9.3504   -0.1276   12.3355  H     
41   H         8.3110    0.9076   13.1553  H     
42   H        15.8861   10.1860    8.7884  H     
43   H        16.7942    9.5127   10.1126  H     
44   H        17.2418    6.8216    9.8205  H     
45   H        12.9625    8.0318    9.4172  H     
46   H        13.2714    9.7437    9.3287  H     
47   H        14.5722    1.8440   12.7826  H     
48   H        13.7337    0.6855   11.7666  H     
49   H        14.6566    8.0983    7.2095  H     
50   H        12.9013    8.0163    7.1500  H     
51   H        17.9848    8.0857    5.1983  H     
52   H        12.1246   12.1454    5.2890  H     
53   H        13.8164   12.2295    5.8283  H     
54   H        12.5206   12.8114    6.8935  H     
55   H        16.8165    9.5917    6.6699  H     
56   H        18.6969    5.9168    5.9845  H     
57   H        19.0996    4.9109    9.2836  H     
58   H        18.8029    4.2067    7.6861  H     
59   H        17.4773    4.3298    8.8491  H     
60   H        13.3569    2.5850   10.0500  H     
61   H        15.0289    2.0172   10.2733  H     
62   H        14.5163    3.5333   11.0122  H     
@<TRIPOS>BOND
     1    1    2 1
     2    1    4 2
     3    2    3 2
     4    2   16 1
     5    3    5 1
     6    3    7 1
     7    4    6 1
     8    4   19 1
     9    5    6 2
    10    5   26 1
    11    7   11 2
    12    7   15 1
    13    8    9 2
    14    8   10 1
    15    9   13 1
    16   10   11 1
    17   10   12 2
    18   12   18 1
    19   12   24 1
    20   13   21 1
    21   13   23 1
    22   14   17 2
    23   14   25 1
    24   14   30 1
    25   15   18 2
    26   20   21 1
    27   20   22 1
    28   20   31 2
    29   22   28 2
    30   23   27 1
    31   25   27 1
    32   26   34 1
    33   28   32 1
    34   28   33 1
    35   29   31 1
    36   29   32 2
    37   11   35 1
    38   15   36 1
    39   16   37 1
    40   16   38 1
    41   18   39 1
    42   19   40 1
    43   19   41 1
    44   21   42 1
    45   21   43 1
    46   22   44 1
    47   23   45 1
    48   23   46 1
    49   26   47 1
    50   26   48 1
    51   27   49 1
    52   27   50 1
    53   29   51 1
    54   30   52 1
    55   30   53 1
    56   30   54 1
    57   31   55 1
    58   32   56 1
    59   33   57 1
    60   33   58 1
    61   33   59 1
    62   34   60 1
    63   34   61 1
    64   34   62 1
@<TRIPOS>PROPERTY_DATA
  Total_Score	| 8.5597
  Crash		| -2.3560
  Polar		| 2.4719
  FragIndex	| 1
  FragRMSD	| 0.849

