@<TRIPOS>MOLECULE
BindingDB_50102511
 62 64 0 0 0
SMALL
NO_CHARGES


@<TRIPOS>ATOM
1    N        10.0895    2.9993   13.9796  N     
2    C        11.0325    3.9755   14.0224  C     
3    C        12.1183    3.9633   13.1074  C     
4    C        10.1520    1.9903   13.0830  C     
5    C        12.1825    2.8752   12.1892  C     
6    N        11.1917    1.9429   12.2223  N     
7    C        13.0985    4.9872   13.1263  C     
8    C        19.8456    7.0234    6.7251  C     
9    N        14.4093    7.7232   10.9557  N     
10   N        13.7521    7.7153    9.8782  N     
11   C        14.2088    6.8990   12.0237  C     
12   C        13.2057    5.8958   12.0476  C     
13   C        18.6059    7.6348    7.2715  C     
14   C        15.0846    7.0099   13.1307  C     
15   N        13.9089    8.4617    8.8834  N     
16   C        12.4519   10.9171    6.2974  C     
17   C        13.9902    5.1181   14.2111  C     
18   N        10.8586    4.9194   14.9660  N     
19   O        11.2731   10.5258    6.8260  O     
20   C        14.9717    6.1181   14.2162  C     
21   F        20.4957    6.1873    7.6052  F     
22   F        19.5573    6.2761    5.6079  F     
23   F        20.7300    8.0153    6.3722  F     
24   N         9.1970    1.0525   13.0253  N     
25   C        17.7768    8.4348    6.4407  C     
26   C        18.2268    7.4954    8.6334  C     
27   C        14.9418    9.4432    8.8130  C     
28   C        16.2175    8.8799    8.2882  C     
29   C        12.9068    8.3522    7.8830  C     
30   Cl       16.2955    8.1954   13.1902  Cl    
31   O        13.4410    9.9983    6.1116  O     
32   C        16.6003    9.0337    6.9324  C     
33   C        17.0701    8.1181    9.1341  C     
34   C        13.2605    2.6408   11.1868  C     
35   C        13.3769    8.5959    6.4161  C     
36   C        12.6686   12.3380    5.9783  C     
37   C        14.1334    1.4082   11.5202  C     
38   H        12.5494    5.8219   11.2645  H     
39   H        13.9407    4.4699   14.9984  H     
40   H        11.4860    5.6547   15.0602  H     
41   H        10.1151    4.8482   15.5854  H     
42   H        15.6004    6.2060   15.0185  H     
43   H         9.2572    0.3426   12.3659  H     
44   H         8.4408    1.0938   13.6315  H     
45   H        18.0187    8.5610    5.4512  H     
46   H        18.8035    6.9484    9.2844  H     
47   H        14.6412   10.2977    8.1832  H     
48   H        15.1248    9.8927    9.7940  H     
49   H        12.4726    7.3445    7.8839  H     
50   H        12.0964    9.0532    8.1352  H     
51   H        16.0327    9.5970    6.2996  H     
52   H        16.8373    8.0091   10.1322  H     
53   H        12.7981    2.5025   10.2021  H     
54   H        13.9389    3.4897   11.0977  H     
55   H        14.3837    8.1604    6.2811  H     
56   H        12.6888    8.1180    5.6962  H     
57   H        11.9563   12.6416    5.2061  H     
58   H        13.6875   12.4977    5.6165  H     
59   H        12.5120   12.9400    6.8797  H     
60   H        14.6696    1.5740   12.4585  H     
61   H        14.8639    1.2500   10.7232  H     
62   H        13.5238    0.5098   11.6137  H     
@<TRIPOS>BOND
     1    1    2 1
     2    1    4 2
     3    2    3 2
     4    2   18 1
     5    3    5 1
     6    3    7 1
     7    4    6 1
     8    4   24 1
     9    5    6 2
    10    5   34 1
    11    7   12 2
    12    7   17 1
    13    8   13 1
    14    8   21 1
    15    8   22 1
    16    8   23 1
    17    9   10 2
    18    9   11 1
    19   10   15 1
    20   11   12 1
    21   11   14 2
    22   13   25 1
    23   13   26 2
    24   14   20 1
    25   14   30 1
    26   15   27 1
    27   15   29 1
    28   16   19 2
    29   16   31 1
    30   16   36 1
    31   17   20 2
    32   25   32 2
    33   26   33 1
    34   27   28 1
    35   28   32 1
    36   28   33 2
    37   29   35 1
    38   31   35 1
    39   34   37 1
    40   12   38 1
    41   17   39 1
    42   18   40 1
    43   18   41 1
    44   20   42 1
    45   24   43 1
    46   24   44 1
    47   25   45 1
    48   26   46 1
    49   27   47 1
    50   27   48 1
    51   29   49 1
    52   29   50 1
    53   32   51 1
    54   33   52 1
    55   34   53 1
    56   34   54 1
    57   35   55 1
    58   35   56 1
    59   36   57 1
    60   36   58 1
    61   36   59 1
    62   37   60 1
    63   37   61 1
    64   37   62 1
@<TRIPOS>PROPERTY_DATA
  Total_Score	| 10.7166
  Crash		| -1.5798
  Polar		| 2.6322
  FragIndex	| 1
  FragRMSD	| 0.610

