@<TRIPOS>MOLECULE
BindingDB_50102519
 62 64 0 0 0
SMALL
NO_CHARGES


@<TRIPOS>ATOM
1    N         9.9832    2.8601   14.1134  N     
2    C        10.9425    3.8008   14.3062  C     
3    C        12.0527    3.8687   13.4222  C     
4    C        10.0608    1.9537   13.1117  C     
5    C        12.1359    2.8821   12.3957  C     
6    N        11.1283    1.9793   12.2865  N     
7    C        13.0079    4.9085   13.5355  C     
8    N        14.3613    7.4304   11.2979  N     
9    N        15.2536    8.2550   10.9746  N     
10   C        14.2330    6.7483   12.4594  C     
11   C        13.1695    5.8239   12.4716  C     
12   C        15.0999    6.8117   13.5829  C     
13   N        15.4013    8.7988    9.8640  N     
14   C        12.6287   10.3572    6.5099  C     
15   C        13.8769    4.9803   14.6441  C     
16   N        10.7573    4.6414   15.3428  N     
17   O        11.4778   10.3227    7.2241  O     
18   C        14.9042    5.9380   14.6746  C     
19   N         9.0863    1.0537   12.9140  N     
20   C        16.7428    8.9311    9.4169  C     
21   C        14.3228    9.4274    9.1905  C     
22   C        17.2801    7.6855    8.7970  C     
23   Cl       16.4163    7.8747   13.6868  Cl    
24   O        13.6878    9.5617    6.8115  O     
25   C        18.3223    5.3033    7.6241  C     
26   C        13.2373    2.7456   11.4019  C     
27   C        13.8406    8.6668    7.9195  C     
28   C        17.7408    7.6773    7.4586  C     
29   C        17.3695    6.4858    9.5444  C     
30   C        17.8704    5.3092    8.9613  C     
31   C        18.2489    6.5019    6.8768  C     
32   C        12.7402   11.2845    5.3773  C     
33   C        18.8327    4.0448    7.0362  C     
34   C        14.1752    1.5435   11.6815  C     
35   H        12.5490    5.7580   11.6572  H     
36   H        13.7815    4.3237   15.4260  H     
37   H        11.3923    5.3523   15.5328  H     
38   H         9.9884    4.5237   15.9287  H     
39   H        15.5332    5.9580   15.4806  H     
40   H         9.1514    0.4185   12.1812  H     
41   H         8.3054    1.0451   13.5011  H     
42   H        16.8321    9.7605    8.7063  H     
43   H        17.3952    9.2000   10.2517  H     
44   H        13.4547    9.5598    9.8484  H     
45   H        14.6359   10.4349    8.9120  H     
46   H        12.7951    2.6324   10.4057  H     
47   H        13.8706    3.6351   11.3713  H     
48   H        14.5753    7.9216    7.6140  H     
49   H        12.9049    8.1381    8.1099  H     
50   H        17.7010    8.5272    6.8904  H     
51   H        17.0680    6.4606   10.5219  H     
52   H        17.9036    4.4561    9.5265  H     
53   H        18.5658    6.5221    5.9051  H     
54   H        11.9918   11.0323    4.6302  H     
55   H        13.7269   11.2215    4.9179  H     
56   H        12.5774   12.3077    5.7186  H     
57   H        19.6836    3.6849    7.6196  H     
58   H        19.1565    4.1700    6.0019  H     
59   H        18.0425    3.2879    7.0588  H     
60   H        14.6551    1.6443   12.6579  H     
61   H        14.9487    1.4987   10.9183  H     
62   H        13.6189    0.6002   11.6572  H     
@<TRIPOS>BOND
     1    1    2 1
     2    1    4 2
     3    2    3 2
     4    2   16 1
     5    3    5 1
     6    3    7 1
     7    4    6 1
     8    4   19 1
     9    5    6 2
    10    5   26 1
    11    7   11 2
    12    7   15 1
    13    8    9 2
    14    8   10 1
    15    9   13 1
    16   10   11 1
    17   10   12 2
    18   12   18 1
    19   12   23 1
    20   13   20 1
    21   13   21 1
    22   14   17 2
    23   14   24 1
    24   14   32 1
    25   15   18 2
    26   20   22 1
    27   21   27 1
    28   22   28 1
    29   22   29 2
    30   24   27 1
    31   25   30 2
    32   25   31 1
    33   25   33 1
    34   26   34 1
    35   28   31 2
    36   29   30 1
    37   11   35 1
    38   15   36 1
    39   16   37 1
    40   16   38 1
    41   18   39 1
    42   19   40 1
    43   19   41 1
    44   20   42 1
    45   20   43 1
    46   21   44 1
    47   21   45 1
    48   26   46 1
    49   26   47 1
    50   27   48 1
    51   27   49 1
    52   28   50 1
    53   29   51 1
    54   30   52 1
    55   31   53 1
    56   32   54 1
    57   32   55 1
    58   32   56 1
    59   33   57 1
    60   33   58 1
    61   33   59 1
    62   34   60 1
    63   34   61 1
    64   34   62 1
@<TRIPOS>PROPERTY_DATA
  Total_Score	| 9.0726
  Crash		| -1.3882
  Polar		| 2.9242
  FragIndex	| 1
  FragRMSD	| 0.767

