@<TRIPOS>MOLECULE
BindingDB_50102504
 59 61 0 0 0
SMALL
NO_CHARGES


@<TRIPOS>ATOM
1    N         9.8984    2.6495   14.0945  N     
2    C        10.8787    3.5789   14.2108  C     
3    C        11.7894    3.7990   13.1424  C     
4    C         9.7388    1.9175   12.9691  C     
5    C        11.5849    3.0337   11.9512  C     
6    N        10.5662    2.1350   11.9258  N     
7    C        12.8503    4.7414   13.2813  C     
8    N        14.3903    7.2825   11.2192  N     
9    N        15.3449    8.0406   10.8909  N     
10   C        14.1990    6.5696   12.3414  C     
11   C        13.0580    5.7441   12.3129  C     
12   C        15.0669    6.5132   13.4620  C     
13   N        15.4785    8.6167    9.7977  N     
14   C        12.5447   10.5307    6.5640  C     
15   C        13.7462    4.6734   14.3799  C     
16   N        10.9069    4.2818   15.3604  N     
17   O        11.3303   10.3621    7.1443  O     
18   C        14.8186    5.5779   14.4839  C     
19   N         8.7730    0.9942   12.8723  N     
20   C        16.8171    8.7547    9.3485  C     
21   C        14.4126    9.4033    9.2811  C     
22   C        17.3722    7.5238    8.7106  C     
23   C        18.5597    5.2122    7.5595  C     
24   Cl       16.4296    7.5111   13.6300  Cl    
25   O        13.6382    9.8253    6.9629  O     
26   Cl       19.2853    3.8381    6.8832  Cl    
27   C        12.3807    3.1200   10.6933  C     
28   C        13.7067    8.8522    8.0134  C     
29   C        18.0068    5.1525    8.8483  C     
30   C        18.4991    6.4131    6.8318  C     
31   C        17.4355    6.3052    9.4245  C     
32   C        17.9070    7.5590    7.4008  C     
33   C        12.6546   11.4101    5.3972  C     
34   C        13.8284    2.5926   10.8197  C     
35   H        12.3943    5.8335   11.5355  H     
36   H        13.6299    3.9593   15.1019  H     
37   H        11.5619    4.9862   15.4895  H     
38   H        10.2595    4.0971   16.0582  H     
39   H        15.4521    5.5117   15.2883  H     
40   H         8.6742    0.4771   12.0572  H     
41   H         8.1788    0.8303   13.6200  H     
42   H        16.9233    9.5959    8.6585  H     
43   H        17.4589    9.0091   10.1972  H     
44   H        13.6577    9.4918   10.0708  H     
45   H        14.7304   10.4250    9.0445  H     
46   H        11.8895    2.5494    9.8972  H     
47   H        12.3945    4.1491   10.3438  H     
48   H        14.2286    7.9843    7.6136  H     
49   H        12.7057    8.5139    8.3011  H     
50   H        18.0327    4.2829    9.3857  H     
51   H        18.8930    6.4656    5.8902  H     
52   H        17.0871    6.2400   10.3810  H     
53   H        17.8901    8.4230    6.8555  H     
54   H        12.0728   10.9867    4.5787  H     
55   H        13.6953   11.4996    5.0781  H     
56   H        12.2682   12.4007    5.6362  H     
57   H        14.4209    3.2270   11.4818  H     
58   H        14.3020    2.5928    9.8337  H     
59   H        13.8251    1.5707   11.2092  H     
@<TRIPOS>BOND
     1    1    2 1
     2    1    4 2
     3    2    3 2
     4    2   16 1
     5    3    5 1
     6    3    7 1
     7    4    6 1
     8    4   19 1
     9    5    6 2
    10    5   27 1
    11    7   11 2
    12    7   15 1
    13    8    9 2
    14    8   10 1
    15    9   13 1
    16   10   11 1
    17   10   12 2
    18   12   18 1
    19   12   24 1
    20   13   20 1
    21   13   21 1
    22   14   17 2
    23   14   25 1
    24   14   33 1
    25   15   18 2
    26   20   22 1
    27   21   28 1
    28   22   31 2
    29   22   32 1
    30   23   26 1
    31   23   29 2
    32   23   30 1
    33   25   28 1
    34   27   34 1
    35   29   31 1
    36   30   32 2
    37   11   35 1
    38   15   36 1
    39   16   37 1
    40   16   38 1
    41   18   39 1
    42   19   40 1
    43   19   41 1
    44   20   42 1
    45   20   43 1
    46   21   44 1
    47   21   45 1
    48   27   46 1
    49   27   47 1
    50   28   48 1
    51   28   49 1
    52   29   50 1
    53   30   51 1
    54   31   52 1
    55   32   53 1
    56   33   54 1
    57   33   55 1
    58   33   56 1
    59   34   57 1
    60   34   58 1
    61   34   59 1
@<TRIPOS>PROPERTY_DATA
  Total_Score	| 8.6862
  Crash		| -1.9258
  Polar		| 3.2642
  FragIndex	| 1
  FragRMSD	| 0.776

