@<TRIPOS>MOLECULE
BindingDB_50102503
 66 69 0 0 0
SMALL
NO_CHARGES


@<TRIPOS>ATOM
1    N        10.1284    2.8883   14.0450  N     
2    C        11.1148    3.7941   14.2521  C     
3    C        12.2411    3.8292   13.3877  C     
4    C        10.1726    1.9986   13.0310  C     
5    C        12.2689    2.8847   12.3221  C     
6    N        11.2369    2.0083   12.2031  N     
7    C        13.3069    4.7408   13.6132  C     
8    N        15.1333    7.4852   11.9214  N     
9    N        14.6454    7.6966   10.7762  N     
10   C        14.7483    6.5809   12.8523  C     
11   C        13.6366    5.7264   12.6569  C     
12   C        12.7791   10.1549    6.1537  C     
13   C        15.5073    6.4781   14.0470  C     
14   N        15.0478    8.5507    9.9593  N     
15   C        14.0786    4.6451   14.7942  C     
16   N        10.9431    4.6302   15.2936  N     
17   O        11.5826   10.5431    6.6423  O     
18   C        13.2125   10.6322    4.9019  C     
19   C        15.1662    5.5108   15.0073  C     
20   N         9.1753    1.1217   12.8335  N     
21   C        16.4386    8.7842    9.7203  C     
22   O        13.5906    9.3184    6.8715  O     
23   C        14.0313    9.3379    9.3571  C     
24   Cl       16.8555    7.4668   14.3453  Cl    
25   C        13.3280    8.6830    8.1361  C     
26   C        13.3529    2.7413   11.3074  C     
27   C        17.1070    7.6674    8.9917  C     
28   C        14.0554    9.8413    4.0911  C     
29   C        12.8401   11.9138    4.4386  C     
30   C        17.6226    7.8489    7.6874  C     
31   C        17.2838    6.4064    9.6102  C     
32   C        14.2785    1.5350   11.5734  C     
33   C        14.5726   10.3480    2.8786  C     
34   C        13.3565   12.4207    3.2266  C     
35   C        18.2879    6.8039    7.0249  C     
36   C        17.9328    5.3533    8.9451  C     
37   C        14.2238   11.6355    2.4508  C     
38   C        18.4330    5.5523    7.6477  C     
39   H        13.0867    5.8029   11.7949  H     
40   H        13.8696    3.9256   15.4959  H     
41   H        11.5978    5.3168   15.5002  H     
42   H        10.1530    4.5465   15.8546  H     
43   H        15.7196    5.4125   15.8630  H     
44   H         9.2192    0.4903   12.0955  H     
45   H         8.4055    1.1211   13.4265  H     
46   H        16.6040    9.7166    9.1738  H     
47   H        16.9563    8.9360   10.6727  H     
48   H        13.2752    9.5364   10.1229  H     
49   H        14.4000   10.3167    9.0459  H     
50   H        12.2512    8.6868    8.3069  H     
51   H        13.6437    7.6436    8.0476  H     
52   H        12.8997    2.6350   10.3205  H     
53   H        13.9957    3.6224   11.2611  H     
54   H        14.3005    8.8932    4.3731  H     
55   H        12.2273   12.5124    4.9936  H     
56   H        17.5387    8.7526    7.2179  H     
57   H        16.9587    6.2479   10.5612  H     
58   H        14.7729    1.6292   12.5488  H     
59   H        15.0534    1.4882   10.8039  H     
60   H        13.7172    0.6004   11.5559  H     
61   H        15.2018    9.7680    2.3095  H     
62   H        13.0934   13.3600    2.9123  H     
63   H        18.6605    6.9493    6.0829  H     
64   H        18.0457    4.4475    9.4061  H     
65   H        14.6060   12.0111    1.5747  H     
66   H        18.9044    4.7887    7.1596  H     
@<TRIPOS>BOND
     1    1    2 1
     2    1    4 2
     3    2    3 2
     4    2   16 1
     5    3    5 1
     6    3    7 1
     7    4    6 1
     8    4   20 1
     9    5    6 2
    10    5   26 1
    11    7   11 2
    12    7   15 1
    13    8    9 2
    14    8   10 1
    15    9   14 1
    16   10   11 1
    17   10   13 2
    18   12   17 2
    19   12   18 1
    20   12   22 1
    21   13   19 1
    22   13   24 1
    23   14   21 1
    24   14   23 1
    25   15   19 2
    26   18   28 2
    27   18   29 1
    28   21   27 1
    29   22   25 1
    30   23   25 1
    31   26   32 1
    32   27   30 1
    33   27   31 2
    34   28   33 1
    35   29   34 2
    36   30   35 2
    37   31   36 1
    38   33   37 2
    39   34   37 1
    40   35   38 1
    41   36   38 2
    42   11   39 1
    43   15   40 1
    44   16   41 1
    45   16   42 1
    46   19   43 1
    47   20   44 1
    48   20   45 1
    49   21   46 1
    50   21   47 1
    51   23   48 1
    52   23   49 1
    53   25   50 1
    54   25   51 1
    55   26   52 1
    56   26   53 1
    57   28   54 1
    58   29   55 1
    59   30   56 1
    60   31   57 1
    61   32   58 1
    62   32   59 1
    63   32   60 1
    64   33   61 1
    65   34   62 1
    66   35   63 1
    67   36   64 1
    68   37   65 1
    69   38   66 1
@<TRIPOS>PROPERTY_DATA
  Total_Score	| 8.9839
  Crash		| -1.0854
  Polar		| 2.3658
  FragIndex	| 1
  FragRMSD	| 0.365

