@<TRIPOS>MOLECULE
BindingDB_50102510
 58 60 0 0 0
SMALL
NO_CHARGES


@<TRIPOS>ATOM
1    N        10.0787    2.9137   14.0742  N     
2    C        11.0618    3.8262   14.2844  C     
3    C        12.1650    3.9068   13.3858  C     
4    C        10.1160    2.0524   13.0321  C     
5    C        12.1938    2.9746   12.3083  C     
6    N        11.1692    2.0908   12.1888  N     
7    C        13.2305    4.8189   13.6071  C     
8    N        15.1051    7.5212   11.8817  N     
9    N        14.6493    7.7450   10.7429  N     
10   C        14.6903    6.6323   12.8323  C     
11   C        13.5686    5.7975   12.6428  C     
12   C        15.4287    6.5486   14.0215  C     
13   N        15.0935    8.5905    9.9231  N     
14   C        12.5417   10.3996    6.5146  C     
15   C        13.9998    4.7278   14.7838  C     
16   N        10.9184    4.6119   15.3712  N     
17   N        18.3741    5.4808    7.6728  N     
18   O        11.3782   10.3564    7.2054  O     
19   C        15.0868    5.5914   14.9992  C     
20   N         9.1325    1.1664   12.8137  N     
21   C        16.4872    8.7554    9.6698  C     
22   C        14.1197    9.3134    9.1958  C     
23   Cl       16.7407    7.5797   14.3479  Cl    
24   O        13.5996    9.6047    6.8328  O     
25   C        13.2836    2.8204   11.3006  C     
26   C        13.7004    8.6210    7.8698  C     
27   C        17.0969    7.6030    8.9488  C     
28   C        18.2776    6.6693    7.0257  C     
29   C        17.8656    5.2885    8.9157  C     
30   C        12.6947   11.4012    5.4552  C     
31   C        17.2145    6.3434    9.5818  C     
32   C        17.6416    7.7586    7.6525  C     
33   C        14.1912    1.6081   11.5984  C     
34   H        13.0300    5.8619   11.7816  H     
35   H        13.7829    4.0164   15.4916  H     
36   H        11.5810    5.2870   15.5871  H     
37   H        10.1612    4.4794   15.9656  H     
38   H        15.6237    5.5064   15.8670  H     
39   H         9.1868    0.5661   12.0516  H     
40   H         8.3618    1.1310   13.4011  H     
41   H        16.6788    9.6645    9.0916  H     
42   H        17.0312    8.9250   10.6032  H     
43   H        13.2185    9.4685    9.8034  H     
44   H        14.4864   10.3218    8.9845  H     
45   H        12.8427    2.7142   10.3054  H     
46   H        13.9302    3.6904   11.2505  H     
47   H        14.4420    7.8893    7.5487  H     
48   H        12.7576    8.0841    8.0095  H     
49   H        18.6865    6.7722    6.0945  H     
50   H        17.9749    4.3802    9.3703  H     
51   H        11.9436   11.2291    4.6823  H     
52   H        13.6896   11.3369    5.0102  H     
53   H        12.5592   12.4017    5.8733  H     
54   H        16.8605    6.1995   10.5280  H     
55   H        17.5984    8.6587    7.1654  H     
56   H        14.6800    1.7311   12.5697  H     
57   H        14.9634    1.5314   10.8294  H     
58   H        13.6076    0.6864   11.6022  H     
@<TRIPOS>BOND
     1    1    2 1
     2    1    4 2
     3    2    3 2
     4    2   16 1
     5    3    5 1
     6    3    7 1
     7    4    6 1
     8    4   20 1
     9    5    6 2
    10    5   25 1
    11    7   11 2
    12    7   15 1
    13    8    9 2
    14    8   10 1
    15    9   13 1
    16   10   11 1
    17   10   12 2
    18   12   19 1
    19   12   23 1
    20   13   21 1
    21   13   22 1
    22   14   18 2
    23   14   24 1
    24   14   30 1
    25   15   19 2
    26   17   28 1
    27   17   29 2
    28   21   27 1
    29   22   26 1
    30   24   26 1
    31   25   33 1
    32   27   31 2
    33   27   32 1
    34   28   32 2
    35   29   31 1
    36   11   34 1
    37   15   35 1
    38   16   36 1
    39   16   37 1
    40   19   38 1
    41   20   39 1
    42   20   40 1
    43   21   41 1
    44   21   42 1
    45   22   43 1
    46   22   44 1
    47   25   45 1
    48   25   46 1
    49   26   47 1
    50   26   48 1
    51   28   49 1
    52   29   50 1
    53   30   51 1
    54   30   52 1
    55   30   53 1
    56   31   54 1
    57   32   55 1
    58   33   56 1
    59   33   57 1
    60   33   58 1
@<TRIPOS>PROPERTY_DATA
  Total_Score	| 9.1043
  Crash		| -0.7904
  Polar		| 3.2047
  FragIndex	| 1
  FragRMSD	| 0.489

