@<TRIPOS>MOLECULE
BindingDB_50102501
 59 61 0 0 0
SMALL
NO_CHARGES


@<TRIPOS>ATOM
1    N        10.1341    2.9500   14.0331  N     
2    C        11.1224    3.8475   14.2653  C     
3    C        12.2321    3.9350   13.3809  C     
4    C        10.1678    2.1077   12.9761  C     
5    C        12.2584    3.0204   12.2831  C     
6    N        11.2189    2.1599   12.1334  N     
7    C        13.2940    4.8485   13.6293  C     
8    N        15.1206    7.6211   11.9650  N     
9    N        14.6073    7.8551   10.8330  N     
10   C        14.7250    6.7213   12.8975  C     
11   C        13.6217    5.8600   12.6943  C     
12   C        15.4841    6.5956   14.0877  C     
13   N        15.0191    8.6683    9.9756  N     
14   C        12.5814   10.3552    6.4723  C     
15   C        14.0652    4.7446   14.8075  C     
16   N        10.9720    4.6216   15.3588  N     
17   O        11.4258   10.3725    7.1792  O     
18   C        15.1408    5.6178   15.0414  C     
19   N         9.1806    1.2274   12.7480  N     
20   C        17.0427    7.8524    8.8727  C     
21   C        16.4116    8.8828    9.7466  C     
22   C        17.1757    6.5135    9.3130  C     
23   C        14.0396    9.3050    9.1712  C     
24   Cl       16.8352    7.5761   14.3925  Cl    
25   O        13.5855    9.4935    6.7617  O     
26   C        17.7874    5.5406    8.4958  C     
27   Cl       17.8991    3.9357    9.0157  Cl    
28   C        13.3540    2.8541   11.2869  C     
29   C        13.7209    8.5660    7.8443  C     
30   C        18.1592    7.2303    6.7761  C     
31   C        12.7815   11.3058    5.3781  C     
32   C        17.5413    8.1940    7.5919  C     
33   C        18.2847    5.9053    7.2284  C     
34   C        14.2199    1.6108   11.5941  C     
35   H        13.0676    5.9499   11.8389  H     
36   H        13.8571    4.0260   15.5055  H     
37   H        11.6288    5.2960   15.5786  H     
38   H        10.2169    4.4794   15.9471  H     
39   H        15.6869    5.5264   15.9026  H     
40   H         9.2243    0.6373   11.9725  H     
41   H         8.4179    1.1844   13.3448  H     
42   H        16.5723    9.8737    9.3143  H     
43   H        16.9613    8.9096   10.6920  H     
44   H        16.8288    6.2398   10.2323  H     
45   H        13.1022    9.4391    9.7265  H     
46   H        14.3840   10.3135    8.9358  H     
47   H        12.9153    2.7471   10.2877  H     
48   H        14.0192    3.7161   11.2467  H     
49   H        14.5419    7.9037    7.5705  H     
50   H        12.8218    7.9542    7.9450  H     
51   H        18.5109    7.4905    5.8533  H     
52   H        12.0486   11.1277    4.5910  H     
53   H        13.7836   11.1996    4.9533  H     
54   H        12.6694   12.3214    5.7617  H     
55   H        17.4550    9.1524    7.2394  H     
56   H        18.7362    5.2081    6.6293  H     
57   H        14.7154    1.7269   12.5624  H     
58   H        14.9821    1.4945   10.8207  H     
59   H        13.6105    0.7045   11.6133  H     
@<TRIPOS>BOND
     1    1    2 1
     2    1    4 2
     3    2    3 2
     4    2   16 1
     5    3    5 1
     6    3    7 1
     7    4    6 1
     8    4   19 1
     9    5    6 2
    10    5   28 1
    11    7   11 2
    12    7   15 1
    13    8    9 2
    14    8   10 1
    15    9   13 1
    16   10   11 1
    17   10   12 2
    18   12   18 1
    19   12   24 1
    20   13   21 1
    21   13   23 1
    22   14   17 2
    23   14   25 1
    24   14   31 1
    25   15   18 2
    26   20   21 1
    27   20   22 1
    28   20   32 2
    29   22   26 2
    30   23   29 1
    31   25   29 1
    32   26   27 1
    33   26   33 1
    34   28   34 1
    35   30   32 1
    36   30   33 2
    37   11   35 1
    38   15   36 1
    39   16   37 1
    40   16   38 1
    41   18   39 1
    42   19   40 1
    43   19   41 1
    44   21   42 1
    45   21   43 1
    46   22   44 1
    47   23   45 1
    48   23   46 1
    49   28   47 1
    50   28   48 1
    51   29   49 1
    52   29   50 1
    53   30   51 1
    54   31   52 1
    55   31   53 1
    56   31   54 1
    57   32   55 1
    58   33   56 1
    59   34   57 1
    60   34   58 1
    61   34   59 1
@<TRIPOS>PROPERTY_DATA
  Total_Score	| 9.0247
  Crash		| -1.1871
  Polar		| 3.2356
  FragIndex	| 1
  FragRMSD	| 0.690

