@<TRIPOS>MOLECULE
BindingDB_50102509
 62 64 0 0 0
SMALL
NO_CHARGES


@<TRIPOS>ATOM
1    N        10.0016    2.7543   14.1606  N     
2    C        10.9803    3.6883   14.2567  C     
3    C        11.8483    3.9292   13.1560  C     
4    C         9.8098    2.0371   13.0293  C     
5    C        11.6357    3.1471   11.9804  C     
6    N        10.6208    2.2451   11.9726  N     
7    C        12.9154    4.8704   13.2527  C     
8    N        14.4231    7.3631   11.1040  N     
9    N        15.3727    8.0666   10.6783  N     
10   C        14.2700    6.6525   12.2388  C     
11   C        13.0986    5.8713   12.2722  C     
12   N        15.3867    8.6282    9.5597  N     
13   C        17.4566    7.5069    8.7643  C     
14   C        15.2026    6.5497   13.2986  C     
15   C        12.4884   10.5779    6.4348  C     
16   C        13.8650    4.7611   14.2908  C     
17   C        16.6228    8.7529    8.8702  C     
18   N        11.0761    4.3540   15.4235  N     
19   O        11.2781   10.4546    7.0258  O     
20   C        14.9805    5.6150   14.3285  C     
21   C        17.5739    6.6917    7.5927  C     
22   N         8.8355    1.1226   12.9322  N     
23   C        14.2753    9.4011    9.1375  C     
24   Cl       16.5949    7.5091   13.4078  Cl    
25   O        13.5496    9.8313    6.8364  O     
26   C        12.4636    3.1763   10.7425  C     
27   C        13.5812    8.8320    7.8660  C     
28   C        18.1988    7.1342    9.9172  C     
29   C        12.6725   11.5698    5.3670  C     
30   C        16.8770    7.0254    6.3244  C     
31   C        18.3864    5.5276    7.6309  C     
32   C        13.8769    2.5787   10.9292  C     
33   C        19.0013    5.9837    9.9385  C     
34   C        19.0956    5.1745    8.7929  C     
35   H        12.4060    5.9771   11.5220  H     
36   H        13.7674    4.0398   15.0127  H     
37   H        16.4483    9.1502    7.8661  H     
38   H        17.2102    9.5326    9.3783  H     
39   H        11.7336    5.0590   15.5323  H     
40   H        10.5103    4.1135   16.1729  H     
41   H        15.6523    5.5153   15.0893  H     
42   H         8.7304    0.6179   12.1118  H     
43   H         8.2329    0.9629   13.6718  H     
44   H        13.5173    9.4845    9.9229  H     
45   H        14.6156   10.4264    8.9657  H     
46   H        11.9735    2.6177    9.9439  H     
47   H        12.5355    4.1950   10.3739  H     
48   H        14.1164    7.9677    7.4671  H     
49   H        12.5723    8.4899    8.1175  H     
50   H        18.1541    7.7020   10.7658  H     
51   H        12.0628   11.2976    4.5071  H     
52   H        13.7176   11.6146    5.0543  H     
53   H        12.3668   12.5537    5.7244  H     
54   H        15.8019    7.0497    6.4850  H     
55   H        17.0798    6.3050    5.5272  H     
56   H        17.2122    7.9971    5.9659  H     
57   H        18.4779    4.9194    6.8095  H     
58   H        14.4424    3.1413   11.6716  H     
59   H        14.4230    2.6116    9.9825  H     
60   H        13.8089    1.5372   11.2543  H     
61   H        19.5098    5.7253   10.7896  H     
62   H        19.6729    4.3317    8.8115  H     
@<TRIPOS>BOND
     1    1    2 1
     2    1    4 2
     3    2    3 2
     4    2   18 1
     5    3    5 1
     6    3    7 1
     7    4    6 1
     8    4   22 1
     9    5    6 2
    10    5   26 1
    11    7   11 2
    12    7   16 1
    13    8    9 2
    14    8   10 1
    15    9   12 1
    16   10   11 1
    17   10   14 2
    18   12   17 1
    19   12   23 1
    20   13   17 1
    21   13   21 1
    22   13   28 2
    23   14   20 1
    24   14   24 1
    25   15   19 2
    26   15   25 1
    27   15   29 1
    28   16   20 2
    29   21   30 1
    30   21   31 2
    31   23   27 1
    32   25   27 1
    33   26   32 1
    34   28   33 1
    35   31   34 1
    36   33   34 2
    37   11   35 1
    38   16   36 1
    39   17   37 1
    40   17   38 1
    41   18   39 1
    42   18   40 1
    43   20   41 1
    44   22   42 1
    45   22   43 1
    46   23   44 1
    47   23   45 1
    48   26   46 1
    49   26   47 1
    50   27   48 1
    51   27   49 1
    52   28   50 1
    53   29   51 1
    54   29   52 1
    55   29   53 1
    56   30   54 1
    57   30   55 1
    58   30   56 1
    59   31   57 1
    60   32   58 1
    61   32   59 1
    62   32   60 1
    63   33   61 1
    64   34   62 1
@<TRIPOS>PROPERTY_DATA
  Total_Score	| 9.5996
  Crash		| -2.1448
  Polar		| 3.5330
  FragIndex	| 1
  FragRMSD	| 1.031

