@<TRIPOS>MOLECULE
BindingDB_50058401
 59 61 0 0 0
SMALL
NO_CHARGES


@<TRIPOS>ATOM
1    N        10.0797    2.9365   14.0701  N     
2    C        11.0581    3.8539   14.2780  C     
3    C        12.1764    3.9159   13.3995  C     
4    C        10.1294    2.0580   13.0451  C     
5    C        12.2174    2.9687   12.3358  C     
6    N        11.1905    2.0893   12.2100  N     
7    C        13.2322    4.8393   13.6342  C     
8    N        15.0129    7.6472   11.9940  N     
9    N        14.5186    7.8820   10.8559  N     
10   C        14.6257    6.7399   12.9225  C     
11   C        13.5208    5.8791   12.7230  C     
12   C        15.4029    6.6049   14.0933  C     
13   N        14.9680    8.6900   10.0101  N     
14   C        12.5689   10.2587    6.4539  C     
15   C        14.0394    4.7052   14.7906  C     
16   N        10.8957    4.6655   15.3410  N     
17   O        11.4453   10.3203    7.2070  O     
18   C        15.1068    5.5878   15.0227  C     
19   N         9.1571    1.1576   12.8421  N     
20   C        16.3664    8.8670    9.8062  C     
21   C        14.0231    9.3100    9.1614  C     
22   Cl       16.7366    7.6056   14.4078  Cl    
23   O        13.5755    9.3892    6.7401  O     
24   C        13.3157    2.8030   11.3427  C     
25   C        13.7032    8.5081    7.8646  C     
26   C        17.0233    7.7358    9.0841  C     
27   C        12.7405   11.1612    5.3123  C     
28   C        17.5163    7.9094    7.7622  C     
29   C        17.2064    6.4816    9.7050  C     
30   C        14.1740    1.5529   11.6395  C     
31   C        17.8600    5.4282    9.0365  C     
32   C        18.1661    6.8582    7.0916  C     
33   C        18.3382    5.6165    7.7296  C     
34   H        12.9435    5.9828   11.8802  H     
35   H        13.8615    3.9552   15.4659  H     
36   H        11.5514    5.3492   15.5521  H     
37   H        10.1289    4.5500   15.9238  H     
38   H        15.6738    5.4749   15.8666  H     
39   H         9.2163    0.5330   12.0979  H     
40   H         8.3881    1.1305   13.4348  H     
41   H        16.5604    9.7985    9.2613  H     
42   H        16.8783    9.0042   10.7654  H     
43   H        13.0778    9.4933    9.6896  H     
44   H        14.3874   10.3000    8.8796  H     
45   H        12.8765    2.7063   10.3463  H     
46   H        13.9893    3.6584   11.3115  H     
47   H        14.5309    7.8361    7.6158  H     
48   H        12.8025    7.9027    7.9859  H     
49   H        12.0260   10.9017    4.5345  H     
50   H        13.7515   11.0770    4.9032  H     
51   H        12.5775   12.1901    5.6385  H     
52   H        17.3996    8.8062    7.2787  H     
53   H        16.8767    6.3227   10.6575  H     
54   H        14.6827    1.6599   12.6018  H     
55   H        14.9287    1.4312   10.8592  H     
56   H        13.5578    0.6507   11.6638  H     
57   H        17.9903    4.5292    9.5015  H     
58   H        18.5154    6.9975    6.1389  H     
59   H        18.8177    4.8567    7.2438  H     
@<TRIPOS>BOND
     1    1    2 2
     2    1    4 1
     3    2    3 1
     4    2   16 1
     5    3    5 2
     6    3    7 1
     7    4    6 2
     8    4   19 1
     9    5    6 1
    10    5   24 1
    11    7   11 2
    12    7   15 1
    13    8    9 2
    14    8   10 1
    15    9   13 1
    16   10   11 1
    17   10   12 2
    18   12   18 1
    19   12   22 1
    20   13   20 1
    21   13   21 1
    22   14   17 2
    23   14   23 1
    24   14   27 1
    25   15   18 2
    26   20   26 1
    27   21   25 1
    28   23   25 1
    29   24   30 1
    30   26   28 1
    31   26   29 2
    32   28   32 2
    33   29   31 1
    34   31   33 2
    35   32   33 1
    36   11   34 1
    37   15   35 1
    38   16   36 1
    39   16   37 1
    40   18   38 1
    41   19   39 1
    42   19   40 1
    43   20   41 1
    44   20   42 1
    45   21   43 1
    46   21   44 1
    47   24   45 1
    48   24   46 1
    49   25   47 1
    50   25   48 1
    51   27   49 1
    52   27   50 1
    53   27   51 1
    54   28   52 1
    55   29   53 1
    56   30   54 1
    57   30   55 1
    58   30   56 1
    59   31   57 1
    60   32   58 1
    61   33   59 1
@<TRIPOS>PROPERTY_DATA
  Total_Score	| 9.0029
  Crash		| -0.8290
  Polar		| 3.0691
  FragIndex	| 1
  FragRMSD	| 0.475

