@<TRIPOS>MOLECULE
BindingDB_50102507
 65 67 0 0 0
SMALL
NO_CHARGES


@<TRIPOS>ATOM
1    N         9.9583    2.8472   14.1188  N     
2    C        10.9094    3.7991   14.2686  C     
3    C        11.9790    3.8919   13.3390  C     
4    C         9.9879    1.9606   13.0933  C     
5    C        12.0242    2.9171   12.2967  C     
6    N        11.0210    2.0015   12.2251  N     
7    C        12.9629    4.9069   13.4476  C     
8    N        14.3453    7.4593   11.2632  N     
9    N        15.2788    8.2318   10.9316  N     
10   C        14.2140    6.7543   12.4136  C     
11   C        13.1128    5.8774   12.4317  C     
12   C        12.4610   10.4443    6.5963  C     
13   C        15.1341    6.7414   13.5089  C     
14   N        15.4551    8.7617    9.8174  N     
15   C        13.8779    4.9066   14.5258  C     
16   N        10.7779    4.6183   15.3363  N     
17   O        11.3515   10.3191    7.3700  O     
18   C        14.9419    5.8184   14.5566  C     
19   N         9.0240    1.0449   12.9428  N     
20   C        12.4612   11.3376    5.4140  C     
21   C        16.8049    8.8492    9.3918  C     
22   O        13.5898    9.7372    6.8675  O     
23   C        14.4165    9.4983    9.1828  C     
24   Cl       16.5239    7.7140   13.5877  Cl    
25   C        13.8859    8.8035    7.9038  C     
26   C        13.1009    2.7535   11.2812  C     
27   C        17.3359    7.5887    8.7915  C     
28   C        12.9283   12.7605    5.8193  C     
29   C        13.3536   10.7549    4.2853  C     
30   C        17.2872    6.3658    9.5059  C     
31   C        17.9508    7.5894    7.5144  C     
32   C        14.0575    1.5858   11.6202  C     
33   C        18.5069    6.4104    6.9777  C     
34   C        17.8352    5.1863    8.9674  C     
35   C        18.4483    5.2090    7.6996  C     
36   H        12.4425    5.8965   11.6500  H     
37   H        13.8070    4.2092   15.2803  H     
38   H        11.4207    5.3199   15.5057  H     
39   H        10.0618    4.4702   15.9757  H     
40   H        15.5915    5.8043   15.3525  H     
41   H         9.0566    0.4153   12.2037  H     
42   H         8.2860    1.0171   13.5716  H     
43   H        11.4423   11.4185    5.0327  H     
44   H        16.9076    9.6693    8.6718  H     
45   H        17.4526    9.1059   10.2355  H     
46   H        13.5698    9.6620    9.8596  H     
47   H        14.8105   10.4854    8.9266  H     
48   H        13.0086    8.1935    8.1388  H     
49   H        14.6603    8.1488    7.4962  H     
50   H        12.6276    2.5579   10.3077  H     
51   H        13.7182    3.6437   11.1836  H     
52   H        12.3118   13.1469    6.6344  H     
53   H        12.8398   13.4417    4.9712  H     
54   H        13.9729   12.7436    6.1460  H     
55   H        14.4030   10.7294    4.5999  H     
56   H        13.2847   11.3642    3.3850  H     
57   H        13.0406    9.7342    4.0495  H     
58   H        16.8751    6.3298   10.4435  H     
59   H        18.0235    8.4512    6.9745  H     
60   H        14.5433    1.7456   12.5879  H     
61   H        14.8390    1.5081   10.8611  H     
62   H        13.5137    0.6369   11.6515  H     
63   H        18.9595    6.4318    6.0595  H     
64   H        17.7937    4.3115    9.4955  H     
65   H        18.8500    4.3498    7.3105  H     
@<TRIPOS>BOND
     1    1    2 1
     2    1    4 2
     3    2    3 2
     4    2   16 1
     5    3    5 1
     6    3    7 1
     7    4    6 1
     8    4   19 1
     9    5    6 2
    10    5   26 1
    11    7   11 2
    12    7   15 1
    13    8    9 2
    14    8   10 1
    15    9   14 1
    16   10   11 1
    17   10   13 2
    18   12   17 2
    19   12   20 1
    20   12   22 1
    21   13   18 1
    22   13   24 1
    23   14   21 1
    24   14   23 1
    25   15   18 2
    26   20   28 1
    27   20   29 1
    28   21   27 1
    29   22   25 1
    30   23   25 1
    31   26   32 1
    32   27   30 2
    33   27   31 1
    34   30   34 1
    35   31   33 2
    36   33   35 1
    37   34   35 2
    38   11   36 1
    39   15   37 1
    40   16   38 1
    41   16   39 1
    42   18   40 1
    43   19   41 1
    44   19   42 1
    45   20   43 1
    46   21   44 1
    47   21   45 1
    48   23   46 1
    49   23   47 1
    50   25   48 1
    51   25   49 1
    52   26   50 1
    53   26   51 1
    54   28   52 1
    55   28   53 1
    56   28   54 1
    57   29   55 1
    58   29   56 1
    59   29   57 1
    60   30   58 1
    61   31   59 1
    62   32   60 1
    63   32   61 1
    64   32   62 1
    65   33   63 1
    66   34   64 1
    67   35   65 1
@<TRIPOS>PROPERTY_DATA
  Total_Score	| 9.8695
  Crash		| -1.9707
  Polar		| 2.9743
  FragIndex	| 1
  FragRMSD	| 0.788

