@<TRIPOS>MOLECULE
BindingDB_50102500
 59 61 0 0 0
SMALL
NO_CHARGES


@<TRIPOS>ATOM
1    N        10.1033    3.0356   14.0565  N     
2    C        11.0703    3.9814   14.1653  C     
3    C        12.1710    3.9815   13.2641  C     
4    C        10.1449    2.0751   13.1070  C     
5    C        12.2173    2.9399   12.2879  C     
6    N        11.1913    2.0466   12.2539  N     
7    C        13.2018    4.9557   13.3654  C     
8    N        15.0394    7.3895   11.2407  N     
9    N        14.5482    7.3855   10.0763  N     
10   C        14.6339    6.6795   12.3218  C     
11   C        13.5289    5.7917   12.2645  C     
12   C        15.3870    6.7575   13.5161  C     
13   N        14.9874    8.0760    9.1375  N     
14   C        12.3993   10.8286    6.3677  C     
15   C        13.9731    5.0520   14.5446  C     
16   N        10.9154    4.8799   15.1535  N     
17   O        11.2440   10.5390    7.0144  O     
18   C        15.0494    5.9533   14.6191  C     
19   N         9.1775    1.1573   13.0026  N     
20   C        16.1402    7.6706    8.4107  C     
21   C        14.1342    9.0834    8.6180  C     
22   C        17.2788    7.0854    9.1689  C     
23   C        19.5335    6.0626   10.5551  C     
24   Cl       16.7396    7.7749   13.6649  Cl    
25   O        13.4479    9.9671    6.4269  O     
26   F        20.5805    5.6038   11.1895  F     
27   C        13.2998    2.7173   11.2921  C     
28   C        13.5303    8.7682    7.2127  C     
29   C        18.8484    7.1849   11.0506  C     
30   C        19.0993    5.4484    9.3681  C     
31   C        17.7319    7.6951   10.3617  C     
32   C        17.9854    5.9589    8.6794  C     
33   C        12.5300   12.0863    5.6321  C     
34   C        14.1213    1.4344   11.5823  C     
35   H        12.9680    5.7291   11.4081  H     
36   H        13.7738    4.4467   15.3470  H     
37   H        11.5620    5.5926   15.2821  H     
38   H        10.1528    4.8071   15.7514  H     
39   H        15.5879    6.0070   15.4894  H     
40   H         9.2303    0.4641   12.3253  H     
41   H         8.4226    1.1783   13.6108  H     
42   H        15.8202    6.9528    7.6545  H     
43   H        16.5477    8.5232    7.8632  H     
44   H        13.2984    9.3008    9.2992  H     
45   H        14.7122   10.0164    8.5709  H     
46   H        12.8425    2.6276   10.3022  H     
47   H        14.0132    3.5473   11.2544  H     
48   H        14.1670    8.0796    6.6541  H     
49   H        12.5392    8.2947    7.3150  H     
50   H        19.1543    7.6258   11.9193  H     
51   H        19.6123    4.6490    8.9817  H     
52   H        17.2581    8.5270   10.7249  H     
53   H        17.6982    5.5013    7.8160  H     
54   H        11.7471   12.1557    4.8768  H     
55   H        13.5060   12.1501    5.1405  H     
56   H        12.4329   12.9229    6.3283  H     
57   H        14.6104    1.5041   12.5590  H     
58   H        14.8871    1.3175   10.8120  H     
59   H        13.4784    0.5480   11.5667  H     
@<TRIPOS>BOND
     1    1    2 1
     2    1    4 2
     3    2    3 2
     4    2   16 1
     5    3    5 1
     6    3    7 1
     7    4    6 1
     8    4   19 1
     9    5    6 2
    10    5   27 1
    11    7   11 2
    12    7   15 1
    13    8    9 2
    14    8   10 1
    15    9   13 1
    16   10   11 1
    17   10   12 2
    18   12   18 1
    19   12   24 1
    20   13   20 1
    21   13   21 1
    22   14   17 2
    23   14   25 1
    24   14   33 1
    25   15   18 2
    26   20   22 1
    27   21   28 1
    28   22   31 2
    29   22   32 1
    30   23   26 1
    31   23   29 2
    32   23   30 1
    33   25   28 1
    34   27   34 1
    35   29   31 1
    36   30   32 2
    37   11   35 1
    38   15   36 1
    39   16   37 1
    40   16   38 1
    41   18   39 1
    42   19   40 1
    43   19   41 1
    44   20   42 1
    45   20   43 1
    46   21   44 1
    47   21   45 1
    48   27   46 1
    49   27   47 1
    50   28   48 1
    51   28   49 1
    52   29   50 1
    53   30   51 1
    54   31   52 1
    55   32   53 1
    56   33   54 1
    57   33   55 1
    58   33   56 1
    59   34   57 1
    60   34   58 1
    61   34   59 1
@<TRIPOS>PROPERTY_DATA
  Total_Score	| 9.0317
  Crash		| -1.3049
  Polar		| 2.7713
  FragIndex	| 1
  FragRMSD	| 1.211

