@<TRIPOS>MOLECULE
BindingDB_50102520
 65 68 0 0 0
SMALL
NO_CHARGES


@<TRIPOS>ATOM
1    N        10.1858    2.9724   13.7227  N     
2    C        11.2132    3.8379   13.9284  C     
3    C        12.4861    3.5827   13.3492  C     
4    C        10.3415    1.8423   12.9913  C     
5    C        12.6383    2.3724   12.6125  C     
6    N        11.5586    1.5521   12.4760  N     
7    C        13.5496    4.4918   13.5383  C     
8    N        15.2906    7.2589   11.7870  N     
9    N        14.8733    7.3938   10.6150  N     
10   C        14.9386    6.3593   12.7350  C     
11   C        13.9094    5.4029   12.5181  C     
12   C        16.9911    8.0105    8.1460  C     
13   C        17.5513    6.7390    7.8047  C     
14   N        15.2649    8.2950    9.8343  N     
15   C        15.5961    6.3900   13.9872  C     
16   C        16.6517    8.4422    9.5395  C     
17   C        12.5473   10.4807    6.6287  C     
18   C        14.2163    4.5457   14.7859  C     
19   N        10.9582    4.9127   14.6976  N     
20   O        11.3435   10.3509    7.2278  O     
21   C        15.2319    5.4874   15.0020  C     
22   N         9.3123    1.0103   12.7608  N     
23   C        17.8640    6.4567    6.4350  C     
24   C        14.2799    9.1527    9.2894  C     
25   Cl       16.8323    7.5152   14.3201  Cl    
26   O        13.6073    9.7021    6.9865  O     
27   C        13.9203    1.8682   12.0396  C     
28   C        13.6643    8.6443    7.9528  C     
29   C        16.7305    8.9368    7.1081  C     
30   C        17.0041    8.6281    5.7626  C     
31   C        17.8053    5.7090    8.7336  C     
32   C        12.7073   11.4878    5.5733  C     
33   C        17.5776    7.3989    5.4238  C     
34   C        18.4545    5.2329    6.0950  C     
35   C        14.3409    2.5463   10.7143  C     
36   C        18.4081    4.5594    8.3573  C     
37   C        18.7414    4.3263    7.0542  C     
38   H        13.4122    5.3872   11.6289  H     
39   H        17.2826    7.9147   10.2560  H     
40   H        16.9324    9.4882    9.6829  H     
41   H        13.9526    3.9058   15.5418  H     
42   H        11.6610    5.5558   14.8815  H     
43   H        10.0790    5.0295   15.0882  H     
44   H        15.6977    5.5218   15.9152  H     
45   H         9.4371    0.2478   12.1674  H     
46   H         8.4338    1.2107   13.1282  H     
47   H        13.4659    9.2952   10.0195  H     
48   H        14.7019   10.1512    9.1423  H     
49   H        14.7163    1.9710   12.7846  H     
50   H        13.8286    0.7937   11.8440  H     
51   H        14.2862    7.8595    7.5162  H     
52   H        12.6760    8.2171    8.1472  H     
53   H        16.3299    9.8552    7.3209  H     
54   H        16.7832    9.3029    5.0262  H     
55   H        17.5179    5.7877    9.6851  H     
56   H        12.0410   11.2492    4.7422  H     
57   H        13.7341   11.5109    5.2057  H     
58   H        12.4523   12.4762    5.9611  H     
59   H        17.7872    7.2011    4.4393  H     
60   H        18.6858    5.0273    5.1526  H     
61   H        13.5304    2.4853    9.9851  H     
62   H        15.2145    2.0330   10.3017  H     
63   H        14.5971    3.5936   10.8852  H     
64   H        18.5905    3.8466    9.0350  H     
65   H        19.1525    3.4578    6.7967  H     
@<TRIPOS>BOND
     1    1    2 1
     2    1    4 2
     3    2    3 2
     4    2   19 1
     5    3    5 1
     6    3    7 1
     7    4    6 1
     8    4   22 1
     9    5    6 2
    10    5   27 1
    11    7   11 2
    12    7   18 1
    13    8    9 2
    14    8   10 1
    15    9   14 1
    16   10   11 1
    17   10   15 2
    18   12   13 2
    19   12   16 1
    20   12   29 1
    21   13   23 1
    22   13   31 1
    23   14   16 1
    24   14   24 1
    25   15   21 1
    26   15   25 1
    27   17   20 2
    28   17   26 1
    29   17   32 1
    30   18   21 2
    31   23   33 2
    32   23   34 1
    33   24   28 1
    34   26   28 1
    35   27   35 1
    36   29   30 2
    37   30   33 1
    38   31   36 2
    39   34   37 2
    40   36   37 1
    41   11   38 1
    42   16   39 1
    43   16   40 1
    44   18   41 1
    45   19   42 1
    46   19   43 1
    47   21   44 1
    48   22   45 1
    49   22   46 1
    50   24   47 1
    51   24   48 1
    52   27   49 1
    53   27   50 1
    54   28   51 1
    55   28   52 1
    56   29   53 1
    57   30   54 1
    58   31   55 1
    59   32   56 1
    60   32   57 1
    61   32   58 1
    62   33   59 1
    63   34   60 1
    64   35   61 1
    65   35   62 1
    66   35   63 1
    67   36   64 1
    68   37   65 1
@<TRIPOS>PROPERTY_DATA
  Total_Score	| 10.0466
  Crash		| -1.1615
  Polar		| 2.6730
  FragIndex	| 1
  FragRMSD	| 0.945

