@<TRIPOS>MOLECULE
BindingDB_50102518
 65 68 0 0 0
SMALL
NO_CHARGES


@<TRIPOS>ATOM
1    N         9.9838    2.8037   14.0814  N     
2    C        10.9650    3.7352   14.1689  C     
3    C        11.9970    3.7821   13.1921  C     
4    C         9.9494    1.8893   13.0814  C     
5    C        11.9526    2.8009   12.1548  C     
6    N        10.9305    1.9044   12.1534  N     
7    C        13.0321    4.7514   13.2761  C     
8    N        14.4562    7.3461   11.1348  N     
9    N        15.3645    8.1739   10.8396  N     
10   C        14.3106    6.6041   12.2598  C     
11   C        13.2280    5.6994   12.2435  C     
12   C        15.1753    6.6130   13.3916  C     
13   N        15.4939    8.7926    9.7630  N     
14   C        12.6186   10.4855    6.5098  C     
15   C        13.9086    4.7698   14.3839  C     
16   C        17.8435    5.5002    8.2711  C     
17   C        17.4063    6.5980    9.0217  C     
18   N        10.8836    4.5943   15.2016  N     
19   C        17.2951    7.8322    8.4711  C     
20   O        11.4536   10.3716    7.1918  O     
21   C        14.9602    5.6990   14.4459  C     
22   N         8.9592    0.9901   12.9900  N     
23   C        18.2198    5.7102    6.9128  C     
24   C        18.1342    7.0031    6.3906  C     
25   C        16.8201    8.9610    9.2847  C     
26   C        14.4019    9.4723    9.1656  C     
27   C        17.6664    8.0148    7.1498  C     
28   Cl       16.4941    7.6676   13.5537  Cl    
29   O        13.7105    9.7437    6.8253  O     
30   C        12.9606    2.6316   11.0682  C     
31   C        13.8708    8.7846    7.8756  C     
32   C        12.7139   11.4584    5.4179  C     
33   C        17.8840    4.1950    8.8103  C     
34   C        18.6292    4.6103    6.1239  C     
35   C        14.0132    1.5550   11.4105  C     
36   C        18.2797    3.1069    8.0111  C     
37   C        18.6506    3.3137    6.6710  C     
38   H        12.5949    5.6915   11.4357  H     
39   H        13.7944    4.0967   15.1480  H     
40   H        17.1643    6.4576    9.9770  H     
41   H        11.5426    5.2980   15.3125  H     
42   H        10.1632    4.5090   15.8480  H     
43   H        15.5791    5.6947   15.2619  H     
44   H         8.9521    0.3456   12.2616  H     
45   H         8.2409    0.9874   13.6428  H     
46   H        18.3980    7.1831    5.4493  H     
47   H        16.9105    9.8943    8.7170  H     
48   H        17.5068    9.0874   10.1272  H     
49   H        13.5668    9.5633    9.8683  H     
50   H        14.6964   10.4982    8.9282  H     
51   H        17.5827    8.9123    6.7268  H     
52   H        12.4465    2.3546   10.1433  H     
53   H        13.4926    3.5570   10.8542  H     
54   H        14.5778    8.0364    7.5156  H     
55   H        12.9277    8.2707    8.0826  H     
56   H        12.0300   11.1798    4.6176  H     
57   H        13.7268   11.4920    5.0145  H     
58   H        12.4505   12.4506    5.7877  H     
59   H        17.6113    4.0226    9.7813  H     
60   H        18.8990    4.7419    5.1464  H     
61   H        14.5839    1.8529   12.2940  H     
62   H        14.7058    1.4371   10.5735  H     
63   H        13.5381    0.5916   11.6004  H     
64   H        18.2962    2.1625    8.4031  H     
65   H        18.9291    2.5192    6.0910  H     
@<TRIPOS>BOND
     1    1    2 1
     2    1    4 2
     3    2    3 2
     4    2   18 1
     5    3    5 1
     6    3    7 1
     7    4    6 1
     8    4   22 1
     9    5    6 2
    10    5   30 1
    11    7   11 2
    12    7   15 1
    13    8    9 2
    14    8   10 1
    15    9   13 1
    16   10   11 1
    17   10   12 2
    18   12   21 1
    19   12   28 1
    20   13   25 1
    21   13   26 1
    22   14   20 2
    23   14   29 1
    24   14   32 1
    25   15   21 2
    26   16   17 1
    27   16   23 1
    28   16   33 2
    29   17   19 2
    30   19   25 1
    31   19   27 1
    32   23   24 1
    33   23   34 2
    34   24   27 2
    35   26   31 1
    36   29   31 1
    37   30   35 1
    38   33   36 1
    39   34   37 1
    40   36   37 2
    41   11   38 1
    42   15   39 1
    43   17   40 1
    44   18   41 1
    45   18   42 1
    46   21   43 1
    47   22   44 1
    48   22   45 1
    49   24   46 1
    50   25   47 1
    51   25   48 1
    52   26   49 1
    53   26   50 1
    54   27   51 1
    55   30   52 1
    56   30   53 1
    57   31   54 1
    58   31   55 1
    59   32   56 1
    60   32   57 1
    61   32   58 1
    62   33   59 1
    63   34   60 1
    64   35   61 1
    65   35   62 1
    66   35   63 1
    67   36   64 1
    68   37   65 1
@<TRIPOS>PROPERTY_DATA
  Total_Score	| 8.6333
  Crash		| -2.2240
  Polar		| 2.8678
  FragIndex	| 1
  FragRMSD	| 0.690

