@<TRIPOS>MOLECULE
BindingDB_50102502
 62 64 0 0 0
SMALL
NO_CHARGES


@<TRIPOS>ATOM
1    N        10.2048    3.1205   13.9880  N     
2    C        11.2241    4.0044   14.1359  C     
3    C        12.4668    3.7689   13.4923  C     
4    C        10.3425    2.0031   13.2368  C     
5    C        12.5994    2.5784   12.7247  C     
6    N        11.5274    1.7480   12.6361  N     
7    C        13.5251    4.6946   13.6304  C     
8    N        15.0905    7.4502   11.7349  N     
9    N        14.4932    7.5253   10.6249  N     
10   C        14.7959    6.5991   12.7455  C     
11   C        13.7209    5.6845   12.6470  C     
12   C        15.6360    6.5560   13.8878  C     
13   N        14.7398    8.2593    9.6452  N     
14   C        12.7290   10.8888    6.6998  C     
15   C        14.3777    4.6500   14.7527  C     
16   N        10.9891    5.0819   14.9120  N     
17   O        11.4969   10.4226    7.0164  O     
18   C        15.4205    5.5834   14.8840  C     
19   N         9.3308    1.1389   13.0922  N     
20   C        16.0482    8.7594    9.4057  C     
21   C        13.6173    8.6232    8.8535  C     
22   Cl       16.9498    7.6102   14.0665  Cl    
23   O        13.8285   10.0925    6.8415  O     
24   C        13.8499    2.1046   12.0664  C     
25   C        13.8503    8.7330    7.3141  C     
26   C        16.9352    7.7328    8.7908  C     
27   C        12.8724   12.2908    6.2592  C     
28   C        17.2068    6.5036    9.4464  C     
29   C        17.5317    7.9637    7.5285  C     
30   C        14.2058    2.8806   10.7772  C     
31   C        12.1902   12.5784    4.9043  C     
32   C        18.3213    6.9752    6.9123  C     
33   C        17.9913    5.5106    8.8294  C     
34   C        18.5358    5.7416    7.5533  C     
35   H        13.0882    5.7251   11.8424  H     
36   H        14.2548    3.9274   15.4697  H     
37   H        11.6826    5.7490   15.0499  H     
38   H        10.1246    5.1942   15.3401  H     
39   H        16.0324    5.5330   15.6993  H     
40   H         9.4506    0.3391   12.5538  H     
41   H         8.4848    1.3031   13.5361  H     
42   H        15.9978    9.6486    8.7684  H     
43   H        16.5210    9.1033   10.3352  H     
44   H        12.7956    7.9090    8.9913  H     
45   H        13.2443    9.5757    9.2375  H     
46   H        14.6809    2.1807   12.7700  H     
47   H        13.7552    1.0484   11.8039  H     
48   H        14.8128    8.2908    7.0505  H     
49   H        13.0826    8.1652    6.7695  H     
50   H        12.4295   12.9382    7.0197  H     
51   H        13.9311   12.5479    6.1760  H     
52   H        16.8327    6.3115   10.3807  H     
53   H        17.3904    8.8538    7.0448  H     
54   H        13.3762    2.8360   10.0649  H     
55   H        15.0875    2.4310   10.3099  H     
56   H        14.4277    3.9254   11.0131  H     
57   H        12.6237   11.9567    4.1182  H     
58   H        12.3346   13.6275    4.6344  H     
59   H        11.1179   12.3852    4.9632  H     
60   H        18.7420    7.1603    5.9974  H     
61   H        18.1723    4.6278    9.3110  H     
62   H        19.1011    5.0207    7.1007  H     
@<TRIPOS>BOND
     1    1    2 1
     2    1    4 2
     3    2    3 2
     4    2   16 1
     5    3    5 1
     6    3    7 1
     7    4    6 1
     8    4   19 1
     9    5    6 2
    10    5   24 1
    11    7   11 2
    12    7   15 1
    13    8    9 2
    14    8   10 1
    15    9   13 1
    16   10   11 1
    17   10   12 2
    18   12   18 1
    19   12   22 1
    20   13   20 1
    21   13   21 1
    22   14   17 2
    23   14   23 1
    24   14   27 1
    25   15   18 2
    26   20   26 1
    27   21   25 1
    28   23   25 1
    29   24   30 1
    30   26   28 2
    31   26   29 1
    32   27   31 1
    33   28   33 1
    34   29   32 2
    35   32   34 1
    36   33   34 2
    37   11   35 1
    38   15   36 1
    39   16   37 1
    40   16   38 1
    41   18   39 1
    42   19   40 1
    43   19   41 1
    44   20   42 1
    45   20   43 1
    46   21   44 1
    47   21   45 1
    48   24   46 1
    49   24   47 1
    50   25   48 1
    51   25   49 1
    52   27   50 1
    53   27   51 1
    54   28   52 1
    55   29   53 1
    56   30   54 1
    57   30   55 1
    58   30   56 1
    59   31   57 1
    60   31   58 1
    61   31   59 1
    62   32   60 1
    63   33   61 1
    64   34   62 1
@<TRIPOS>PROPERTY_DATA
  Total_Score	| 9.4960
  Crash		| -1.4396
  Polar		| 2.3000
  FragIndex	| 1
  FragRMSD	| 0.499

