@<TRIPOS>MOLECULE
BindingDB_50102521
 59 61 0 0 0
SMALL
NO_CHARGES


@<TRIPOS>ATOM
1    N         9.9207    2.8585   14.0687  N     
2    C        10.8613    3.8159   14.2209  C     
3    C        11.9608    3.8811   13.3334  C     
4    C         9.9977    1.9421   13.0721  C     
5    C        12.0334    2.9042   12.2891  C     
6    N        11.0362    1.9820   12.2120  N     
7    C        12.9453    4.8987   13.4755  C     
8    N        14.4454    7.3499   11.2599  N     
9    N        15.3587    8.1382   10.8974  N     
10   C        14.2508    6.6958   12.4215  C     
11   C        13.1700    5.8030   12.4098  C     
12   C        17.2606    7.5758    8.5482  C     
13   N        15.4285    8.6552    9.7618  N     
14   C        15.0675    6.7636   13.5891  C     
15   C        16.7444    8.8012    9.2417  C     
16   C        12.5044   10.4611    6.4931  C     
17   C        13.7676    4.9581   14.6286  C     
18   C        17.4358    7.4907    7.1364  C     
19   N        10.6623    4.6840   15.2319  N     
20   O        11.3095   10.3870    7.1211  O     
21   C        14.8016    5.9143   14.6853  C     
22   N         9.0549    1.0070   12.9215  N     
23   C        14.3119    9.3706    9.2475  C     
24   Cl       16.3864    7.8198   13.7228  Cl    
25   Cl       16.8500    8.6692    6.0667  Cl    
26   O        13.5753    9.7244    6.9110  O     
27   C        13.0794    2.7996   11.2321  C     
28   C        13.6613    8.7597    7.9817  C     
29   C        17.6826    6.4752    9.3369  C     
30   C        12.6779   11.3632    5.3378  C     
31   C        18.0954    6.3745    6.5675  C     
32   C        14.1000    1.6713   11.4911  C     
33   C        18.3221    5.3634    8.7611  C     
34   C        18.5552    5.3288    7.3755  C     
35   H        12.5638    5.7393   11.5862  H     
36   H        17.4535    9.0308   10.0509  H     
37   H        16.8227    9.6712    8.5884  H     
38   H        13.6259    4.3115   15.3914  H     
39   H        11.2729    5.4275   15.3815  H     
40   H         9.8963    4.5665   15.8137  H     
41   H        15.3965    5.9336   15.5312  H     
42   H         9.1221    0.3700   12.1896  H     
43   H         8.2973    0.9777   13.5190  H     
44   H        13.5575    9.4519   10.0469  H     
45   H        14.5753   10.4178    9.0165  H     
46   H        12.5770    2.5969   10.2800  H     
47   H        13.6470    3.7255   11.1009  H     
48   H        14.2599    7.9267    7.6169  H     
49   H        12.6660    8.3798    8.2410  H     
50   H        17.5622    6.4934   10.3506  H     
51   H        12.1921   10.9212    4.4651  H     
52   H        13.7431   11.4922    5.0989  H     
53   H        12.2427   12.3426    5.5425  H     
54   H        18.2354    6.3177    5.5547  H     
55   H        14.6575    1.8666   12.4135  H     
56   H        14.8030    1.6206   10.6514  H     
57   H        13.6012    0.6953   11.5727  H     
58   H        18.6354    4.5865    9.3471  H     
59   H        19.0309    4.5218    6.9592  H     
@<TRIPOS>BOND
     1    1    2 1
     2    1    4 2
     3    2    3 2
     4    2   19 1
     5    3    5 1
     6    3    7 1
     7    4    6 1
     8    4   22 1
     9    5    6 2
    10    5   27 1
    11    7   11 2
    12    7   17 1
    13    8    9 2
    14    8   10 1
    15    9   13 1
    16   10   11 1
    17   10   14 2
    18   12   15 1
    19   12   18 1
    20   12   29 2
    21   13   15 1
    22   13   23 1
    23   14   21 1
    24   14   24 1
    25   16   20 2
    26   16   26 1
    27   16   30 1
    28   17   21 2
    29   18   25 1
    30   18   31 2
    31   23   28 1
    32   26   28 1
    33   27   32 1
    34   29   33 1
    35   31   34 1
    36   33   34 2
    37   11   35 1
    38   15   36 1
    39   15   37 1
    40   17   38 1
    41   19   39 1
    42   19   40 1
    43   21   41 1
    44   22   42 1
    45   22   43 1
    46   23   44 1
    47   23   45 1
    48   27   46 1
    49   27   47 1
    50   28   48 1
    51   28   49 1
    52   29   50 1
    53   30   51 1
    54   30   52 1
    55   30   53 1
    56   31   54 1
    57   32   55 1
    58   32   56 1
    59   32   57 1
    60   33   58 1
    61   34   59 1
@<TRIPOS>PROPERTY_DATA
  Total_Score	| 8.8798
  Crash		| -1.4621
  Polar		| 2.9125
  FragIndex	| 1
  FragRMSD	| 0.704

