@<TRIPOS>MOLECULE
BindingDB_17991
 62 65 0 0 0
SMALL
NO_CHARGES


@<TRIPOS>ATOM
1    C        78.4579   25.6418   73.4626  C     
2    C        78.8765   24.5014   71.4322  C     
3    C        79.9736   23.8211   72.0162  C     
4    C        80.2662   24.0916   73.3825  C     
5    N        79.4950   24.9965   74.0438  N     
6    N        78.1587   25.3849   72.1688  N     
7    N        77.7384   26.5331   74.1611  N     
8    N        78.4983   24.3261   70.1538  N     
9    C        81.3655   23.4577   74.1655  C     
10   C        82.5738   24.4077   74.3333  C     
11   C        80.7868   22.9614   71.2408  C     
12   C        82.0022   23.4346   70.7007  C     
13   C        80.3766   21.6418   70.9793  C     
14   C        81.1965   20.7980   70.2151  C     
15   C        82.8214   22.6238   69.8607  C     
16   C        82.3875   21.2905   69.6500  C     
17   O        83.1087   20.4249   68.8715  O     
18   N        83.9760   23.0737   69.1893  N     
19   C        84.5143   24.4162   69.4457  C     
20   C        85.1230   24.5267   70.8835  C     
21   C        86.2534   27.5504   72.8434  C     
22   C        84.5595   22.2878   68.2555  C     
23   O        85.5441   22.6664   67.6300  O     
24   C        84.0688   20.9405   67.9135  C     
25   C        83.4409   20.9705   66.5339  C     
26   C        82.1715   21.0557   63.9725  C     
27   C        81.4485   21.3935   65.1292  C     
28   C        82.0760   21.3552   66.3909  C     
29   C        84.1609   20.6559   65.3439  C     
30   C        83.5277   20.6940   64.0842  C     
31   F        80.1986   21.7439   65.0396  F     
32   C        85.0622   25.9628   71.4655  C     
33   O        86.2834   26.2712   72.1877  O     
34   C        85.2442   19.9197   68.0770  C     
35   F        81.6117   21.0851   62.7935  F     
36   H        77.0012   27.0024   73.7418  H     
37   H        77.9645   26.7101   75.0888  H     
38   H        77.7217   24.7952   69.8152  H     
39   H        78.9686   23.6987   69.5789  H     
40   H        80.9801   23.1827   75.1484  H     
41   H        81.7310   22.5354   73.6989  H     
42   H        83.0294   24.6105   73.3588  H     
43   H        83.3214   23.9424   74.9845  H     
44   H        82.2606   25.3554   74.7792  H     
45   H        82.2643   24.3957   70.9166  H     
46   H        79.5009   21.2853   71.3671  H     
47   H        80.8949   19.8376   70.0252  H     
48   H        85.3101   24.7023   68.7452  H     
49   H        83.7487   25.1782   69.2727  H     
50   H        84.6060   23.8385   71.5648  H     
51   H        86.1706   24.2011   70.8310  H     
52   H        86.1017   28.3625   72.1252  H     
53   H        87.2184   27.6893   73.3321  H     
54   H        85.4716   27.5952   73.6135  H     
55   H        81.5136   21.6238   67.2136  H     
56   H        85.1594   20.4084   65.3835  H     
57   H        84.0648   20.4586   63.2521  H     
58   H        84.9209   26.6988   70.6585  H     
59   H        84.1905   26.0152   72.1326  H     
60   H        85.6103   19.9164   69.1246  H     
61   H        86.0721   20.1700   67.4030  H     
62   H        84.8976   18.9073   67.8273  H     
@<TRIPOS>BOND
     1    1    5 2
     2    1    6 1
     3    1    7 1
     4    2    3 1
     5    2    6 2
     6    2    8 1
     7    3    4 2
     8    3   11 1
     9    4    5 1
    10    4    9 1
    11    9   10 1
    12   11   12 1
    13   11   13 2
    14   12   15 2
    15   13   14 1
    16   14   16 2
    17   15   16 1
    18   15   18 1
    19   16   17 1
    20   17   24 1
    21   18   19 1
    22   18   22 1
    23   19   20 1
    24   20   32 1
    25   21   33 1
    26   22   23 2
    27   22   24 1
    28   24   25 1
    29   24   34 1
    30   25   28 1
    31   25   29 2
    32   26   27 1
    33   26   30 2
    34   26   35 1
    35   27   28 2
    36   27   31 1
    37   29   30 1
    38   32   33 1
    39    7   36 1
    40    7   37 1
    41    8   38 1
    42    8   39 1
    43    9   40 1
    44    9   41 1
    45   10   42 1
    46   10   43 1
    47   10   44 1
    48   12   45 1
    49   13   46 1
    50   14   47 1
    51   19   48 1
    52   19   49 1
    53   20   50 1
    54   20   51 1
    55   21   52 1
    56   21   53 1
    57   21   54 1
    58   28   55 1
    59   29   56 1
    60   30   57 1
    61   32   58 1
    62   32   59 1
    63   34   60 1
    64   34   61 1
    65   34   62 1
@<TRIPOS>PROPERTY_DATA
  Total_Score	| 10.9266
  Crash		| -2.2010
  Polar		| 3.2117
  FragIndex	| 1
  FragRMSD	| 0.457

