@<TRIPOS>MOLECULE
BindingDB_17999
 56 59 0 0 0
SMALL
NO_CHARGES


@<TRIPOS>ATOM
1    C        78.6656   25.9331   73.3907  C     
2    C        80.2219   24.1384   73.2373  C     
3    C        79.7767   23.8644   71.9144  C     
4    C        78.7181   24.6537   71.3968  C     
5    N        78.2065   25.6640   72.1464  N     
6    N        79.6464   25.1648   73.9151  N     
7    N        78.2032   26.9757   74.0951  N     
8    C        80.5053   23.0016   71.0634  C     
9    C        81.6539   23.5068   70.4179  C     
10   C        80.1493   21.6539   70.8848  C     
11   C        80.9534   20.8240   70.0880  C     
12   C        82.4902   22.6986   69.6025  C     
13   C        82.1066   21.3397   69.4628  C     
14   O        82.8509   20.4646   68.7241  O     
15   N        83.6501   23.1579   68.9532  N     
16   C        84.0704   24.5575   69.0772  C     
17   C        84.5435   24.9366   70.5057  C     
18   C        84.3568   22.3152   68.1678  C     
19   O        85.4017   22.6718   67.6268  O     
20   C        83.4196   20.9365   66.4120  C     
21   C        82.5177   20.9789   63.7061  C     
22   C        81.6035   21.1821   64.7550  C     
23   C        82.0554   21.1680   66.0893  C     
24   C        84.3228   20.7656   65.3262  C     
25   C        83.8817   20.7775   63.9923  C     
26   C        83.8968   20.9527   67.8468  C     
27   C        85.0185   19.9076   68.1409  C     
28   F        80.3409   21.3782   64.4889  F     
29   F        84.7359   20.6071   63.0185  F     
30   N        78.1969   24.4746   70.1661  N     
31   C        81.3172   23.4242   73.9477  C     
32   C        82.5825   24.3004   74.0982  C     
33   O        85.9590   25.0080   70.5665  O     
34   H        78.5726   27.1560   74.9728  H     
35   H        77.6072   27.6195   73.6836  H     
36   H        81.8796   24.4883   70.5734  H     
37   H        79.3199   21.2691   71.3441  H     
38   H        80.7028   19.8380   69.9730  H     
39   H        84.8763   24.8279   68.3917  H     
40   H        83.2551   25.2157   68.7771  H     
41   H        84.1386   25.9165   70.7792  H     
42   H        84.2121   24.2079   71.2413  H     
43   H        82.1911   20.9832   62.7354  H     
44   H        81.3639   21.3267   66.8254  H     
45   H        85.3198   20.6335   65.4926  H     
46   H        85.2378   19.8838   69.2139  H     
47   H        85.9525   20.1442   67.6235  H     
48   H        84.7021   18.9089   67.8254  H     
49   H        77.4666   25.0365   69.8579  H     
50   H        78.5322   23.7710   69.5850  H     
51   H        80.9640   23.1347   74.9420  H     
52   H        81.5971   22.5038   73.4314  H     
53   H        82.9463   24.6197   73.1190  H     
54   H        83.3659   23.7246   74.5935  H     
55   H        82.3695   25.1856   74.7013  H     
56   H        86.1997   25.6578   69.8685  H     
@<TRIPOS>BOND
     1    1    5 2
     2    1    6 1
     3    1    7 1
     4    2    3 1
     5    2    6 2
     6    2   31 1
     7    3    4 2
     8    3    8 1
     9    4    5 1
    10    4   30 1
    11    8    9 1
    12    8   10 2
    13    9   12 2
    14   10   11 1
    15   11   13 2
    16   12   13 1
    17   12   15 1
    18   13   14 1
    19   14   26 1
    20   15   16 1
    21   15   18 1
    22   16   17 1
    23   17   33 1
    24   18   19 2
    25   18   26 1
    26   20   23 1
    27   20   24 2
    28   20   26 1
    29   21   22 1
    30   21   25 2
    31   22   23 2
    32   22   28 1
    33   24   25 1
    34   25   29 1
    35   26   27 1
    36   31   32 1
    37    7   34 1
    38    7   35 1
    39    9   36 1
    40   10   37 1
    41   11   38 1
    42   16   39 1
    43   16   40 1
    44   17   41 1
    45   17   42 1
    46   21   43 1
    47   23   44 1
    48   24   45 1
    49   27   46 1
    50   27   47 1
    51   27   48 1
    52   30   49 1
    53   30   50 1
    54   31   51 1
    55   31   52 1
    56   32   53 1
    57   32   54 1
    58   32   55 1
    59   33   56 1
@<TRIPOS>PROPERTY_DATA
  Total_Score	| 11.6960
  Crash		| -1.5725
  Polar		| 5.9926
  FragIndex	| 1
  FragRMSD	| 0.436

