@<TRIPOS>MOLECULE
BindingDB_18008
 65 68 0 0 0
SMALL
NO_CHARGES


@<TRIPOS>ATOM
1    C        78.5928   25.8868   73.5963  C     
2    C        80.0816   24.0276   73.4956  C     
3    C        79.6610   23.7748   72.1584  C     
4    C        78.6420   24.6024   71.6121  C     
5    N        78.1468   25.6337   72.3422  N     
6    N        79.5322   25.0822   74.1512  N     
7    N        78.1467   26.9538   74.2778  N     
8    C        80.4353   22.9826   71.2850  C     
9    C        81.5491   23.6013   70.6828  C     
10   C        80.0381   21.6947   70.8690  C     
11   C        80.7371   21.0576   69.8247  C     
12   C        82.2457   22.9958   69.6137  C     
13   C        81.7992   21.7203   69.1817  C     
14   O        82.3230   21.2066   68.0190  O     
15   N        83.2221   23.6502   68.8569  N     
16   C        84.0212   24.7185   69.4572  C     
17   C        83.3480   23.3138   67.5557  C     
18   O        84.1171   23.9121   66.8045  O     
19   C        83.3308   21.4544   65.9016  C     
20   C        84.9374   20.5309   63.7463  C     
21   C        85.5357   20.9105   64.9589  C     
22   C        84.7360   21.3253   66.0398  C     
23   C        82.7466   20.9806   64.6952  C     
24   C        83.5408   20.5248   63.6269  C     
25   C        82.5617   22.1937   66.9758  C     
26   C        81.1983   22.7908   66.4816  C     
27   F        86.8315   20.9338   65.0625  F     
28   F        82.9877   20.1306   62.5146  F     
29   N        78.1519   24.4533   70.3625  N     
30   C        81.1155   23.2541   74.2383  C     
31   C        82.4693   23.9939   74.3257  C     
32   C        84.7314   24.3151   70.7869  C     
33   C        84.8539   25.4656   71.8144  C     
34   O        85.0398   26.7375   71.1707  O     
35   C        85.7209   27.7129   71.9776  C     
36   C        86.0607   28.9270   71.0973  C     
37   H        78.5143   27.1396   75.1532  H     
38   H        77.5540   27.5998   73.8553  H     
39   H        81.7935   24.5485   70.9736  H     
40   H        79.2141   21.2417   71.2818  H     
41   H        80.4117   20.1524   69.4797  H     
42   H        84.8068   25.0786   68.7880  H     
43   H        83.3761   25.5893   69.6137  H     
44   H        85.5204   20.2443   62.9564  H     
45   H        85.1965   21.6414   66.9003  H     
46   H        81.7351   21.0017   64.5568  H     
47   H        80.5093   21.9798   66.2480  H     
48   H        81.3339   23.4089   65.5930  H     
49   H        80.7286   23.4192   67.2429  H     
50   H        77.4462   25.0412   70.0489  H     
51   H        78.4869   23.7514   69.7737  H     
52   H        80.7420   23.0577   75.2465  H     
53   H        81.2908   22.2827   73.7706  H     
54   H        82.8983   24.1184   73.3297  H     
55   H        83.1662   23.4172   74.9337  H     
56   H        82.3454   24.9817   74.7822  H     
57   H        84.1887   23.5007   71.2732  H     
58   H        85.7314   23.9419   70.5503  H     
59   H        83.9371   25.5026   72.4124  H     
60   H        85.6999   25.2481   72.4710  H     
61   H        85.0848   28.0550   72.7991  H     
62   H        86.6435   27.2949   72.3927  H     
63   H        86.7150   28.6268   70.2786  H     
64   H        86.5633   29.6920   71.6913  H     
65   H        85.1439   29.3474   70.6794  H     
@<TRIPOS>BOND
     1    1    5 2
     2    1    6 1
     3    1    7 1
     4    2    3 1
     5    2    6 2
     6    2   30 1
     7    3    4 2
     8    3    8 1
     9    4    5 1
    10    4   29 1
    11    8    9 1
    12    8   10 2
    13    9   12 2
    14   10   11 1
    15   11   13 2
    16   12   13 1
    17   12   15 1
    18   13   14 1
    19   14   25 1
    20   15   16 1
    21   15   17 1
    22   16   32 1
    23   17   18 2
    24   17   25 1
    25   19   22 1
    26   19   23 2
    27   19   25 1
    28   20   21 1
    29   20   24 2
    30   21   22 2
    31   21   27 1
    32   23   24 1
    33   24   28 1
    34   25   26 1
    35   30   31 1
    36   32   33 1
    37   33   34 1
    38   34   35 1
    39   35   36 1
    40    7   37 1
    41    7   38 1
    42    9   39 1
    43   10   40 1
    44   11   41 1
    45   16   42 1
    46   16   43 1
    47   20   44 1
    48   22   45 1
    49   23   46 1
    50   26   47 1
    51   26   48 1
    52   26   49 1
    53   29   50 1
    54   29   51 1
    55   30   52 1
    56   30   53 1
    57   31   54 1
    58   31   55 1
    59   31   56 1
    60   32   57 1
    61   32   58 1
    62   33   59 1
    63   33   60 1
    64   35   61 1
    65   35   62 1
    66   36   63 1
    67   36   64 1
    68   36   65 1
@<TRIPOS>PROPERTY_DATA
  Total_Score	| 10.3457
  Crash		| -2.4535
  Polar		| 4.5206
  FragIndex	| 1
  FragRMSD	| 1.411

