@<TRIPOS>MOLECULE
BindingDB_17978
 59 62 0 0 0
SMALL
NO_CHARGES


@<TRIPOS>ATOM
1    C        78.7236   25.9700   73.3687  C     
2    C        78.8165   24.6796   71.3765  C     
3    C        79.8473   23.8736   71.9218  C     
4    C        80.2629   24.1560   73.2553  C     
5    N        79.6811   25.1912   73.9148  N     
6    N        78.2998   25.6996   72.1094  N     
7    N        78.2579   27.0162   74.0642  N     
8    N        78.3090   24.4955   70.1421  N     
9    C        81.3286   23.4344   74.0048  C     
10   C        82.5996   24.2848   74.2233  C     
11   C        80.5698   22.9620   71.1145  C     
12   C        81.8146   23.3758   70.5869  C     
13   C        80.1375   21.6398   70.9146  C     
14   C        80.9583   20.7387   70.2130  C     
15   C        82.6760   22.4874   69.8893  C     
16   C        82.2106   21.1539   69.7140  C     
17   C        84.0893   20.6622   68.2703  C     
18   C        84.6464   21.9542   68.6616  C     
19   O        82.9941   20.2142   69.0964  O     
20   N        83.9362   22.8509   69.3712  N     
21   C        84.4592   24.2075   69.5530  C     
22   C        85.1462   24.4309   70.9383  C     
23   C        85.1811   25.9199   71.3659  C     
24   O        86.3073   26.2243   72.2127  O     
25   C        86.2657   27.5052   72.8561  C     
26   O        85.7808   22.1853   68.2576  O     
27   C        83.7353   20.6773   66.8162  C     
28   C        82.4441   21.0389   66.3645  C     
29   C        84.7245   20.3973   65.8439  C     
30   C        84.4322   20.4659   64.4705  C     
31   C        83.1397   20.7992   64.0372  C     
32   C        82.1450   21.0892   64.9900  C     
33   F        80.9425   21.4141   64.6026  F     
34   F        82.8760   20.8433   62.7586  F     
35   H        77.6765   27.6690   73.6509  H     
36   H        78.6138   27.1798   74.9483  H     
37   H        77.5904   25.0624   69.8280  H     
38   H        78.6307   23.7815   69.5691  H     
39   H        80.9267   23.1474   74.9834  H     
40   H        81.6178   22.5059   73.5126  H     
41   H        83.0289   24.5984   73.2614  H     
42   H        83.3455   23.7062   74.7645  H     
43   H        82.3663   25.1803   74.8035  H     
44   H        82.1025   24.3360   70.7606  H     
45   H        79.2469   21.3117   71.2960  H     
46   H        80.6579   19.7674   70.0891  H     
47   H        84.8628   19.9114   68.4502  H     
48   H        85.1929   24.4958   68.7982  H     
49   H        83.6452   24.9172   69.3948  H     
50   H        84.6133   23.8779   71.7176  H     
51   H        86.1625   24.0323   70.9032  H     
52   H        85.1124   26.5777   70.4895  H     
53   H        84.3016   26.1175   71.9867  H     
54   H        86.1756   28.3048   72.1194  H     
55   H        87.1960   27.6444   73.4121  H     
56   H        85.4277   27.5609   73.5591  H     
57   H        81.7081   21.2750   67.0324  H     
58   H        85.6768   20.1562   66.1321  H     
59   H        85.1680   20.2825   63.7844  H     
@<TRIPOS>BOND
     1    1    5 2
     2    1    6 1
     3    1    7 1
     4    2    3 1
     5    2    6 2
     6    2    8 1
     7    3    4 2
     8    3   11 1
     9    4    5 1
    10    4    9 1
    11    9   10 1
    12   11   12 1
    13   11   13 2
    14   12   15 2
    15   13   14 1
    16   14   16 2
    17   15   16 1
    18   15   20 1
    19   16   19 1
    20   17   18 1
    21   17   19 1
    22   17   27 1
    23   18   20 1
    24   18   26 2
    25   20   21 1
    26   21   22 1
    27   22   23 1
    28   23   24 1
    29   24   25 1
    30   27   28 1
    31   27   29 2
    32   28   32 2
    33   29   30 1
    34   30   31 2
    35   31   32 1
    36   31   34 1
    37   32   33 1
    38    7   35 1
    39    7   36 1
    40    8   37 1
    41    8   38 1
    42    9   39 1
    43    9   40 1
    44   10   41 1
    45   10   42 1
    46   10   43 1
    47   12   44 1
    48   13   45 1
    49   14   46 1
    50   17   47 1
    51   21   48 1
    52   21   49 1
    53   22   50 1
    54   22   51 1
    55   23   52 1
    56   23   53 1
    57   25   54 1
    58   25   55 1
    59   25   56 1
    60   28   57 1
    61   29   58 1
    62   30   59 1
@<TRIPOS>PROPERTY_DATA
  Total_Score	| 13.7635
  Crash		| -1.1447
  Polar		| 5.4427
  FragIndex	| 1
  FragRMSD	| 1.140

