@<TRIPOS>MOLECULE
BindingDB_17977
 59 62 0 0 0
SMALL
NO_CHARGES


@<TRIPOS>ATOM
1    C        78.5477   25.9385   73.5966  C     
2    C        78.6513   24.5475   71.6842  C     
3    C        79.6517   23.7476   72.3004  C     
4    C        80.0343   24.0802   73.6315  C     
5    N        79.4707   25.1674   74.2150  N     
6    N        78.1388   25.6136   72.3493  N     
7    N        78.1065   27.0442   74.2091  N     
8    N        78.2079   24.3617   70.4225  N     
9    C        81.0323   23.3452   74.4529  C     
10   C        82.3754   24.1001   74.5999  C     
11   C        80.4482   22.8875   71.5090  C     
12   C        81.7485   23.3299   71.1923  C     
13   C        79.9585   21.7030   70.9222  C     
14   C        80.7362   21.0182   69.9657  C     
15   C        82.5609   22.6418   70.2711  C     
16   C        82.0029   21.5185   69.6058  C     
17   C        83.2322   22.0929   67.6968  C     
18   C        84.1355   22.8953   68.5444  C     
19   O        82.6603   21.0222   68.4991  O     
20   N        83.7854   23.1355   69.8253  N     
21   C        84.6833   23.8373   70.7417  C     
22   C        84.2571   25.3099   71.0363  C     
23   C        85.3698   26.3689   70.8419  C     
24   O        86.3326   26.4460   71.9133  O     
25   C        86.1665   27.5357   72.8343  C     
26   O        85.1634   23.3605   68.0629  O     
27   C        83.8060   21.5252   66.4434  C     
28   C        85.2005   21.3247   66.3132  C     
29   C        82.9701   21.2042   65.3421  C     
30   C        83.5139   20.7406   64.1333  C     
31   C        84.9063   20.6018   64.0013  C     
32   C        85.7445   20.9072   65.0881  C     
33   H        77.5568   27.6870   73.7329  H     
34   H        78.4584   27.2658   75.0845  H     
35   H        77.5254   24.9528   70.0574  H     
36   H        78.5619   23.6457   69.8663  H     
37   H        80.6068   23.1951   75.4473  H     
38   H        81.2326   22.3515   74.0452  H     
39   H        82.9286   24.0868   73.6626  H     
40   H        82.9851   23.6134   75.3622  H     
41   H        82.2140   25.1384   74.8964  H     
42   H        82.0677   24.2228   71.5625  H     
43   H        79.0156   21.3749   71.1386  H     
44   H        80.3511   20.2059   69.4812  H     
45   H        82.4151   22.7692   67.4175  H     
46   H        84.7481   23.2940   71.6901  H     
47   H        85.7042   23.8153   70.3502  H     
48   H        83.4227   25.5801   70.3836  H     
49   H        83.8966   25.3876   72.0624  H     
50   H        85.9195   26.0985   69.9421  H     
51   H        84.9136   27.3467   70.6503  H     
52   H        85.1921   27.5090   73.3206  H     
53   H        86.2912   28.4955   72.3280  H     
54   H        86.9400   27.4528   73.5987  H     
55   H        85.8336   21.5365   67.0901  H     
56   H        81.9548   21.3140   65.4094  H     
57   H        82.8981   20.5086   63.3492  H     
58   H        85.3116   20.2651   63.1233  H     
59   H        86.7579   20.8325   64.9872  H     
@<TRIPOS>BOND
     1    1    5 2
     2    1    6 1
     3    1    7 1
     4    2    3 1
     5    2    6 2
     6    2    8 1
     7    3    4 2
     8    3   11 1
     9    4    5 1
    10    4    9 1
    11    9   10 1
    12   11   12 1
    13   11   13 2
    14   12   15 2
    15   13   14 1
    16   14   16 2
    17   15   16 1
    18   15   20 1
    19   16   19 1
    20   17   18 1
    21   17   19 1
    22   17   27 1
    23   18   20 1
    24   18   26 2
    25   20   21 1
    26   21   22 1
    27   22   23 1
    28   23   24 1
    29   24   25 1
    30   27   28 1
    31   27   29 2
    32   28   32 2
    33   29   30 1
    34   30   31 2
    35   31   32 1
    36    7   33 1
    37    7   34 1
    38    8   35 1
    39    8   36 1
    40    9   37 1
    41    9   38 1
    42   10   39 1
    43   10   40 1
    44   10   41 1
    45   12   42 1
    46   13   43 1
    47   14   44 1
    48   17   45 1
    49   21   46 1
    50   21   47 1
    51   22   48 1
    52   22   49 1
    53   23   50 1
    54   23   51 1
    55   25   52 1
    56   25   53 1
    57   25   54 1
    58   28   55 1
    59   29   56 1
    60   30   57 1
    61   31   58 1
    62   32   59 1
@<TRIPOS>PROPERTY_DATA
  Total_Score	| 10.9754
  Crash		| -2.2822
  Polar		| 5.0092
  FragIndex	| 1
  FragRMSD	| 0.968

