@<TRIPOS>MOLECULE
BindingDB_17981
 59 62 0 0 0
SMALL
NO_CHARGES


@<TRIPOS>ATOM
1    C        78.6633   25.9696   73.4329  C     
2    C        78.7536   24.6116   71.4933  C     
3    C        79.7802   23.8245   72.0798  C     
4    C        80.1853   24.1432   73.4075  C     
5    N        79.6148   25.2076   74.0199  N     
6    N        78.2383   25.6612   72.1808  N     
7    N        78.2297   27.0551   74.0824  N     
8    N        78.2730   24.3963   70.2456  N     
9    C        81.2251   23.4202   74.1902  C     
10   C        82.5236   24.2416   74.3231  C     
11   C        80.5209   22.9099   71.2926  C     
12   C        81.7823   23.3130   70.8000  C     
13   C        80.0285   21.6277   70.9827  C     
14   C        80.8202   20.7417   70.2365  C     
15   C        82.5856   22.4574   69.9932  C     
16   C        82.0822   21.1457   69.7608  C     
17   C        83.8779   20.6750   68.2248  C     
18   C        84.4796   21.9379   68.6510  C     
19   O        82.8299   20.2107   69.1048  O     
20   N        83.8220   22.8212   69.4285  N     
21   C        84.3769   24.1703   69.5882  C     
22   C        85.0962   24.4001   70.9562  C     
23   C        84.9996   25.8591   71.4784  C     
24   O        86.2420   26.2505   72.0967  O     
25   C        86.2164   27.5772   72.6666  C     
26   O        85.5993   22.1666   68.2148  O     
27   C        83.4449   20.7377   66.7885  C     
28   C        84.3866   20.5684   65.7317  C     
29   C        82.1002   21.0033   66.4376  C     
30   C        81.6972   21.0968   65.0904  C     
31   C        82.6411   20.9429   64.0604  C     
32   C        83.9867   20.6892   64.3821  C     
33   F        84.8542   20.5677   63.4088  F     
34   F        85.6493   20.3045   65.9743  F     
35   H        77.6709   27.6989   73.6338  H     
36   H        78.5946   27.2545   74.9580  H     
37   H        77.5692   24.9676   69.8845  H     
38   H        78.6093   23.6637   69.6959  H     
39   H        80.8300   23.2125   75.1890  H     
40   H        81.4774   22.4631   73.7397  H     
41   H        83.2450   23.6915   74.9282  H     
42   H        82.3384   25.1992   74.8044  H     
43   H        82.9516   24.4170   73.3387  H     
44   H        82.1067   24.2542   71.0508  H     
45   H        79.1110   21.3287   71.3244  H     
46   H        80.4818   19.7965   70.0464  H     
47   H        84.6419   19.8950   68.3214  H     
48   H        85.0982   24.4025   68.7937  H     
49   H        83.6028   24.9249   69.4261  H     
50   H        84.6759   23.7291   71.7166  H     
51   H        86.1554   24.1465   70.8410  H     
52   H        84.7872   26.5361   70.6447  H     
53   H        84.1740   25.9232   72.1990  H     
54   H        85.9840   28.3382   71.9155  H     
55   H        87.1975   27.7956   73.0915  H     
56   H        85.4834   27.6472   73.4771  H     
57   H        81.3865   21.1262   67.1558  H     
58   H        80.7148   21.2850   64.8594  H     
59   H        82.3440   21.0214   63.0814  H     
@<TRIPOS>BOND
     1    1    5 2
     2    1    6 1
     3    1    7 1
     4    2    3 1
     5    2    6 2
     6    2    8 1
     7    3    4 2
     8    3   11 1
     9    4    5 1
    10    4    9 1
    11    9   10 1
    12   11   12 1
    13   11   13 2
    14   12   15 2
    15   13   14 1
    16   14   16 2
    17   15   16 1
    18   15   20 1
    19   16   19 1
    20   17   18 1
    21   17   19 1
    22   17   27 1
    23   18   20 1
    24   18   26 2
    25   20   21 1
    26   21   22 1
    27   22   23 1
    28   23   24 1
    29   24   25 1
    30   27   28 1
    31   27   29 2
    32   28   32 2
    33   28   34 1
    34   29   30 1
    35   30   31 2
    36   31   32 1
    37   32   33 1
    38    7   35 1
    39    7   36 1
    40    8   37 1
    41    8   38 1
    42    9   39 1
    43    9   40 1
    44   10   41 1
    45   10   42 1
    46   10   43 1
    47   12   44 1
    48   13   45 1
    49   14   46 1
    50   17   47 1
    51   21   48 1
    52   21   49 1
    53   22   50 1
    54   22   51 1
    55   23   52 1
    56   23   53 1
    57   25   54 1
    58   25   55 1
    59   25   56 1
    60   29   57 1
    61   30   58 1
    62   31   59 1
@<TRIPOS>PROPERTY_DATA
  Total_Score	| 13.8431
  Crash		| -1.0184
  Polar		| 5.3426
  FragIndex	| 1
  FragRMSD	| 1.169

