@<TRIPOS>MOLECULE
BindingDB_18000
 62 65 0 0 0
SMALL
NO_CHARGES


@<TRIPOS>ATOM
1    C        78.7319   25.9667   73.3402  C     
2    C        80.3403   24.2154   73.2575  C     
3    C        80.0188   23.9735   71.8875  C     
4    C        78.9913   24.7668   71.3135  C     
5    N        78.3816   25.7342   72.0508  N     
6    N        79.6867   25.2115   73.9201  N     
7    N        78.1611   26.9455   74.0685  N     
8    C        80.7719   23.0876   71.0687  C     
9    C        81.9250   23.5602   70.4019  C     
10   C        80.3933   21.7407   70.9135  C     
11   C        81.1630   20.8861   70.1047  C     
12   C        82.7391   22.7168   69.5909  C     
13   C        82.3135   21.3697   69.4465  C     
14   O        83.0146   20.4854   68.6699  O     
15   N        83.9113   23.1353   68.9325  N     
16   C        84.4807   24.4572   69.2107  C     
17   C        84.8840   24.6402   70.7092  C     
18   C        84.4912   22.3254   68.0233  C     
19   O        85.4656   22.6926   67.3667  O     
20   C        83.4112   20.9514   66.3256  C     
21   C        82.2585   21.0413   63.7070  C     
22   C        83.6324   20.7844   63.8701  C     
23   C        84.2040   20.7402   65.1603  C     
24   C        82.0288   21.2456   66.1344  C     
25   C        81.4611   21.2742   64.8423  C     
26   C        84.0035   20.9709   67.7213  C     
27   C        85.1731   19.9535   67.9638  C     
28   F        84.3953   20.6281   62.8267  F     
29   F        80.1963   21.5498   64.6816  F     
30   N        78.5744   24.6340   70.0401  N     
31   C        81.3588   23.4885   74.0574  C     
32   C        82.7231   24.2292   74.0538  C     
33   C        84.4503   26.0093   71.3248  C     
34   C        85.5684   27.0752   71.4237  C     
35   O        86.7009   26.5525   72.1180  O     
36   H        78.4673   27.1021   74.9789  H     
37   H        77.4809   27.5229   73.6758  H     
38   H        82.1559   24.5479   70.5069  H     
39   H        79.5524   21.3792   71.3768  H     
40   H        80.8797   19.9052   69.9886  H     
41   H        85.3743   24.6844   68.6206  H     
42   H        83.7521   25.2031   68.8872  H     
43   H        84.4279   23.8553   71.3177  H     
44   H        85.9645   24.5034   70.8179  H     
45   H        81.8553   21.0797   62.7633  H     
46   H        85.2159   20.5659   65.2501  H     
47   H        81.4181   21.4520   66.9376  H     
48   H        85.4753   19.9874   69.0341  H     
49   H        86.0482   20.1910   67.3409  H     
50   H        84.8323   18.9411   67.7303  H     
51   H        77.8652   25.2083   69.6974  H     
52   H        78.9639   23.9604   69.4559  H     
53   H        81.0109   23.4130   75.0998  H     
54   H        81.5009   22.4670   73.6780  H     
55   H        83.0955   24.2614   73.0250  H     
56   H        83.4490   23.6875   74.6692  H     
57   H        82.6285   25.2569   74.4230  H     
58   H        83.6278   26.4334   70.7397  H     
59   H        84.0771   25.8316   72.3443  H     
60   H        85.8763   27.4004   70.4189  H     
61   H        85.1931   27.9417   71.9856  H     
62   H        86.4111   26.5008   73.0610  H     
@<TRIPOS>BOND
     1    1    5 2
     2    1    6 1
     3    1    7 1
     4    2    3 1
     5    2    6 2
     6    2   31 1
     7    3    4 2
     8    3    8 1
     9    4    5 1
    10    4   30 1
    11    8    9 1
    12    8   10 2
    13    9   12 2
    14   10   11 1
    15   11   13 2
    16   12   13 1
    17   12   15 1
    18   13   14 1
    19   14   26 1
    20   15   16 1
    21   15   18 1
    22   16   17 1
    23   17   33 1
    24   18   19 2
    25   18   26 1
    26   20   23 1
    27   20   24 2
    28   20   26 1
    29   21   22 1
    30   21   25 2
    31   22   23 2
    32   22   28 1
    33   24   25 1
    34   25   29 1
    35   26   27 1
    36   31   32 1
    37   33   34 1
    38   34   35 1
    39    7   36 1
    40    7   37 1
    41    9   38 1
    42   10   39 1
    43   11   40 1
    44   16   41 1
    45   16   42 1
    46   17   43 1
    47   17   44 1
    48   21   45 1
    49   23   46 1
    50   24   47 1
    51   27   48 1
    52   27   49 1
    53   27   50 1
    54   30   51 1
    55   30   52 1
    56   31   53 1
    57   31   54 1
    58   32   55 1
    59   32   56 1
    60   32   57 1
    61   33   58 1
    62   33   59 1
    63   34   60 1
    64   34   61 1
    65   35   62 1
@<TRIPOS>PROPERTY_DATA
  Total_Score	| 12.1981
  Crash		| -1.6794
  Polar		| 5.0959
  FragIndex	| 1
  FragRMSD	| 0.488

