@<TRIPOS>MOLECULE
BindingDB_50330347
 62 65 0 0 0
SMALL
NO_CHARGES


@<TRIPOS>ATOM
1    C        78.6885   25.9613   73.3933  C     
2    N        78.2661   25.6849   72.1353  N     
3    C        78.8053   24.6629   71.4105  C     
4    C        79.8546   23.8868   71.9608  C     
5    C        80.2521   24.1668   73.3057  C     
6    N        79.6482   25.2030   73.9620  N     
7    C        80.5991   23.0020   71.1507  C     
8    C        80.1843   21.6745   70.9376  C     
9    C        80.9829   20.8219   70.1578  C     
10   C        81.8030   23.4681   70.5711  C     
11   C        82.6134   22.6341   69.7537  C     
12   C        82.1630   21.3035   69.5653  C     
13   O        82.9098   20.4040   68.8625  O     
14   C        83.9285   20.8699   67.9350  C     
15   C        84.4886   22.1650   68.3509  C     
16   N        83.8273   23.0262   69.1582  N     
17   C        81.3099   23.4360   74.0656  C     
18   C        82.6028   24.2709   74.2485  C     
19   N        78.2943   24.4689   70.1776  N     
20   N        78.2037   27.0091   74.0848  N     
21   O        85.5856   22.4693   67.8675  O     
22   C        84.3686   24.3704   69.3944  C     
23   C        85.0467   24.5303   70.7992  C     
24   C        83.4257   20.9623   66.5150  C     
25   C        84.3098   20.8472   65.4049  C     
26   C        83.8414   20.8708   64.0762  C     
27   C        82.4699   21.0382   63.8186  C     
28   C        81.5764   21.1849   64.8924  C     
29   C        82.0512   21.1438   66.2188  C     
30   C        84.9620   19.7121   68.0761  C     
31   F        84.6645   20.7164   63.0722  F     
32   F        80.2985   21.3115   64.6583  F     
33   C        85.0332   25.9680   71.3812  C     
34   O        86.2432   26.2226   72.1278  O     
35   C        86.2626   27.4657   72.8730  C     
36   H        79.3329   21.3158   71.3723  H     
37   H        80.7044   19.8482   70.0191  H     
38   H        82.0835   24.4243   70.7845  H     
39   H        80.9123   23.1776   75.0694  H     
40   H        81.5642   22.4869   73.5771  H     
41   H        83.1110   24.4640   73.2962  H     
42   H        83.2804   23.7261   74.9144  H     
43   H        82.3673   25.2323   74.7117  H     
44   H        78.6267   23.7613   69.6022  H     
45   H        77.5532   25.0134   69.8709  H     
46   H        78.5472   27.1737   74.9725  H     
47   H        77.6277   27.6601   73.6620  H     
48   H        85.1187   24.6695   68.6555  H     
49   H        83.5612   25.1048   69.2434  H     
50   H        84.5825   23.8452   71.5202  H     
51   H        86.0824   24.1813   70.6842  H     
52   H        85.3158   20.7143   65.5489  H     
53   H        82.1147   21.0416   62.8585  H     
54   H        81.3634   21.2240   66.9687  H     
55   H        85.2597   19.6300   69.1242  H     
56   H        85.8653   19.8818   67.4872  H     
57   H        84.5303   18.7569   67.7631  H     
58   H        84.9233   26.7082   70.5527  H     
59   H        84.1544   26.0448   72.0456  H     
60   H        86.3182   28.3175   72.1859  H     
61   H        87.1414   27.4701   73.5088  H     
62   H        85.3779   27.5609   73.5085  H     
@<TRIPOS>BOND
     1    1    2 2
     2    1    6 1
     3    1   20 1
     4    2    3 1
     5    3    4 2
     6    3   19 1
     7    4    5 1
     8    4    7 1
     9    5    6 2
    10    5   17 1
    11    7    8 2
    12    7   10 1
    13    8    9 1
    14    9   12 2
    15   10   11 2
    16   11   12 1
    17   11   16 1
    18   12   13 1
    19   13   14 1
    20   14   15 1
    21   14   24 1
    22   14   30 1
    23   15   16 1
    24   15   21 2
    25   16   22 1
    26   17   18 1
    27   22   23 1
    28   23   33 1
    29   24   25 2
    30   24   29 1
    31   25   26 1
    32   26   27 2
    33   26   31 1
    34   27   28 1
    35   28   29 2
    36   28   32 1
    37   33   34 1
    38   34   35 1
    39    8   36 1
    40    9   37 1
    41   10   38 1
    42   17   39 1
    43   17   40 1
    44   18   41 1
    45   18   42 1
    46   18   43 1
    47   19   44 1
    48   19   45 1
    49   20   46 1
    50   20   47 1
    51   22   48 1
    52   22   49 1
    53   23   50 1
    54   23   51 1
    55   25   52 1
    56   27   53 1
    57   29   54 1
    58   30   55 1
    59   30   56 1
    60   30   57 1
    61   33   58 1
    62   33   59 1
    63   35   60 1
    64   35   61 1
    65   35   62 1
@<TRIPOS>PROPERTY_DATA
  Total_Score	| 13.5919
  Crash		| -1.8092
  Polar		| 5.3366
  FragIndex	| 1
  FragRMSD	| 0.280

