@<TRIPOS>MOLECULE
BindingDB_17998
 59 62 0 0 0
SMALL
NO_CHARGES


@<TRIPOS>ATOM
1    C        78.7033   25.9669   73.3336  C     
2    C        80.2845   24.1877   73.2167  C     
3    C        79.9185   23.9447   71.8605  C     
4    C        78.8559   24.7218   71.3197  C     
5    N        78.2995   25.7152   72.0639  N     
6    N        79.6571   25.1881   73.8881  N     
7    N        78.2233   26.9963   74.0465  N     
8    C        80.6977   23.1062   71.0192  C     
9    C        81.9761   23.5439   70.5957  C     
10   C        80.2179   21.8525   70.5892  C     
11   C        81.0395   21.0336   69.7961  C     
12   C        82.8083   22.7713   69.7340  C     
13   C        82.3111   21.4858   69.3944  C     
14   O        83.0859   20.6184   68.6786  O     
15   N        84.0419   23.1914   69.1906  N     
16   C        84.5817   24.5029   69.5464  C     
17   C        85.2019   24.5174   70.9739  C     
18   C        84.6462   22.4375   68.2436  C     
19   O        85.6588   22.8315   67.6705  O     
20   C        83.3924   21.3176   66.4130  C     
21   C        81.9251   21.6561   63.9596  C     
22   C        82.6395   20.4651   64.2030  C     
23   C        83.3715   20.3056   65.3984  C     
24   C        82.6631   22.5147   66.1365  C     
25   C        81.9502   22.6794   64.9277  C     
26   C        84.0837   21.1548   67.7684  C     
27   C        85.2271   20.0764   67.8656  C     
28   F        82.5975   19.4947   63.3277  F     
29   F        81.2893   23.7786   64.7038  F     
30   N        78.3711   24.5515   70.0707  N     
31   C        81.3258   23.4508   73.9867  C     
32   C        82.5495   24.3374   74.3030  C     
33   C        85.2793   25.9450   71.6090  C     
34   O        86.5452   26.1926   72.2351  O     
35   H        78.5717   27.1471   74.9384  H     
36   H        77.6526   27.6603   73.6357  H     
37   H        82.2759   24.4670   70.9151  H     
38   H        79.2861   21.5185   70.8671  H     
39   H        80.7023   20.1111   69.4979  H     
40   H        85.3698   24.8545   68.8763  H     
41   H        83.7951   25.2583   69.4493  H     
42   H        84.6333   23.8727   71.6492  H     
43   H        86.2002   24.0753   70.9242  H     
44   H        81.3754   21.7559   63.0930  H     
45   H        83.8663   19.4110   65.5258  H     
46   H        82.6580   23.2891   66.8151  H     
47   H        85.7160   20.1026   68.8562  H     
48   H        85.9921   20.2659   67.1016  H     
49   H        84.8267   19.0667   67.7209  H     
50   H        77.6279   25.0985   69.7637  H     
51   H        78.7227   23.8540   69.4883  H     
52   H        80.8859   23.1125   74.9272  H     
53   H        81.6744   22.5659   73.4504  H     
54   H        83.0046   24.6871   73.3753  H     
55   H        83.2876   23.7674   74.8709  H     
56   H        82.2519   25.2036   74.8950  H     
57   H        85.1020   26.7474   70.8754  H     
58   H        84.4981   26.0469   72.3761  H     
59   H        86.3434   26.8540   72.9358  H     
@<TRIPOS>BOND
     1    1    5 2
     2    1    6 1
     3    1    7 1
     4    2    3 1
     5    2    6 2
     6    2   31 1
     7    3    4 2
     8    3    8 1
     9    4    5 1
    10    4   30 1
    11    8    9 1
    12    8   10 2
    13    9   12 2
    14   10   11 1
    15   11   13 2
    16   12   13 1
    17   12   15 1
    18   13   14 1
    19   14   26 1
    20   15   16 1
    21   15   18 1
    22   16   17 1
    23   17   33 1
    24   18   19 2
    25   18   26 1
    26   20   23 1
    27   20   24 2
    28   20   26 1
    29   21   22 1
    30   21   25 2
    31   22   23 2
    32   22   28 1
    33   24   25 1
    34   25   29 1
    35   26   27 1
    36   31   32 1
    37   33   34 1
    38    7   35 1
    39    7   36 1
    40    9   37 1
    41   10   38 1
    42   11   39 1
    43   16   40 1
    44   16   41 1
    45   17   42 1
    46   17   43 1
    47   21   44 1
    48   23   45 1
    49   24   46 1
    50   27   47 1
    51   27   48 1
    52   27   49 1
    53   30   50 1
    54   30   51 1
    55   31   52 1
    56   31   53 1
    57   32   54 1
    58   32   55 1
    59   32   56 1
    60   33   57 1
    61   33   58 1
    62   34   59 1
@<TRIPOS>PROPERTY_DATA
  Total_Score	| 10.8295
  Crash		| -2.3980
  Polar		| 6.0620
  FragIndex	| 1
  FragRMSD	| 0.891

