@<TRIPOS>MOLECULE
BindingDB_17980
 59 62 0 0 0
SMALL
NO_CHARGES


@<TRIPOS>ATOM
1    C        78.6784   25.9479   73.4078  C     
2    C        78.8268   24.6528   71.4259  C     
3    C        79.8677   23.8756   71.9825  C     
4    C        80.2366   24.1549   73.3344  C     
5    N        79.6233   25.1847   73.9880  N     
6    N        78.2739   25.6687   72.1475  N     
7    N        78.1850   26.9885   74.1009  N     
8    N        78.3249   24.4559   70.1875  N     
9    C        81.2818   23.4370   74.1180  C     
10   C        82.5547   24.3109   74.2973  C     
11   C        80.6175   22.9726   71.1966  C     
12   C        81.8621   23.3885   70.6679  C     
13   C        80.1775   21.6494   70.9885  C     
14   C        81.0097   20.7463   70.3092  C     
15   C        82.7032   22.5180   69.9251  C     
16   C        82.2483   21.1763   69.7841  C     
17   C        84.0509   20.6811   68.2588  C     
18   C        84.6109   21.9878   68.5995  C     
19   O        83.0345   20.2170   69.1793  O     
20   N        83.9320   22.8878   69.3451  N     
21   C        84.4827   24.2370   69.5176  C     
22   C        85.1074   24.4413   70.9382  C     
23   C        85.0671   25.9040   71.4611  C     
24   O        86.2868   26.1923   72.2017  O     
25   C        86.2635   27.4756   72.8567  C     
26   O        85.7231   22.2337   68.1289  O     
27   C        83.5923   20.6991   66.8318  C     
28   C        84.5325   20.4889   65.7922  C     
29   C        82.2544   20.9976   66.4608  C     
30   C        81.8682   21.0716   65.1109  C     
31   C        82.8164   20.8662   64.0939  C     
32   C        84.1563   20.5761   64.4339  C     
33   F        85.0472   20.4203   63.4942  F     
34   F        80.6238   21.3357   64.8045  F     
35   H        77.6382   27.6545   73.6611  H     
36   H        78.5118   27.1536   74.9963  H     
37   H        77.5764   24.9913   69.8797  H     
38   H        78.6612   23.7467   69.6144  H     
39   H        80.8790   23.1894   75.1183  H     
40   H        81.5623   22.4834   73.6370  H     
41   H        83.0313   24.4823   73.3175  H     
42   H        83.2554   23.7896   74.9636  H     
43   H        82.2968   25.2787   74.7501  H     
44   H        82.1455   24.3482   70.8533  H     
45   H        79.2837   21.3320   71.3693  H     
46   H        80.7155   19.7709   70.1945  H     
47   H        84.8383   19.9266   68.3573  H     
48   H        85.2690   24.4749   68.7907  H     
49   H        83.7146   24.9837   69.2939  H     
50   H        84.6036   23.8006   71.6668  H     
51   H        86.1476   24.0929   70.8907  H     
52   H        84.9661   26.6118   70.6084  H     
53   H        84.1804   25.9918   72.1249  H     
54   H        85.4477   27.5630   73.5847  H     
55   H        87.2051   27.5815   73.3913  H     
56   H        86.1763   28.2817   72.1187  H     
57   H        85.5163   20.2895   66.0082  H     
58   H        81.5436   21.1634   67.1753  H     
59   H        82.5422   20.9380   63.1131  H     
@<TRIPOS>BOND
     1    1    5 2
     2    1    6 1
     3    1    7 1
     4    2    3 1
     5    2    6 2
     6    2    8 1
     7    3    4 2
     8    3   11 1
     9    4    5 1
    10    4    9 1
    11    9   10 1
    12   11   12 1
    13   11   13 2
    14   12   15 2
    15   13   14 1
    16   14   16 2
    17   15   16 1
    18   15   20 1
    19   16   19 1
    20   17   18 1
    21   17   19 1
    22   17   27 1
    23   18   20 1
    24   18   26 2
    25   20   21 1
    26   21   22 1
    27   22   23 1
    28   23   24 1
    29   24   25 1
    30   27   28 1
    31   27   29 2
    32   28   32 2
    33   29   30 1
    34   30   31 2
    35   30   34 1
    36   31   32 1
    37   32   33 1
    38    7   35 1
    39    7   36 1
    40    8   37 1
    41    8   38 1
    42    9   39 1
    43    9   40 1
    44   10   41 1
    45   10   42 1
    46   10   43 1
    47   12   44 1
    48   13   45 1
    49   14   46 1
    50   17   47 1
    51   21   48 1
    52   21   49 1
    53   22   50 1
    54   22   51 1
    55   23   52 1
    56   23   53 1
    57   25   54 1
    58   25   55 1
    59   25   56 1
    60   28   57 1
    61   29   58 1
    62   31   59 1
@<TRIPOS>PROPERTY_DATA
  Total_Score	| 13.9062
  Crash		| -1.0519
  Polar		| 5.4139
  FragIndex	| 1
  FragRMSD	| 0.099

