@<TRIPOS>MOLECULE
BindingDB_7533
 52 54 0 0 0
SMALL
NO_CHARGES


@<TRIPOS>ATOM
1    C        59.1067   28.1402   27.9973  C     
2    N        58.7944   26.8540   27.6749  N     
3    N        59.1482   29.0828   27.0119  N     
4    C        58.5822   27.4571   25.3810  C     
5    C        58.5360   26.5038   26.3902  C     
6    C        58.0390   25.5690   24.5057  C     
7    N        58.2766   26.8666   24.2253  N     
8    N        58.1818   25.3270   25.8322  N     
9    C        58.8876   28.7902   25.7018  C     
10   N        58.9034   29.7136   24.7148  N     
11   N        59.3598   28.4169   29.2914  N     
12   C        59.0765   31.1207   24.8762  C     
13   C        60.4890   31.5702   24.7606  C     
14   C        63.1300   32.5566   24.3706  C     
15   C        62.2478   33.2228   25.2361  C     
16   C        60.9396   32.7362   25.4359  C     
17   C        61.3919   30.9110   23.8971  C     
18   C        62.7019   31.3906   23.7039  C     
19   C        59.5833   29.7048   29.8664  C     
20   C        58.2317   30.4562   30.0412  C     
21   O        57.1395   29.5650   30.2746  O     
22   C        59.2926   23.4685   27.0511  C     
23   C        57.9728   24.0525   26.4827  C     
24   C        56.8786   24.1448   27.5809  C     
25   C        60.3690   29.5337   31.1955  C     
26   C        61.8688   29.1798   30.9908  C     
27   H        57.7843   24.8695   23.8042  H     
28   H        58.8055   29.3929   23.7999  H     
29   H        59.2984   27.6683   29.9057  H     
30   H        58.5353   31.5877   24.0496  H     
31   H        58.6073   31.4545   25.8065  H     
32   H        64.0781   32.9177   24.2142  H     
33   H        62.5524   34.0824   25.7074  H     
34   H        60.3089   33.2570   26.0492  H     
35   H        61.1060   30.0806   23.3784  H     
36   H        63.3427   30.9024   23.0692  H     
37   H        60.2033   30.3090   29.1893  H     
38   H        58.2830   31.1694   30.8647  H     
39   H        58.0044   31.0312   29.1438  H     
40   H        56.3408   30.1417   30.2677  H     
41   H        60.0584   23.4515   26.2690  H     
42   H        59.1294   22.4454   27.4035  H     
43   H        59.6534   24.0742   27.8851  H     
44   H        57.6025   23.3292   25.7415  H     
45   H        57.2033   24.7955   28.4017  H     
46   H        56.6631   23.1582   27.9893  H     
47   H        55.9557   24.5573   27.1636  H     
48   H        60.3176   30.4610   31.7812  H     
49   H        59.9024   28.7528   31.8036  H     
50   H        61.9650   28.2479   30.4224  H     
51   H        62.3492   29.0489   31.9681  H     
52   H        62.3758   29.9827   30.4512  H     
@<TRIPOS>BOND
     1    1    2 1
     2    1    3 2
     3    1   11 1
     4    2    5 2
     5    3    9 1
     6    4    5 1
     7    4    7 1
     8    4    9 2
     9    5    8 1
    10    6    7 2
    11    6    8 1
    12    8   23 1
    13    9   10 1
    14   10   12 1
    15   11   19 1
    16   12   13 1
    17   13   16 2
    18   13   17 1
    19   14   15 2
    20   14   18 1
    21   15   16 1
    22   17   18 2
    23   19   20 1
    24   19   25 1
    25   20   21 1
    26   22   23 1
    27   23   24 1
    28   25   26 1
    29    6   27 1
    30   10   28 1
    31   11   29 1
    32   12   30 1
    33   12   31 1
    34   14   32 1
    35   15   33 1
    36   16   34 1
    37   17   35 1
    38   18   36 1
    39   19   37 1
    40   20   38 1
    41   20   39 1
    42   21   40 1
    43   22   41 1
    44   22   42 1
    45   22   43 1
    46   23   44 1
    47   24   45 1
    48   24   46 1
    49   24   47 1
    50   25   48 1
    51   25   49 1
    52   26   50 1
    53   26   51 1
    54   26   52 1
@<TRIPOS>PROPERTY_DATA
  Total_Score	| 9.5923
  Crash		| -0.6844
  Polar		| 3.2658
  FragIndex	| 1
  FragRMSD	| 0.508

