@<TRIPOS>MOLECULE
BindingDB_50197311
 47 48 0 0 0
SMALL
NO_CHARGES


@<TRIPOS>ATOM
1    N        59.2307   29.0788   26.9619  N     
2    C        59.2713   28.1194   27.9319  C     
3    N        58.9339   26.8422   27.6153  N     
4    C        58.8862   28.8219   25.6678  C     
5    N        58.2007   25.3411   25.8070  N     
6    C        57.9804   25.6040   24.4957  C     
7    N        58.1872   26.9009   24.2005  N     
8    C        58.5494   27.4910   25.3494  C     
9    C        58.5698   26.5208   26.3494  C     
10   C        58.0422   24.0554   26.4530  C     
11   C        59.3684   23.5400   27.0735  C     
12   C        56.8975   24.0783   27.5036  C     
13   N        58.8989   29.7770   24.7037  N     
14   N        59.6720   28.3402   29.2035  N     
15   C        60.0186   29.4869   29.7752  C     
16   O        59.9785   30.5487   29.1610  O     
17   C        59.1493   31.1752   24.8796  C     
18   C        60.5771   31.5364   25.3623  C     
19   O        61.6103   30.7660   24.7194  O     
20   C        62.0432   31.2273   23.4297  C     
21   C        60.5028   29.5036   31.1545  C     
22   C        59.5568   28.7408   32.1253  C     
23   C        61.9539   28.9523   31.2237  C     
24   H        57.6925   24.9076   23.8072  H     
25   H        57.7481   23.3162   25.7019  H     
26   H        60.1640   23.5622   26.3272  H     
27   H        59.2505   22.5103   27.4172  H     
28   H        59.6691   24.1531   27.9250  H     
29   H        57.1224   24.7743   28.3137  H     
30   H        56.7549   23.0837   27.9318  H     
31   H        55.9605   24.3843   27.0335  H     
32   H        58.7273   29.4869   23.7931  H     
33   H        59.7149   27.5504   29.7656  H     
34   H        58.9900   31.6515   23.9111  H     
35   H        58.4096   31.6000   25.5681  H     
36   H        60.7428   32.6088   25.2527  H     
37   H        60.6528   31.3226   26.4273  H     
38   H        61.2438   31.1635   22.6834  H     
39   H        62.8717   30.5936   23.1082  H     
40   H        62.4089   32.2573   23.4875  H     
41   H        60.5425   30.5436   31.5084  H     
42   H        58.5289   29.0956   32.0135  H     
43   H        59.8700   28.9010   33.1592  H     
44   H        59.5770   27.6671   31.9288  H     
45   H        61.9874   27.8955   30.9489  H     
46   H        62.3496   29.0603   32.2340  H     
47   H        62.6074   29.5093   30.5492  H     
@<TRIPOS>BOND
     1    1    2 2
     2    1    4 1
     3    2    3 1
     4    2   14 1
     5    3    9 2
     6    4    8 2
     7    4   13 1
     8    5    6 1
     9    5    9 1
    10    5   10 1
    11    6    7 2
    12    7    8 1
    13    8    9 1
    14   10   11 1
    15   10   12 1
    16   13   17 1
    17   14   15 am
    18   15   16 2
    19   15   21 1
    20   17   18 1
    21   18   19 1
    22   19   20 1
    23   21   22 1
    24   21   23 1
    25    6   24 1
    26   10   25 1
    27   11   26 1
    28   11   27 1
    29   11   28 1
    30   12   29 1
    31   12   30 1
    32   12   31 1
    33   13   32 1
    34   14   33 1
    35   17   34 1
    36   17   35 1
    37   18   36 1
    38   18   37 1
    39   20   38 1
    40   20   39 1
    41   20   40 1
    42   21   41 1
    43   22   42 1
    44   22   43 1
    45   22   44 1
    46   23   45 1
    47   23   46 1
    48   23   47 1
@<TRIPOS>PROPERTY_DATA
  Total_Score	| 7.5083
  Crash		| -0.8824
  Polar		| 1.2044
  FragIndex	| 1
  FragRMSD	| 0.497

