@<TRIPOS>MOLECULE
BindingDB_50197314
 50 51 0 0 0
SMALL
NO_CHARGES


@<TRIPOS>ATOM
1    N        58.9539   29.1966   27.0036  N     
2    C        58.8506   28.2648   27.9997  C     
3    N        58.6060   26.9660   27.6724  N     
4    C        58.8214   28.8913   25.6827  C     
5    N        58.2522   25.4024   25.7953  N     
6    C        58.2423   25.6263   24.4603  C     
7    N        58.4492   26.9260   24.1748  N     
8    C        58.5873   27.5449   25.3567  C     
9    C        58.4761   26.5993   26.3727  C     
10   C        58.0418   24.1192   26.4249  C     
11   C        59.3271   23.5711   27.0988  C     
12   C        56.8498   24.1732   27.4126  C     
13   N        58.9429   29.7961   24.6872  N     
14   N        59.0142   28.5433   29.3141  N     
15   C        59.3244   29.7033   29.8864  C     
16   O        59.5068   30.7241   29.2352  O     
17   C        59.2030   31.1927   24.8240  C     
18   C        60.6469   31.5375   25.2850  C     
19   O        61.6825   30.7840   24.6126  O     
20   C        62.1049   31.2976   23.3361  C     
21   C        59.4842   29.7680   31.3347  C     
22   C        60.9506   29.6010   31.8460  C     
23   C        61.5629   28.2321   31.4427  C     
24   C        61.8787   30.7812   31.4511  C     
25   H        58.0949   24.9120   23.7434  H     
26   H        57.7696   23.3875   25.6578  H     
27   H        60.1500   23.5734   26.3819  H     
28   H        59.1667   22.5404   27.4299  H     
29   H        59.6058   24.1820   27.9621  H     
30   H        57.0460   24.8770   28.2228  H     
31   H        56.6653   23.1876   27.8447  H     
32   H        55.9462   24.4896   26.8884  H     
33   H        58.8980   29.4629   23.7801  H     
34   H        58.9320   27.7846   29.9155  H     
35   H        59.0458   31.6418   23.8459  H     
36   H        58.4966   31.6499   25.5027  H     
37   H        60.8219   32.6229   25.1528  H     
38   H        60.7324   31.3262   26.3671  H     
39   H        61.3057   31.1924   22.6013  H     
40   H        62.9637   30.7130   23.0139  H     
41   H        62.4037   32.3455   23.4182  H     
42   H        59.0800   30.7244   31.6913  H     
43   H        58.8636   28.9911   31.8005  H     
44   H        60.8873   29.6117   32.9381  H     
45   H        60.9592   27.4179   31.8473  H     
46   H        62.5710   28.1397   31.8411  H     
47   H        61.6103   28.1311   30.3573  H     
48   H        62.1032   30.7619   30.3841  H     
49   H        62.8158   30.7159   32.0038  H     
50   H        61.4091   31.7357   31.6942  H     
@<TRIPOS>BOND
     1    1    2 2
     2    1    4 1
     3    2    3 1
     4    2   14 1
     5    3    9 2
     6    4    8 2
     7    4   13 1
     8    5    6 1
     9    5    9 1
    10    5   10 1
    11    6    7 2
    12    7    8 1
    13    8    9 1
    14   10   11 1
    15   10   12 1
    16   13   17 1
    17   14   15 am
    18   15   16 2
    19   15   21 1
    20   17   18 1
    21   18   19 1
    22   19   20 1
    23   21   22 1
    24   22   23 1
    25   22   24 1
    26    6   25 1
    27   10   26 1
    28   11   27 1
    29   11   28 1
    30   11   29 1
    31   12   30 1
    32   12   31 1
    33   12   32 1
    34   13   33 1
    35   14   34 1
    36   17   35 1
    37   17   36 1
    38   18   37 1
    39   18   38 1
    40   20   39 1
    41   20   40 1
    42   20   41 1
    43   21   42 1
    44   21   43 1
    45   22   44 1
    46   23   45 1
    47   23   46 1
    48   23   47 1
    49   24   48 1
    50   24   49 1
    51   24   50 1
@<TRIPOS>PROPERTY_DATA
  Total_Score	| 7.1029
  Crash		| -1.1152
  Polar		| 1.3642
  FragIndex	| 1
  FragRMSD	| 0.565

