@<TRIPOS>MOLECULE
BindingDB_50197322
 50 52 0 0 0
SMALL
NO_CHARGES


@<TRIPOS>ATOM
1    N        59.0773   29.3051   26.9767  N     
2    C        59.0841   28.4526   28.0460  C     
3    N        58.7659   27.1462   27.8479  N     
4    C        58.7744   28.9091   25.7093  C     
5    N        58.1608   25.4534   26.1710  N     
6    C        58.0078   25.5620   24.8286  C     
7    N        58.1882   26.8321   24.4170  N     
8    C        58.4705   27.5496   25.5132  C     
9    C        58.4629   26.6895   26.6088  C     
10   C        58.0520   24.2606   26.9784  C     
11   C        56.6541   23.6054   26.8380  C     
12   C        59.1906   23.2606   26.6583  C     
13   N        58.7637   29.7637   24.6598  N     
14   C        59.0107   31.1706   24.6984  C     
15   C        60.4551   31.5373   24.6769  C     
16   C        61.3505   30.8990   23.7875  C     
17   C        62.6946   31.3074   23.6989  C     
18   C        63.1677   32.3576   24.5068  C     
19   C        62.2891   33.0031   25.3943  C     
20   C        60.9434   32.5924   25.4809  C     
21   N        59.4390   28.8157   29.3006  N     
22   Cl       64.7846   32.8468   24.3918  Cl    
23   C        59.8417   30.0003   29.7335  C     
24   C        60.3051   30.1484   31.1014  C     
25   O        59.8938   30.9848   28.9985  O     
26   C        61.7138   29.5316   31.3323  C     
27   C        61.7516   27.9907   31.1943  C     
28   H        57.7986   24.7859   24.1951  H     
29   H        58.1628   24.5237   28.0364  H     
30   H        55.8769   24.3228   27.1141  H     
31   H        56.5718   22.7389   27.4989  H     
32   H        56.4795   23.2803   25.8111  H     
33   H        59.1351   22.9224   25.6237  H     
34   H        59.1279   22.3907   27.3135  H     
35   H        60.1580   23.7382   26.8173  H     
36   H        58.5423   29.3932   23.7914  H     
37   H        58.5580   31.5866   23.7979  H     
38   H        58.4859   31.6140   25.5496  H     
39   H        61.0296   30.1388   23.1849  H     
40   H        63.3277   30.8323   23.0495  H     
41   H        62.6209   33.7708   25.9820  H     
42   H        60.3167   33.0935   26.1139  H     
43   H        59.4288   28.0989   29.9582  H     
44   H        60.3468   31.2092   31.3658  H     
45   H        59.5869   29.6846   31.7870  H     
46   H        62.4233   29.9692   30.6215  H     
47   H        62.0485   29.7964   32.3408  H     
48   H        60.9975   27.5313   31.8408  H     
49   H        62.7331   27.6095   31.4861  H     
50   H        61.5592   27.7034   30.1563  H     
@<TRIPOS>BOND
     1    1    2 2
     2    1    4 1
     3    2    3 1
     4    2   21 1
     5    3    9 2
     6    4    8 2
     7    4   13 1
     8    5    6 1
     9    5    9 1
    10    5   10 1
    11    6    7 2
    12    7    8 1
    13    8    9 1
    14   10   11 1
    15   10   12 1
    16   13   14 1
    17   14   15 1
    18   15   16 2
    19   15   20 1
    20   16   17 1
    21   17   18 2
    22   18   19 1
    23   18   22 1
    24   19   20 2
    25   21   23 am
    26   23   24 1
    27   23   25 2
    28   24   26 1
    29   26   27 1
    30    6   28 1
    31   10   29 1
    32   11   30 1
    33   11   31 1
    34   11   32 1
    35   12   33 1
    36   12   34 1
    37   12   35 1
    38   13   36 1
    39   14   37 1
    40   14   38 1
    41   16   39 1
    42   17   40 1
    43   19   41 1
    44   20   42 1
    45   21   43 1
    46   24   44 1
    47   24   45 1
    48   26   46 1
    49   26   47 1
    50   27   48 1
    51   27   49 1
    52   27   50 1
@<TRIPOS>PROPERTY_DATA
  Total_Score	| 7.6897
  Crash		| -1.2813
  Polar		| 0.6244
  FragIndex	| 1
  FragRMSD	| 0.240

