@<TRIPOS>MOLECULE
BindingDB_50197305
 50 52 0 0 0
SMALL
NO_CHARGES


@<TRIPOS>ATOM
1    N        59.2891   29.2991   26.9149  N     
2    C        59.3212   28.4542   27.9842  C     
3    N        58.9218   27.1634   27.8156  N     
4    C        58.8727   28.9067   25.6734  C     
5    N        58.1323   25.4925   26.1888  N     
6    C        57.8960   25.5993   24.8585  C     
7    N        58.1201   26.8577   24.4304  N     
8    C        58.5119   27.5575   25.5028  C     
9    C        58.5201   26.7138   26.6035  C     
10   C        58.0368   24.3025   27.0029  C     
11   C        56.6433   23.6336   26.8821  C     
12   C        59.1836   23.3137   26.6609  C     
13   N        58.7734   29.7496   24.6232  N     
14   C        59.0108   31.1615   24.6446  C     
15   C        60.4495   31.5278   24.6397  C     
16   C        61.3572   30.8782   23.7702  C     
17   C        62.6973   31.2901   23.6997  C     
18   C        63.1472   32.3657   24.4901  C     
19   C        62.2516   33.0237   25.3576  C     
20   C        60.9138   32.6028   25.4335  C     
21   N        59.8113   28.9304   29.1539  N     
22   Cl       64.7446   32.9104   24.3643  Cl    
23   C        59.8513   28.3120   30.3290  C     
24   C        60.5545   28.9031   31.4665  C     
25   O        59.2988   27.2316   30.4936  O     
26   C        62.0809   28.6412   31.3834  C     
27   C        60.2397   30.4134   31.6274  C     
28   H        57.5879   24.8367   24.2488  H     
29   H        58.1612   24.5673   28.0635  H     
30   H        55.8616   24.3546   27.1358  H     
31   H        56.5613   22.7845   27.5655  H     
32   H        56.4730   23.2803   25.8663  H     
33   H        59.1021   22.9725   25.6319  H     
34   H        59.1530   22.4468   27.3248  H     
35   H        60.1475   23.8076   26.7897  H     
36   H        58.4602   29.3782   23.7848  H     
37   H        58.5686   31.5747   23.7335  H     
38   H        58.4846   31.6093   25.4970  H     
39   H        61.0485   30.1069   23.1797  H     
40   H        63.3377   30.8159   23.0587  H     
41   H        62.5615   33.8170   25.9222  H     
42   H        60.2723   33.1138   26.0434  H     
43   H        60.1895   29.8253   29.1165  H     
44   H        60.2094   28.4164   32.3884  H     
45   H        62.2849   27.5671   31.3797  H     
46   H        62.5828   29.0766   32.2522  H     
47   H        62.5084   29.0820   30.4824  H     
48   H        60.6680   30.9910   30.8070  H     
49   H        60.6588   30.7820   32.5696  H     
50   H        59.1590   30.5776   31.6518  H     
@<TRIPOS>BOND
     1    1    2 2
     2    1    4 1
     3    2    3 1
     4    2   21 1
     5    3    9 2
     6    4    8 2
     7    4   13 1
     8    5    6 1
     9    5    9 1
    10    5   10 1
    11    6    7 2
    12    7    8 1
    13    8    9 1
    14   10   11 1
    15   10   12 1
    16   13   14 1
    17   14   15 1
    18   15   16 2
    19   15   20 1
    20   16   17 1
    21   17   18 2
    22   18   19 1
    23   18   22 1
    24   19   20 2
    25   21   23 am
    26   23   24 1
    27   23   25 2
    28   24   26 1
    29   24   27 1
    30    6   28 1
    31   10   29 1
    32   11   30 1
    33   11   31 1
    34   11   32 1
    35   12   33 1
    36   12   34 1
    37   12   35 1
    38   13   36 1
    39   14   37 1
    40   14   38 1
    41   16   39 1
    42   17   40 1
    43   19   41 1
    44   20   42 1
    45   21   43 1
    46   24   44 1
    47   26   45 1
    48   26   46 1
    49   26   47 1
    50   27   48 1
    51   27   49 1
    52   27   50 1
@<TRIPOS>PROPERTY_DATA
  Total_Score	| 8.0547
  Crash		| -1.1554
  Polar		| 0.5385
  FragIndex	| 1
  FragRMSD	| 0.601

