@<TRIPOS>MOLECULE
BindingDB_50197308
 50 52 0 0 0
SMALL
NO_CHARGES


@<TRIPOS>ATOM
1    C        58.9375   31.1048   24.6570  C     
2    C        60.3698   31.4974   24.6279  C     
3    C        60.8455   32.5990   25.3750  C     
4    C        62.1924   33.0007   25.2845  C     
5    C        63.0910   32.2954   24.4680  C     
6    C        62.6349   31.1783   23.7408  C     
7    C        61.2877   30.7821   23.8270  C     
8    Cl       64.7107   32.7776   24.3618  Cl    
9    N        59.2467   29.2158   26.8417  N     
10   C        59.3455   28.3793   27.9128  C     
11   N        58.9774   27.0740   27.7507  N     
12   C        58.8167   28.8249   25.6075  C     
13   N        58.1352   25.3954   26.1408  N     
14   C        57.8592   25.5094   24.8201  C     
15   N        58.0529   26.7678   24.3900  N     
16   C        58.4646   27.4733   25.4523  C     
17   C        58.5356   26.6166   26.5502  C     
18   C        58.0321   24.2050   26.9556  C     
19   C        56.6338   23.5441   26.8252  C     
20   C        59.1683   23.2020   26.6350  C     
21   N        58.7284   29.6909   24.5765  N     
22   C        59.8484   28.8425   29.1163  C     
23   N        59.9499   28.0230   30.1566  N     
24   O        60.2257   30.0059   29.1980  O     
25   C        60.5293   28.2918   31.4416  C     
26   C        61.9439   28.9219   31.3118  C     
27   C        59.5919   29.1282   32.3523  C     
28   H        58.4191   31.4830   25.5454  H     
29   H        58.4444   31.5549   23.7933  H     
30   H        60.2103   33.1294   25.9752  H     
31   H        62.5161   33.8063   25.8290  H     
32   H        63.2823   30.6425   23.1585  H     
33   H        60.9839   29.9632   23.2921  H     
34   H        57.5366   24.7509   24.2091  H     
35   H        58.1497   24.4800   28.0121  H     
36   H        55.8559   24.2607   27.1006  H     
37   H        56.5606   22.6823   27.4938  H     
38   H        56.4502   23.2077   25.8018  H     
39   H        59.0925   22.8376   25.6093  H     
40   H        59.1217   22.3513   27.3184  H     
41   H        60.1360   23.6883   26.7608  H     
42   H        58.4928   29.3332   23.7064  H     
43   H        59.6010   27.1261   30.0358  H     
44   H        60.6575   27.3196   31.9252  H     
45   H        62.5819   28.2836   30.6955  H     
46   H        62.4040   29.0255   32.2957  H     
47   H        61.9000   29.9123   30.8525  H     
48   H        59.5032   30.1564   31.9875  H     
49   H        59.9810   29.1539   33.3755  H     
50   H        58.5950   28.6781   32.3756  H     
@<TRIPOS>BOND
     1    1    2 1
     2    1   21 1
     3    2    3 2
     4    2    7 1
     5    3    4 1
     6    4    5 2
     7    5    6 1
     8    5    8 1
     9    6    7 2
    10    9   10 2
    11    9   12 1
    12   10   11 1
    13   10   22 1
    14   11   17 2
    15   12   16 2
    16   12   21 1
    17   13   14 1
    18   13   17 1
    19   13   18 1
    20   14   15 2
    21   15   16 1
    22   16   17 1
    23   18   19 1
    24   18   20 1
    25   22   23 am
    26   22   24 2
    27   23   25 1
    28   25   26 1
    29   25   27 1
    30    1   28 1
    31    1   29 1
    32    3   30 1
    33    4   31 1
    34    6   32 1
    35    7   33 1
    36   14   34 1
    37   18   35 1
    38   19   36 1
    39   19   37 1
    40   19   38 1
    41   20   39 1
    42   20   40 1
    43   20   41 1
    44   21   42 1
    45   23   43 1
    46   25   44 1
    47   26   45 1
    48   26   46 1
    49   26   47 1
    50   27   48 1
    51   27   49 1
    52   27   50 1
@<TRIPOS>PROPERTY_DATA
  Total_Score	| 8.2794
  Crash		| -1.3669
  Polar		| 0.5893
  FragIndex	| 1
  FragRMSD	| 0.264

