@<TRIPOS>MOLECULE
BindingDB_50197319
 57 59 0 0 0
SMALL
NO_CHARGES


@<TRIPOS>ATOM
1    N        58.8440   29.3571   26.9741  N     
2    C        58.8129   28.5054   28.0334  C     
3    N        58.6002   27.1731   27.8060  N     
4    C        58.6796   28.9441   25.6846  C     
5    N        58.1984   25.4594   26.0992  N     
6    C        58.1246   25.5689   24.7507  C     
7    N        58.2834   26.8450   24.3461  N     
8    C        58.4737   27.5703   25.4610  C     
9    C        58.4294   26.7035   26.5438  C     
10   C        58.0457   24.2606   26.8970  C     
11   C        56.6393   23.6287   26.7235  C     
12   C        59.1589   23.2264   26.5916  C     
13   N        58.6965   29.7868   24.6244  N     
14   C        58.9654   31.1830   24.6605  C     
15   C        60.4123   31.5209   24.7056  C     
16   C        61.3409   30.8463   23.8847  C     
17   C        62.6721   31.3047   23.7699  C     
18   C        63.0909   32.4503   24.4744  C     
19   C        62.1702   33.1337   25.2881  C     
20   C        60.8437   32.6600   25.4216  C     
21   O        64.3749   32.8981   24.2762  O     
22   C        65.0818   33.2657   25.4772  C     
23   N        58.9870   29.0110   29.2798  N     
24   C        58.9679   28.3539   30.4301  C     
25   C        59.1840   29.0540   31.6879  C     
26   O        58.7813   27.1433   30.4862  O     
27   C        60.6458   29.5443   31.9498  C     
28   C        61.7322   28.5216   31.5123  C     
29   C        60.9342   30.9533   31.3661  C     
30   H        57.9569   24.7921   24.1047  H     
31   H        58.1437   24.5225   27.9567  H     
32   H        55.8664   24.3525   26.9928  H     
33   H        56.5355   22.7531   27.3708  H     
34   H        56.4792   23.3170   25.6879  H     
35   H        59.0799   22.8635   25.5639  H     
36   H        59.0787   22.3758   27.2725  H     
37   H        60.1406   23.6833   26.7255  H     
38   H        58.5207   29.4042   23.7522  H     
39   H        58.5755   31.5929   23.7274  H     
40   H        58.4130   31.6594   25.4696  H     
41   H        61.0593   30.0256   23.3412  H     
42   H        63.3197   30.8153   23.1444  H     
43   H        62.4354   33.9972   25.7612  H     
44   H        60.1948   33.1869   26.0058  H     
45   H        64.7646   34.2567   25.8210  H     
46   H        66.1495   33.3269   25.2441  H     
47   H        64.9338   32.5345   26.2814  H     
48   H        59.1357   29.9748   29.3299  H     
49   H        58.4818   29.8941   31.7323  H     
50   H        58.9096   28.3934   32.5183  H     
51   H        60.7380   29.6535   33.0369  H     
52   H        61.5043   27.5278   31.9012  H     
53   H        62.7024   28.8288   31.9015  H     
54   H        61.8007   28.4620   30.4254  H     
55   H        60.9085   30.9435   30.2762  H     
56   H        61.9209   31.2962   31.6828  H     
57   H        60.1958   31.6717   31.7292  H     
@<TRIPOS>BOND
     1    1    2 2
     2    1    4 1
     3    2    3 1
     4    2   23 1
     5    3    9 2
     6    4    8 2
     7    4   13 1
     8    5    6 1
     9    5    9 1
    10    5   10 1
    11    6    7 2
    12    7    8 1
    13    8    9 1
    14   10   11 1
    15   10   12 1
    16   13   14 1
    17   14   15 1
    18   15   16 2
    19   15   20 1
    20   16   17 1
    21   17   18 2
    22   18   19 1
    23   18   21 1
    24   19   20 2
    25   21   22 1
    26   23   24 am
    27   24   25 1
    28   24   26 2
    29   25   27 1
    30   27   28 1
    31   27   29 1
    32    6   30 1
    33   10   31 1
    34   11   32 1
    35   11   33 1
    36   11   34 1
    37   12   35 1
    38   12   36 1
    39   12   37 1
    40   13   38 1
    41   14   39 1
    42   14   40 1
    43   16   41 1
    44   17   42 1
    45   19   43 1
    46   20   44 1
    47   22   45 1
    48   22   46 1
    49   22   47 1
    50   23   48 1
    51   25   49 1
    52   25   50 1
    53   27   51 1
    54   28   52 1
    55   28   53 1
    56   28   54 1
    57   29   55 1
    58   29   56 1
    59   29   57 1
@<TRIPOS>PROPERTY_DATA
  Total_Score	| 7.5980
  Crash		| -1.3314
  Polar		| 0.7576
  FragIndex	| 1
  FragRMSD	| 0.630

