@<TRIPOS>MOLECULE
BindingDB_50197316
 53 55 0 0 0
SMALL
NO_CHARGES


@<TRIPOS>ATOM
1    N        59.0782   29.0684   26.8681  N     
2    C        59.0445   28.1376   27.8640  C     
3    N        58.7212   26.8531   27.5683  N     
4    C        58.8000   28.7663   25.5646  C     
5    N        58.1197   25.3002   25.7512  N     
6    C        57.9665   25.5245   24.4277  C     
7    N        58.1856   26.8155   24.1133  N     
8    C        58.4910   27.4303   25.2653  C     
9    C        58.4511   26.4862   26.2883  C     
10   C        57.9390   24.0199   26.4102  C     
11   C        59.2657   23.4826   27.0019  C     
12   C        56.8132   24.0655   27.4756  C     
13   N        58.7849   29.6989   24.5867  N     
14   N        59.3170   28.4091   29.1593  N     
15   C        59.7614   29.5328   29.7051  C     
16   C        59.9430   29.5714   31.1453  C     
17   O        59.9898   30.5449   29.0430  O     
18   C        60.7272   28.4417   31.6262  C     
19   C        62.1641   28.3816   31.4554  C     
20   O        60.1467   27.4886   32.1269  O     
21   C        59.0295   31.1033   24.7419  C     
22   C        60.4650   31.5044   24.6826  C     
23   C        60.9163   32.6460   25.3847  C     
24   C        62.2371   33.1112   25.2355  C     
25   C        63.1323   32.4519   24.3736  C     
26   C        62.6999   31.3032   23.6813  C     
27   C        61.3785   30.8423   23.8266  C     
28   O        64.4261   32.8953   24.2808  O     
29   C        64.7092   33.6613   23.0961  C     
30   H        57.6989   24.8146   23.7385  H     
31   H        57.6170   23.2829   25.6662  H     
32   H        60.0250   23.4184   26.2211  H     
33   H        59.1149   22.4808   27.4114  H     
34   H        59.6321   24.1345   27.7973  H     
35   H        57.0890   24.7095   28.3123  H     
36   H        56.6224   23.0612   27.8609  H     
37   H        55.8894   24.4435   27.0330  H     
38   H        58.5551   29.4054   23.6890  H     
39   H        59.1962   27.6663   29.7753  H     
40   H        60.4319   30.4974   31.4643  H     
41   H        58.9429   29.5683   31.5974  H     
42   H        62.4242   28.5479   30.4104  H     
43   H        62.5596   27.4095   31.7546  H     
44   H        62.6321   29.1556   32.0648  H     
45   H        58.5286   31.6068   23.9106  H     
46   H        58.5476   31.4575   25.6590  H     
47   H        60.2788   33.1610   25.9934  H     
48   H        62.5412   33.9428   25.7488  H     
49   H        63.3445   30.8121   23.0608  H     
50   H        61.0868   30.0222   23.2936  H     
51   H        64.6312   33.0425   22.1988  H     
52   H        65.7326   34.0287   23.1671  H     
53   H        64.0433   34.5235   23.0039  H     
@<TRIPOS>BOND
     1    1    2 2
     2    1    4 1
     3    2    3 1
     4    2   14 1
     5    3    9 2
     6    4    8 2
     7    4   13 1
     8    5    6 1
     9    5    9 1
    10    5   10 1
    11    6    7 2
    12    7    8 1
    13    8    9 1
    14   10   11 1
    15   10   12 1
    16   13   21 1
    17   14   15 am
    18   15   16 1
    19   15   17 2
    20   16   18 1
    21   18   19 1
    22   18   20 2
    23   21   22 1
    24   22   23 2
    25   22   27 1
    26   23   24 1
    27   24   25 2
    28   25   26 1
    29   25   28 1
    30   26   27 2
    31   28   29 1
    32    6   30 1
    33   10   31 1
    34   11   32 1
    35   11   33 1
    36   11   34 1
    37   12   35 1
    38   12   36 1
    39   12   37 1
    40   13   38 1
    41   14   39 1
    42   16   40 1
    43   16   41 1
    44   19   42 1
    45   19   43 1
    46   19   44 1
    47   21   45 1
    48   21   46 1
    49   23   47 1
    50   24   48 1
    51   26   49 1
    52   27   50 1
    53   29   51 1
    54   29   52 1
    55   29   53 1
@<TRIPOS>PROPERTY_DATA
  Total_Score	| 7.8921
  Crash		| -1.4697
  Polar		| 1.1629
  FragIndex	| 1
  FragRMSD	| 0.546

