@<TRIPOS>MOLECULE
BindingDB_50197310
 54 56 0 0 0
SMALL
NO_CHARGES


@<TRIPOS>ATOM
1    N        58.9256   29.3112   27.0075  N     
2    C        58.8340   28.4464   28.0583  C     
3    N        58.6180   27.1265   27.7984  N     
4    C        58.8071   28.9144   25.7057  C     
5    N        58.2533   25.4402   26.0597  N     
6    C        58.2039   25.5637   24.7111  C     
7    N        58.4084   26.8383   24.3267  N     
8    C        58.5858   27.5483   25.4528  C     
9    C        58.4919   26.6760   26.5292  C     
10   C        58.0809   24.2557   26.8678  C     
11   C        56.6610   23.6574   26.7156  C     
12   C        59.2048   23.2240   26.6065  C     
13   N        58.8847   29.7709   24.6605  N     
14   C        59.0700   31.1884   24.7020  C     
15   C        60.4928   31.6156   24.5982  C     
16   C        61.3850   30.9642   23.7138  C     
17   C        62.7074   31.4172   23.5517  C     
18   C        63.1633   32.5405   24.2695  C     
19   C        62.2710   33.2325   25.1102  C     
20   C        60.9542   32.7652   25.2869  C     
21   O        64.4466   32.9943   24.1159  O     
22   C        65.3740   32.3357   24.9961  C     
23   N        58.9710   28.9181   29.3229  N     
24   C        58.9193   28.2351   30.4666  C     
25   C        59.1899   28.8926   31.7367  C     
26   O        58.6736   27.0337   30.4919  O     
27   C        60.6277   29.4618   31.8808  C     
28   C        61.7596   28.5067   31.4309  C     
29   H        58.0237   24.8007   24.0556  H     
30   H        58.1718   24.5253   27.9226  H     
31   H        55.9122   24.4075   26.9767  H     
32   H        56.5336   22.8036   27.3827  H     
33   H        56.4801   23.3284   25.6916  H     
34   H        59.1620   22.8433   25.5860  H     
35   H        59.1182   22.3848   27.2971  H     
36   H        60.1778   23.6899   26.7617  H     
37   H        58.8089   29.3887   23.7707  H     
38   H        58.5490   31.5971   23.8322  H     
39   H        58.5875   31.6109   25.5858  H     
40   H        61.0771   30.1554   23.1693  H     
41   H        63.3342   30.9313   22.9054  H     
42   H        62.5797   34.0856   25.5893  H     
43   H        60.3265   33.2939   25.8978  H     
44   H        65.0753   32.4314   26.0442  H     
45   H        66.3507   32.8046   24.8782  H     
46   H        65.4714   31.2784   24.7394  H     
47   H        59.1475   29.8655   29.4014  H     
48   H        58.4740   29.7101   31.8655  H     
49   H        59.0242   28.1917   32.5657  H     
50   H        60.7075   30.3920   31.3104  H     
51   H        60.7880   29.7089   32.9342  H     
52   H        61.6497   27.5273   31.8990  H     
53   H        62.7205   28.9283   31.7211  H     
54   H        61.7478   28.3860   30.3464  H     
@<TRIPOS>BOND
     1    1    2 2
     2    1    4 1
     3    2    3 1
     4    2   23 1
     5    3    9 2
     6    4    8 2
     7    4   13 1
     8    5    6 1
     9    5    9 1
    10    5   10 1
    11    6    7 2
    12    7    8 1
    13    8    9 1
    14   10   11 1
    15   10   12 1
    16   13   14 1
    17   14   15 1
    18   15   16 2
    19   15   20 1
    20   16   17 1
    21   17   18 2
    22   18   19 1
    23   18   21 1
    24   19   20 2
    25   21   22 1
    26   23   24 am
    27   24   25 1
    28   24   26 2
    29   25   27 1
    30   27   28 1
    31    6   29 1
    32   10   30 1
    33   11   31 1
    34   11   32 1
    35   11   33 1
    36   12   34 1
    37   12   35 1
    38   12   36 1
    39   13   37 1
    40   14   38 1
    41   14   39 1
    42   16   40 1
    43   17   41 1
    44   19   42 1
    45   20   43 1
    46   22   44 1
    47   22   45 1
    48   22   46 1
    49   23   47 1
    50   25   48 1
    51   25   49 1
    52   27   50 1
    53   27   51 1
    54   28   52 1
    55   28   53 1
    56   28   54 1
@<TRIPOS>PROPERTY_DATA
  Total_Score	| 7.7084
  Crash		| -1.1656
  Polar		| 0.9479
  FragIndex	| 1
  FragRMSD	| 0.661

