@<TRIPOS>MOLECULE
BindingDB_50197315
 47 48 0 0 0
SMALL
NO_CHARGES


@<TRIPOS>ATOM
1    N        59.1182   29.2840   27.0066  N     
2    C        59.0558   28.4296   28.0706  C     
3    N        58.7308   27.1294   27.8418  N     
4    C        58.8887   28.9087   25.7183  C     
5    N        58.2137   25.4611   26.1135  N     
6    C        58.1230   25.5815   24.7685  C     
7    N        58.3363   26.8516   24.3751  N     
8    C        58.5742   27.5559   25.4920  C     
9    C        58.4970   26.6915   26.5797  C     
10   C        58.0572   24.2674   26.9122  C     
11   C        56.6438   23.6534   26.7365  C     
12   C        59.1884   23.2463   26.6259  C     
13   N        58.9817   29.7957   24.6975  N     
14   N        59.3692   28.7866   29.3414  N     
15   C        59.8596   29.9521   29.7549  C     
16   O        60.0535   30.8830   28.9824  O     
17   C        59.2387   31.1990   24.7998  C     
18   C        60.6645   31.5370   25.3022  C     
19   O        61.7101   30.8058   24.6368  O     
20   C        62.0854   31.2727   23.3290  C     
21   C        60.3000   30.1190   31.1322  C     
22   C        61.2028   28.9840   31.6963  C     
23   C        62.1696   28.3470   30.6738  C     
24   H        57.9229   24.8126   24.1210  H     
25   H        58.1458   24.5278   27.9741  H     
26   H        55.8833   24.3990   26.9776  H     
27   H        56.5129   22.8006   27.4055  H     
28   H        56.4900   23.3197   25.7107  H     
29   H        59.1424   22.8881   25.5986  H     
30   H        59.1087   22.3925   27.2994  H     
31   H        60.1598   23.7155   26.7852  H     
32   H        58.8264   29.4609   23.7975  H     
33   H        59.2792   28.0895   30.0128  H     
34   H        59.1027   31.6437   23.8124  H     
35   H        58.4966   31.6569   25.4609  H     
36   H        60.8326   32.6138   25.2146  H     
37   H        60.7341   31.2965   26.3609  H     
38   H        61.2654   31.1623   22.6165  H     
39   H        62.9257   30.6727   22.9835  H     
40   H        62.4012   32.3170   23.3612  H     
41   H        60.8501   31.0618   31.2349  H     
42   H        59.4138   30.2056   31.7664  H     
43   H        61.7993   29.4020   32.5123  H     
44   H        60.5746   28.1961   32.1237  H     
45   H        61.6066   27.8189   29.9031  H     
46   H        62.8132   27.6244   31.1788  H     
47   H        62.7841   29.1161   30.2023  H     
@<TRIPOS>BOND
     1    1    2 2
     2    1    4 1
     3    2    3 1
     4    2   14 1
     5    3    9 2
     6    4    8 2
     7    4   13 1
     8    5    6 1
     9    5    9 1
    10    5   10 1
    11    6    7 2
    12    7    8 1
    13    8    9 1
    14   10   11 1
    15   10   12 1
    16   13   17 1
    17   14   15 am
    18   15   16 2
    19   15   21 1
    20   17   18 1
    21   18   19 1
    22   19   20 1
    23   21   22 1
    24   22   23 1
    25    6   24 1
    26   10   25 1
    27   11   26 1
    28   11   27 1
    29   11   28 1
    30   12   29 1
    31   12   30 1
    32   12   31 1
    33   13   32 1
    34   14   33 1
    35   17   34 1
    36   17   35 1
    37   18   36 1
    38   18   37 1
    39   20   38 1
    40   20   39 1
    41   20   40 1
    42   21   41 1
    43   21   42 1
    44   22   43 1
    45   22   44 1
    46   23   45 1
    47   23   46 1
    48   23   47 1
@<TRIPOS>PROPERTY_DATA
  Total_Score	| 7.4518
  Crash		| -1.2602
  Polar		| 0.9162
  FragIndex	| 1
  FragRMSD	| 0.346

