@<TRIPOS>MOLECULE
BindingDB_50197312
 53 55 0 0 0
SMALL
NO_CHARGES


@<TRIPOS>ATOM
1    N        58.8267   29.3855   26.9334  N     
2    C        58.7185   28.5383   27.9956  C     
3    N        58.5262   27.2108   27.7549  N     
4    C        58.7443   28.9631   25.6336  C     
5    N        58.2436   25.4861   26.0354  N     
6    C        58.2211   25.5861   24.6846  C     
7    N        58.4102   26.8602   24.2842  N     
8    C        58.5468   27.5886   25.4040  C     
9    C        58.4416   26.7344   26.4935  C     
10   C        58.0742   24.3043   26.8439  C     
11   C        56.6545   23.7054   26.6730  C     
12   C        59.1770   23.2486   26.5691  C     
13   N        58.8273   29.8018   24.5790  N     
14   C        59.0448   31.2108   24.6137  C     
15   C        60.4941   31.5551   24.6022  C     
16   C        61.0153   32.5257   25.4873  C     
17   C        62.3739   32.8992   25.4317  C     
18   C        63.2359   32.2991   24.4932  C     
19   C        62.7326   31.3258   23.6138  C     
20   C        61.3737   30.9616   23.6650  C     
21   N        58.7927   29.0415   29.2518  N     
22   Cl       64.8644   32.7475   24.4145  Cl    
23   C        58.6704   28.3733   30.3952  C     
24   C        58.7745   29.0672   31.6674  C     
25   O        58.4712   27.1593   30.4244  O     
26   C        60.1859   29.6678   31.9785  C     
27   C        60.2196   30.2228   33.4281  C     
28   C        61.3505   28.6622   31.7295  C     
29   H        58.0704   24.8084   24.0422  H     
30   H        58.1682   24.5697   27.9059  H     
31   H        55.9045   24.4624   26.9038  H     
32   H        56.5086   22.8600   27.3466  H     
33   H        56.4998   23.3650   25.6485  H     
34   H        59.1103   22.8713   25.5488  H     
35   H        59.0843   22.4086   27.2579  H     
36   H        60.1604   23.6951   26.7061  H     
37   H        58.7698   29.4129   23.6949  H     
38   H        58.5996   31.6213   23.7085  H     
39   H        58.5115   31.6660   25.4582  H     
40   H        60.4050   32.9846   26.1689  H     
41   H        62.7248   33.6150   26.0698  H     
42   H        63.3502   30.8802   22.9287  H     
43   H        61.0335   30.2548   23.0086  H     
44   H        58.9447   29.9949   29.3217  H     
45   H        58.0284   29.8679   31.6742  H     
46   H        58.5027   28.3786   32.4763  H     
47   H        60.3408   30.5168   31.3061  H     
48   H        59.4643   31.0048   33.5545  H     
49   H        61.1961   30.6584   33.6522  H     
50   H        60.0187   29.4310   34.1575  H     
51   H        61.1546   27.7086   32.2204  H     
52   H        62.2970   29.0615   32.1026  H     
53   H        61.4725   28.4808   30.6606  H     
@<TRIPOS>BOND
     1    1    2 2
     2    1    4 1
     3    2    3 1
     4    2   21 1
     5    3    9 2
     6    4    8 2
     7    4   13 1
     8    5    6 1
     9    5    9 1
    10    5   10 1
    11    6    7 2
    12    7    8 1
    13    8    9 1
    14   10   11 1
    15   10   12 1
    16   13   14 1
    17   14   15 1
    18   15   16 2
    19   15   20 1
    20   16   17 1
    21   17   18 2
    22   18   19 1
    23   18   22 1
    24   19   20 2
    25   21   23 am
    26   23   24 1
    27   23   25 2
    28   24   26 1
    29   26   27 1
    30   26   28 1
    31    6   29 1
    32   10   30 1
    33   11   31 1
    34   11   32 1
    35   11   33 1
    36   12   34 1
    37   12   35 1
    38   12   36 1
    39   13   37 1
    40   14   38 1
    41   14   39 1
    42   16   40 1
    43   17   41 1
    44   19   42 1
    45   20   43 1
    46   21   44 1
    47   24   45 1
    48   24   46 1
    49   26   47 1
    50   27   48 1
    51   27   49 1
    52   27   50 1
    53   28   51 1
    54   28   52 1
    55   28   53 1
@<TRIPOS>PROPERTY_DATA
  Total_Score	| 7.5295
  Crash		| -1.1690
  Polar		| 1.0089
  FragIndex	| 1
  FragRMSD	| 0.748

