@<TRIPOS>MOLECULE
BindingDB_50197321
 59 62 0 0 0
SMALL
NO_CHARGES


@<TRIPOS>ATOM
1    N        59.1620   29.2655   26.9614  N     
2    C        59.1964   28.4231   28.0367  C     
3    N        58.8763   27.1104   27.8663  N     
4    C        58.8174   28.8548   25.7094  C     
5    N        58.2398   25.3969   26.2088  N     
6    C        58.0363   25.5019   24.8744  C     
7    N        58.2000   26.7684   24.4483  N     
8    C        58.5244   27.4888   25.5345  C     
9    C        58.5517   26.6373   26.6355  C     
10   C        58.1492   24.1942   27.0097  C     
11   C        56.7367   23.5567   26.9260  C     
12   C        59.2557   23.1713   26.6376  C     
13   N        58.7193   29.7119   24.6671  N     
14   C        58.9520   31.1226   24.6959  C     
15   C        60.3811   31.5356   24.7185  C     
16   C        60.7799   32.6821   25.4474  C     
17   C        62.0817   33.1929   25.3375  C     
18   C        63.0335   32.5584   24.5090  C     
19   C        62.6494   31.4162   23.7812  C     
20   C        61.3405   30.9169   23.8797  C     
21   O        64.3007   33.0517   24.3309  O     
22   C        65.0399   33.3166   25.5402  C     
23   N        59.5852   28.8088   29.2802  N     
24   C        60.1149   29.9722   29.6557  C     
25   C        60.5078   30.1579   30.9785  C     
26   O        60.3426   30.8725   28.8487  O     
27   C        61.7932   30.6735   31.2883  C     
28   C        62.1783   30.8773   32.6192  C     
29   C        61.2936   30.5933   33.6922  C     
30   C        60.0182   30.0781   33.3790  C     
31   C        59.6387   29.8441   32.0473  C     
32   O        61.5342   30.8020   35.0362  O     
33   C        62.8174   31.2242   35.5345  C     
34   H        57.7930   24.7258   24.2544  H     
35   H        58.3113   24.4488   28.0637  H     
36   H        55.9813   24.2876   27.2233  H     
37   H        56.6646   22.6957   27.5967  H     
38   H        56.5166   23.2245   25.9093  H     
39   H        59.1407   22.8176   25.6124  H     
40   H        59.2189   22.3093   27.3091  H     
41   H        60.2398   23.6328   26.7357  H     
42   H        58.4074   29.3490   23.8216  H     
43   H        58.5300   31.5227   23.7709  H     
44   H        58.3851   31.5782   25.5136  H     
45   H        60.1084   33.1805   26.0391  H     
46   H        62.3290   34.0492   25.8422  H     
47   H        63.3179   30.9625   23.1512  H     
48   H        61.0879   30.0968   23.3235  H     
49   H        64.6854   34.2395   26.0123  H     
50   H        66.0913   33.4403   25.2770  H     
51   H        64.9617   32.4900   26.2526  H     
52   H        59.5136   28.1302   29.9735  H     
53   H        62.4660   30.8830   30.5406  H     
54   H        63.1192   31.2369   32.8056  H     
55   H        59.3523   29.8805   34.1281  H     
56   H        58.6962   29.4870   31.8541  H     
57   H        63.6026   30.5273   35.2182  H     
58   H        62.7828   31.2417   36.6194  H     
59   H        63.0547   32.2326   35.1775  H     
@<TRIPOS>BOND
     1    1    2 2
     2    1    4 1
     3    2    3 1
     4    2   23 1
     5    3    9 2
     6    4    8 2
     7    4   13 1
     8    5    6 1
     9    5    9 1
    10    5   10 1
    11    6    7 2
    12    7    8 1
    13    8    9 1
    14   10   11 1
    15   10   12 1
    16   13   14 1
    17   14   15 1
    18   15   16 2
    19   15   20 1
    20   16   17 1
    21   17   18 2
    22   18   19 1
    23   18   21 1
    24   19   20 2
    25   21   22 1
    26   23   24 am
    27   24   25 1
    28   24   26 2
    29   25   27 2
    30   25   31 1
    31   27   28 1
    32   28   29 2
    33   29   30 1
    34   29   32 1
    35   30   31 2
    36   32   33 1
    37    6   34 1
    38   10   35 1
    39   11   36 1
    40   11   37 1
    41   11   38 1
    42   12   39 1
    43   12   40 1
    44   12   41 1
    45   13   42 1
    46   14   43 1
    47   14   44 1
    48   16   45 1
    49   17   46 1
    50   19   47 1
    51   20   48 1
    52   22   49 1
    53   22   50 1
    54   22   51 1
    55   23   52 1
    56   27   53 1
    57   28   54 1
    58   30   55 1
    59   31   56 1
    60   33   57 1
    61   33   58 1
    62   33   59 1
@<TRIPOS>PROPERTY_DATA
  Total_Score	| 6.8862
  Crash		| -1.1790
  Polar		| 0.4799
  FragIndex	| 1
  FragRMSD	| 0.388

