@<TRIPOS>MOLECULE
BindingDB_50197317
 54 56 0 0 0
SMALL
NO_CHARGES


@<TRIPOS>ATOM
1    N        59.3453   29.2923   26.9482  N     
2    C        59.3836   28.4338   28.0039  C     
3    N        58.9755   27.1445   27.8311  N     
4    C        58.9214   28.9197   25.7082  C     
5    N        58.1612   25.5000   26.1817  N     
6    C        57.9193   25.6298   24.8559  C     
7    N        58.1432   26.8920   24.4423  N     
8    C        58.5472   27.5797   25.5222  C     
9    C        58.5698   26.7106   26.6108  C     
10   C        58.0206   24.3026   26.9784  C     
11   C        56.6196   23.6571   26.8003  C     
12   C        59.1390   23.2763   26.6574  C     
13   N        58.8295   29.7778   24.6703  N     
14   C        59.0999   31.1765   24.6987  C     
15   C        60.5452   31.5158   24.6129  C     
16   C        61.4068   30.7907   23.7621  C     
17   C        62.7420   31.1984   23.5354  C     
18   C        63.2480   32.3452   24.1744  C     
19   C        62.4049   33.0801   25.0397  C     
20   C        61.0720   32.6628   25.2608  C     
21   O        64.4998   32.8611   23.9080  O     
22   C        65.5831   31.9234   23.8434  C     
23   N        59.8581   28.9107   29.1794  N     
24   C        59.8755   28.3119   30.3625  C     
25   C        60.5351   28.9266   31.5165  C     
26   O        59.3535   27.2077   30.5247  O     
27   C        62.0769   28.7632   31.4225  C     
28   C        60.1278   30.4118   31.7365  C     
29   H        57.5951   24.8811   24.2378  H     
30   H        58.1187   24.5570   28.0373  H     
31   H        55.8405   24.4061   26.9653  H     
32   H        56.4778   22.8454   27.5175  H     
33   H        56.5035   23.2513   25.7918  H     
34   H        59.0797   22.9495   25.6175  H     
35   H        59.0503   22.4019   27.3051  H     
36   H        60.1180   23.7288   26.8236  H     
37   H        58.4900   29.4249   23.8325  H     
38   H        58.6198   31.5992   23.8154  H     
39   H        58.6235   31.6386   25.5652  H     
40   H        61.0695   29.9593   23.2828  H     
41   H        63.3462   30.6921   22.8800  H     
42   H        62.7508   33.9434   25.4837  H     
43   H        60.4793   33.2382   25.8704  H     
44   H        65.6349   31.3145   24.7554  H     
45   H        66.5204   32.4923   23.7431  H     
46   H        65.4673   31.2718   22.9693  H     
47   H        60.2313   29.8073   29.1475  H     
48   H        60.2232   28.3951   32.4258  H     
49   H        62.3459   27.7033   31.4528  H     
50   H        62.5607   29.2596   32.2653  H     
51   H        62.4621   29.1975   30.4970  H     
52   H        60.5776   31.0551   30.9790  H     
53   H        60.4655   30.7482   32.7190  H     
54   H        59.0420   30.5218   31.6951  H     
@<TRIPOS>BOND
     1    1    2 2
     2    1    4 1
     3    2    3 1
     4    2   23 1
     5    3    9 2
     6    4    8 2
     7    4   13 1
     8    5    6 1
     9    5    9 1
    10    5   10 1
    11    6    7 2
    12    7    8 1
    13    8    9 1
    14   10   11 1
    15   10   12 1
    16   13   14 1
    17   14   15 1
    18   15   16 2
    19   15   20 1
    20   16   17 1
    21   17   18 2
    22   18   19 1
    23   18   21 1
    24   19   20 2
    25   21   22 1
    26   23   24 am
    27   24   25 1
    28   24   26 2
    29   25   27 1
    30   25   28 1
    31    6   29 1
    32   10   30 1
    33   11   31 1
    34   11   32 1
    35   11   33 1
    36   12   34 1
    37   12   35 1
    38   12   36 1
    39   13   37 1
    40   14   38 1
    41   14   39 1
    42   16   40 1
    43   17   41 1
    44   19   42 1
    45   20   43 1
    46   22   44 1
    47   22   45 1
    48   22   46 1
    49   23   47 1
    50   25   48 1
    51   27   49 1
    52   27   50 1
    53   27   51 1
    54   28   52 1
    55   28   53 1
    56   28   54 1
@<TRIPOS>PROPERTY_DATA
  Total_Score	| 8.3945
  Crash		| -1.1122
  Polar		| 0.5452
  FragIndex	| 1
  FragRMSD	| 0.520

