@<TRIPOS>MOLECULE
BindingDB_50197320
 55 58 0 0 0
SMALL
NO_CHARGES


@<TRIPOS>ATOM
1    N        59.2221   29.2054   26.9319  N     
2    C        59.2906   28.3510   27.9938  C     
3    N        58.9224   27.0527   27.8136  N     
4    C        58.8258   28.8208   25.6861  C     
5    N        58.1837   25.3788   26.1600  N     
6    C        57.9545   25.5027   24.8297  C     
7    N        58.1351   26.7706   24.4138  N     
8    C        58.5065   27.4668   25.4990  C     
9    C        58.5445   26.6022   26.5922  C     
10   C        58.0591   24.1832   26.9617  C     
11   C        56.6456   23.5579   26.8241  C     
12   C        59.1672   23.1573   26.6200  C     
13   N        58.7167   29.6799   24.6445  N     
14   C        58.9124   31.0955   24.6965  C     
15   C        60.3454   31.4927   24.6597  C     
16   C        60.8291   32.5381   25.4796  C     
17   C        62.1782   32.9318   25.4194  C     
18   C        63.0686   32.2900   24.5369  C     
19   C        62.5977   31.2536   23.7128  C     
20   C        61.2475   30.8597   23.7702  C     
21   N        59.7209   28.7181   29.2240  N     
22   Cl       64.6957   32.7464   24.4883  Cl    
23   C        60.2946   29.8616   29.5939  C     
24   C        60.6263   30.0969   30.9280  C     
25   O        60.5864   30.7189   28.7625  O     
26   C        61.8305   30.7650   31.2804  C     
27   C        62.1143   31.0769   32.6256  C     
28   C        61.2099   30.7253   33.6549  C     
29   C        60.0099   30.0657   33.3075  C     
30   C        59.7312   29.7400   31.9675  C     
31   O        61.3613   31.0617   34.9778  O     
32   C        62.7033   31.1940   35.4875  C     
33   H        57.6707   24.7469   24.2016  H     
34   H        58.1812   24.4396   28.0193  H     
35   H        55.8867   24.2999   27.0790  H     
36   H        56.5381   22.7056   27.4981  H     
37   H        56.4689   23.2172   25.8007  H     
38   H        59.0844   22.8239   25.5852  H     
39   H        59.1007   22.2879   27.2766  H     
40   H        60.1514   23.6096   26.7582  H     
41   H        58.4573   29.3090   23.7831  H     
42   H        58.4219   31.5194   23.8159  H     
43   H        58.3919   31.4996   25.5672  H     
44   H        60.1998   33.0231   26.1234  H     
45   H        62.5065   33.6875   26.0251  H     
46   H        63.2325   30.7726   23.0733  H     
47   H        60.9271   30.1061   23.1565  H     
48   H        59.6345   28.0381   29.9135  H     
49   H        62.5167   31.0294   30.5599  H     
50   H        62.9861   31.5678   32.8460  H     
51   H        59.3343   29.8278   34.0335  H     
52   H        58.8340   29.2867   31.7536  H     
53   H        63.3430   30.3564   35.1858  H     
54   H        62.6551   31.2056   36.5739  H     
55   H        63.1572   32.1319   35.1536  H     
@<TRIPOS>BOND
     1    1    2 2
     2    1    4 1
     3    2    3 1
     4    2   21 1
     5    3    9 2
     6    4    8 2
     7    4   13 1
     8    5    6 1
     9    5    9 1
    10    5   10 1
    11    6    7 2
    12    7    8 1
    13    8    9 1
    14   10   11 1
    15   10   12 1
    16   13   14 1
    17   14   15 1
    18   15   16 2
    19   15   20 1
    20   16   17 1
    21   17   18 2
    22   18   19 1
    23   18   22 1
    24   19   20 2
    25   21   23 am
    26   23   24 1
    27   23   25 2
    28   24   26 2
    29   24   30 1
    30   26   27 1
    31   27   28 2
    32   28   29 1
    33   28   31 1
    34   29   30 2
    35   31   32 1
    36    6   33 1
    37   10   34 1
    38   11   35 1
    39   11   36 1
    40   11   37 1
    41   12   38 1
    42   12   39 1
    43   12   40 1
    44   13   41 1
    45   14   42 1
    46   14   43 1
    47   16   44 1
    48   17   45 1
    49   19   46 1
    50   20   47 1
    51   21   48 1
    52   26   49 1
    53   27   50 1
    54   29   51 1
    55   30   52 1
    56   32   53 1
    57   32   54 1
    58   32   55 1
@<TRIPOS>PROPERTY_DATA
  Total_Score	| 6.8058
  Crash		| -1.1509
  Polar		| 0.5460
  FragIndex	| 1
  FragRMSD	| 0.432

