@<TRIPOS>MOLECULE
BindingDB_18307
 81 81 0 0 0
SMALL
NO_CHARGES


@<TRIPOS>ATOM
1    C        11.3681   47.6036   71.5347  C     
2    C        12.5596   48.0444   72.1546  C     
3    C        12.6608   49.3902   72.5806  C     
4    C        11.5623   50.2654   72.3955  C     
5    C        10.3870   49.8062   71.7807  C     
6    C        10.2772   48.4765   71.3101  C     
7    C        13.8251   50.7764   74.1370  C     
8    O        13.6957   47.2788   72.2611  O     
9    C        13.6304   45.9225   72.7589  C     
10   C         9.0807   47.9983   70.5599  C     
11   C         9.3809   47.2212   69.2253  C     
12   C         8.0537   46.8290   68.4817  C     
13   C         7.3230   45.5321   68.9707  C     
14   C         5.9302   45.3354   68.2768  C     
15   C         5.0124   44.3675   69.0778  C     
16   C         3.6142   44.0919   68.4446  C     
17   C         2.9412   45.2836   67.9796  C     
18   C        10.4276   47.9561   68.2923  C     
19   C        10.6333   47.2675   66.9049  C     
20   C        10.1594   49.4832   68.1130  C     
21   N         8.1576   44.3343   68.7473  N     
22   O         6.0955   44.8699   66.9346  O     
23   C         2.7062   43.3090   69.4412  C     
24   O         2.5246   46.1098   68.7922  O     
25   N         2.6098   45.4129   66.6762  N     
26   C         1.6808   46.3438   66.1545  C     
27   O        13.8749   49.8568   73.0317  O     
28   C        13.6123   44.8548   71.6335  C     
29   C        14.5148   45.1868   70.4060  C     
30   O        15.4512   44.1391   70.0567  O     
31   C        14.9215   43.0366   69.3029  C     
32   C         0.7279   45.6719   65.1229  C     
33   C        -0.1849   44.7576   65.7728  C     
34   O        -0.2094   44.6675   66.9897  O     
35   N        -1.0371   44.0088   65.0901  N     
36   H        11.3358   46.6446   71.1906  H     
37   H        11.6275   51.2447   72.6774  H     
38   H         9.6218   50.4663   71.6354  H     
39   H        13.4664   51.7535   73.8007  H     
40   H        14.8375   50.8932   74.5298  H     
41   H        13.1864   50.4056   74.9473  H     
42   H        14.5451   45.7755   73.3353  H     
43   H        12.7936   45.7659   73.4420  H     
44   H         8.5197   47.3586   71.2393  H     
45   H         8.4303   48.8455   70.3293  H     
46   H         9.8628   46.2896   69.5249  H     
47   H         7.3540   47.6711   68.5622  H     
48   H         8.2631   46.6986   67.4203  H     
49   H         7.1580   45.6219   70.0502  H     
50   H         5.4269   46.3058   68.2316  H     
51   H         5.5271   43.4127   69.1772  H     
52   H         4.8810   44.7735   70.0827  H     
53   H         3.7767   43.4118   67.6018  H     
54   H        11.3951   47.8813   68.7861  H     
55   H        10.6101   46.1796   67.0091  H     
56   H        11.6144   47.5352   66.5026  H     
57   H         9.8625   47.5653   66.1853  H     
58   H         9.2238   49.6610   67.5651  H     
59   H        10.9880   49.9376   67.5557  H     
60   H        10.1017   49.9863   69.0857  H     
61   H         8.3281   44.2192   67.7449  H     
62   H         7.6736   43.5060   69.0955  H     
63   H         9.0473   44.4277   69.2396  H     
64   H         6.7568   45.4477   66.4979  H     
65   H         3.2053   42.3901   69.7636  H     
66   H         1.7663   43.0246   68.9601  H     
67   H         2.4734   43.9008   70.3331  H     
68   H         3.0074   44.7636   66.0599  H     
69   H         1.0871   46.7354   66.9931  H     
70   H         2.1953   47.1856   65.6700  H     
71   H        13.9341   43.9011   72.0567  H     
72   H        12.5901   44.7119   71.2828  H     
73   H        13.8927   45.4511   69.5386  H     
74   H        15.1347   46.0618   70.6257  H     
75   H        14.0814   42.5630   69.8169  H     
76   H        15.7182   42.3042   69.1784  H     
77   H        14.6037   43.3725   68.3142  H     
78   H         0.1503   46.4475   64.6092  H     
79   H         1.3339   45.1502   64.3728  H     
80   H        -1.6266   43.4024   65.5757  H     
81   H        -1.0893   44.0659   64.1150  H     
@<TRIPOS>BOND
     1    1    2 2
     2    1    6 1
     3    2    3 1
     4    2    8 1
     5    3    4 2
     6    3   27 1
     7    4    5 1
     8    5    6 2
     9    6   10 1
    10    7   27 1
    11    8    9 1
    12    9   28 1
    13   10   11 1
    14   11   12 1
    15   11   18 1
    16   12   13 1
    17   13   14 1
    18   13   21 1
    19   14   15 1
    20   14   22 1
    21   15   16 1
    22   16   17 1
    23   16   23 1
    24   17   24 2
    25   17   25 am
    26   18   19 1
    27   18   20 1
    28   25   26 1
    29   26   32 1
    30   28   29 1
    31   29   30 1
    32   30   31 1
    33   32   33 1
    34   33   34 2
    35   33   35 am
    36    1   36 1
    37    4   37 1
    38    5   38 1
    39    7   39 1
    40    7   40 1
    41    7   41 1
    42    9   42 1
    43    9   43 1
    44   10   44 1
    45   10   45 1
    46   11   46 1
    47   12   47 1
    48   12   48 1
    49   13   49 1
    50   14   50 1
    51   15   51 1
    52   15   52 1
    53   16   53 1
    54   18   54 1
    55   19   55 1
    56   19   56 1
    57   19   57 1
    58   20   58 1
    59   20   59 1
    60   20   60 1
    61   21   61 1
    62   21   62 1
    63   21   63 1
    64   22   64 1
    65   23   65 1
    66   23   66 1
    67   23   67 1
    68   25   68 1
    69   26   69 1
    70   26   70 1
    71   28   71 1
    72   28   72 1
    73   29   73 1
    74   29   74 1
    75   31   75 1
    76   31   76 1
    77   31   77 1
    78   32   78 1
    79   32   79 1
    80   35   80 1
    81   35   81 1
@<TRIPOS>PROPERTY_DATA
  Total_Score	| 14.9335
  Crash		| -1.4717
  Polar		| 9.2869
  FragIndex	| 1
  FragRMSD	| 0.842

