@<TRIPOS>MOLECULE
BindingDB_50348999
 95 95 0 0 0
SMALL
NO_CHARGES


@<TRIPOS>ATOM
1    C        12.6330   48.0258   72.1335  C     
2    C        12.7307   49.3887   72.5159  C     
3    C        11.6169   50.2316   72.3505  C     
4    C        10.4263   49.7417   71.7807  C     
5    C        10.3097   48.3806   71.4046  C     
6    C        11.4213   47.5338   71.6111  C     
7    O        13.7184   47.1941   72.2265  O     
8    C        14.2047   46.6695   70.9668  C     
9    C        14.1468   45.1229   71.0009  C     
10   C        14.8051   44.4636   69.7579  C     
11   O        15.4600   43.2038   70.0226  O     
12   C        14.6270   42.1372   70.5084  C     
13   O        13.9109   49.9284   72.9496  O     
14   C        14.1904   49.7015   74.3447  C     
15   C         9.1189   47.8749   70.6695  C     
16   C         9.4336   47.2010   69.2808  C     
17   C         8.1241   46.8060   68.5103  C     
18   C         7.3780   45.5307   69.0238  C     
19   C         5.9584   45.3897   68.3797  C     
20   C         4.9966   44.4875   69.2235  C     
21   C         3.7187   43.9508   68.4886  C     
22   C         2.9393   45.0789   67.9529  C     
23   N         2.7040   45.1422   66.6493  N     
24   C         2.0481   46.1665   65.8954  C     
25   C         0.7454   45.6905   65.1326  C     
26   C         0.7374   46.3391   63.7008  C     
27   C        10.4347   48.0296   68.3783  C     
28   C        10.7894   47.3291   67.0288  C     
29   C        10.0101   49.5070   68.1349  C     
30   N         8.1729   44.3112   68.7689  N     
31   O         6.0473   44.8789   67.0454  O     
32   C         2.8344   42.9863   69.3718  C     
33   C         1.5925   42.4512   68.5961  C     
34   C         3.6201   41.7723   69.9514  C     
35   O         2.5322   45.9430   68.7207  O     
36   C         0.6726   44.1289   64.9783  C     
37   C        -0.5165   46.1491   65.9282  C     
38   N        -0.4779   46.1343   62.9007  N     
39   H        11.6847   51.2236   72.5955  H     
40   H         9.6503   50.3860   71.6277  H     
41   H        11.3648   46.5435   71.3502  H     
42   H        13.6450   47.0170   70.0862  H     
43   H        15.2474   46.9782   70.8413  H     
44   H        14.6422   44.7733   71.9125  H     
45   H        13.0934   44.8131   71.0525  H     
46   H        14.0591   44.3503   68.9623  H     
47   H        15.5830   45.1314   69.3767  H     
48   H        14.2989   42.3520   71.5296  H     
49   H        15.2162   41.2164   70.5202  H     
50   H        13.7537   41.9800   69.8700  H     
51   H        13.3945   50.0991   74.9852  H     
52   H        15.1171   50.2215   74.5928  H     
53   H        14.3271   48.6322   74.5367  H     
54   H         8.6452   47.1497   71.3263  H     
55   H         8.3925   48.6726   70.5180  H     
56   H         9.9601   46.2711   69.5098  H     
57   H         7.4370   47.6580   68.5589  H     
58   H         8.3572   46.6293   67.4571  H     
59   H         7.2467   45.6161   70.1049  H     
60   H         5.5035   46.3835   68.3230  H     
61   H         5.5789   43.6329   69.5789  H     
62   H         4.6780   45.0607   70.1032  H     
63   H         4.0906   43.3486   67.6510  H     
64   H         3.0583   44.4161   66.1154  H     
65   H         1.8273   47.0388   66.5211  H     
66   H         2.8043   46.5034   65.1829  H     
67   H         0.8954   47.4194   63.7869  H     
68   H         1.5689   45.9366   63.1128  H     
69   H        11.3903   48.0756   68.9093  H     
70   H        10.9981   46.2660   67.1872  H     
71   H        11.6914   47.7735   66.5966  H     
72   H         9.9789   47.4231   66.3000  H     
73   H         9.1226   49.5595   67.5014  H     
74   H        10.8210   50.0536   67.6453  H     
75   H         9.7969   50.0119   69.0779  H     
76   H         8.3196   44.1941   67.7596  H     
77   H         7.6800   43.4908   69.1263  H     
78   H         9.0780   44.3801   69.2378  H     
79   H         6.7435   45.3958   66.5867  H     
80   H         2.4618   43.5603   70.2265  H     
81   H         0.9207   43.2695   68.3368  H     
82   H         1.0235   41.7502   69.2026  H     
83   H         1.8958   41.9412   67.6803  H     
84   H         4.0954   41.1959   69.1549  H     
85   H         2.9511   41.1107   70.5018  H     
86   H         4.3849   42.0996   70.6527  H     
87   H         1.5441   43.7489   64.4347  H     
88   H        -0.2221   43.8064   64.4510  H     
89   H         0.6537   43.6437   65.9587  H     
90   H        -0.4879   45.7615   66.9486  H     
91   H        -1.4397   45.7992   65.4605  H     
92   H        -0.5624   47.2376   65.9814  H     
93   H        -0.6822   45.1380   62.8157  H     
94   H        -0.3220   46.5161   61.9655  H     
95   H        -1.2643   46.6128   63.3389  H     
@<TRIPOS>BOND
     1    1    2 2
     2    1    6 1
     3    1    7 1
     4    2    3 1
     5    2   13 1
     6    3    4 2
     7    4    5 1
     8    5    6 2
     9    5   15 1
    10    7    8 1
    11    8    9 1
    12    9   10 1
    13   10   11 1
    14   11   12 1
    15   13   14 1
    16   15   16 1
    17   16   17 1
    18   16   27 1
    19   17   18 1
    20   18   19 1
    21   18   30 1
    22   19   20 1
    23   19   31 1
    24   20   21 1
    25   21   22 1
    26   21   32 1
    27   22   23 am
    28   22   35 2
    29   23   24 1
    30   24   25 1
    31   25   26 1
    32   25   36 1
    33   25   37 1
    34   26   38 1
    35   27   28 1
    36   27   29 1
    37   32   33 1
    38   32   34 1
    39    3   39 1
    40    4   40 1
    41    6   41 1
    42    8   42 1
    43    8   43 1
    44    9   44 1
    45    9   45 1
    46   10   46 1
    47   10   47 1
    48   12   48 1
    49   12   49 1
    50   12   50 1
    51   14   51 1
    52   14   52 1
    53   14   53 1
    54   15   54 1
    55   15   55 1
    56   16   56 1
    57   17   57 1
    58   17   58 1
    59   18   59 1
    60   19   60 1
    61   20   61 1
    62   20   62 1
    63   21   63 1
    64   23   64 1
    65   24   65 1
    66   24   66 1
    67   26   67 1
    68   26   68 1
    69   27   69 1
    70   28   70 1
    71   28   71 1
    72   28   72 1
    73   29   73 1
    74   29   74 1
    75   29   75 1
    76   30   76 1
    77   30   77 1
    78   30   78 1
    79   31   79 1
    80   32   80 1
    81   33   81 1
    82   33   82 1
    83   33   83 1
    84   34   84 1
    85   34   85 1
    86   34   86 1
    87   36   87 1
    88   36   88 1
    89   36   89 1
    90   37   90 1
    91   37   91 1
    92   37   92 1
    93   38   93 1
    94   38   94 1
    95   38   95 1
@<TRIPOS>PROPERTY_DATA
  Total_Score	| 17.2467
  Crash		| -1.6818
  Polar		| 10.1522
  FragIndex	| 1
  FragRMSD	| 1.018

