@<TRIPOS>MOLECULE
BindingDB_18322
 87 87 0 0 0
SMALL
NO_CHARGES


@<TRIPOS>ATOM
1    C        11.3676   47.6790   71.6584  C     
2    C        12.5579   48.1259   72.2864  C     
3    C        12.6727   49.4961   72.6279  C     
4    C        11.6275   50.3943   72.2961  C     
5    C        10.4620   49.9337   71.6640  C     
6    C        10.3103   48.5647   71.3362  C     
7    C        13.7824   50.9165   74.2286  C     
8    O        13.6372   47.3220   72.6159  O     
9    C        13.9101   46.0608   71.9700  C     
10   C         9.1181   48.0599   70.6021  C     
11   C         9.4187   47.2357   69.2947  C     
12   C         8.1013   46.8258   68.5368  C     
13   C         7.3529   45.5473   69.0275  C     
14   C         5.9376   45.4122   68.3617  C     
15   C         4.9510   44.5290   69.1866  C     
16   C         3.6829   43.9903   68.4305  C     
17   C         2.9045   45.0994   67.8729  C     
18   C        10.4770   47.9314   68.3461  C     
19   C        10.7127   47.1545   67.0203  C     
20   C        10.1932   49.4375   68.0687  C     
21   N         8.1552   44.3341   68.7723  N     
22   O         6.0460   44.8815   67.0343  O     
23   O         2.4435   45.9436   68.6366  O     
24   N         2.5701   45.0870   66.5887  N     
25   C         1.6063   45.9427   65.9762  C     
26   O        13.8604   49.9345   73.1679  O     
27   C        14.5224   46.2263   70.5485  C     
28   C        14.4961   44.8957   69.7586  C     
29   O        15.3879   43.9228   70.3479  O     
30   C        14.7344   42.8343   71.0210  C     
31   C         1.2346   45.5186   64.5279  C     
32   C         0.7248   44.1600   64.4219  C     
33   C         1.5698   42.4481   68.5021  C     
34   C         2.7661   43.0465   69.3127  C     
35   C         3.5343   41.8737   69.9978  C     
36   O        -0.1346   43.7629   65.2025  O     
37   N         1.1660   43.3152   63.5212  N     
38   H        11.2717   46.6909   71.4177  H     
39   H        11.7229   51.3942   72.4922  H     
40   H         9.7378   50.6047   71.4087  H     
41   H        13.4515   51.8875   73.8377  H     
42   H        14.7801   51.0458   74.6577  H     
43   H        13.1061   50.5984   75.0307  H     
44   H        14.6264   45.5195   72.5833  H     
45   H        12.9967   45.4555   71.9386  H     
46   H         8.5699   47.4325   71.3097  H     
47   H         8.4587   48.8936   70.3554  H     
48   H         9.8855   46.3106   69.6356  H     
49   H         7.4107   47.6699   68.5773  H     
50   H         8.3388   46.6574   67.4902  H     
51   H         7.2099   45.6250   70.1085  H     
52   H         5.4899   46.4056   68.2806  H     
53   H         5.5259   43.6744   69.5503  H     
54   H         4.6194   45.1002   70.0670  H     
55   H         4.0539   43.3665   67.6074  H     
56   H        11.4438   47.8950   68.8603  H     
57   H        10.7388   46.0792   67.1973  H     
58   H        11.6719   47.4360   66.5931  H     
59   H         9.9368   47.3683   66.2857  H     
60   H         9.3120   49.5554   67.4371  H     
61   H        11.0470   49.8900   67.5631  H     
62   H        10.0310   49.9863   68.9956  H     
63   H         8.2835   44.2075   67.7638  H     
64   H         7.6776   43.5122   69.1482  H     
65   H         9.0694   44.4157   69.2244  H     
66   H         6.7103   45.4304   66.5676  H     
67   H         2.9393   44.3776   66.0375  H     
68   H         0.6854   45.9414   66.5697  H     
69   H         1.9921   46.9653   65.9614  H     
70   H        13.9641   46.9768   69.9843  H     
71   H        15.5477   46.5855   70.6401  H     
72   H        13.4622   44.5333   69.7199  H     
73   H        14.8184   45.0807   68.7267  H     
74   H        14.0985   43.1991   71.8287  H     
75   H        15.4970   42.1946   71.4601  H     
76   H        14.1428   42.2421   70.3228  H     
77   H         0.4587   46.1940   64.1563  H     
78   H         2.1088   45.6515   63.8801  H     
79   H         0.8729   43.2334   68.2004  H     
80   H         1.0012   41.7277   69.0948  H     
81   H         1.9351   41.9435   67.6040  H     
82   H         2.3296   43.6448   70.1265  H     
83   H         4.0669   41.2805   69.2529  H     
84   H         2.8429   41.2172   70.5307  H     
85   H         4.2468   42.2486   70.7323  H     
86   H         0.8216   42.4084   63.4902  H     
87   H         1.8287   43.5978   62.8695  H     
@<TRIPOS>BOND
     1    1    2 2
     2    1    6 1
     3    2    3 1
     4    2    8 1
     5    3    4 2
     6    3   26 1
     7    4    5 1
     8    5    6 2
     9    6   10 1
    10    7   26 1
    11    8    9 1
    12    9   27 1
    13   10   11 1
    14   11   12 1
    15   11   18 1
    16   12   13 1
    17   13   14 1
    18   13   21 1
    19   14   15 1
    20   14   22 1
    21   15   16 1
    22   16   17 1
    23   16   34 1
    24   17   23 2
    25   17   24 am
    26   18   19 1
    27   18   20 1
    28   24   25 1
    29   25   31 1
    30   27   28 1
    31   28   29 1
    32   29   30 1
    33   31   32 1
    34   32   36 2
    35   32   37 am
    36   33   34 1
    37   34   35 1
    38    1   38 1
    39    4   39 1
    40    5   40 1
    41    7   41 1
    42    7   42 1
    43    7   43 1
    44    9   44 1
    45    9   45 1
    46   10   46 1
    47   10   47 1
    48   11   48 1
    49   12   49 1
    50   12   50 1
    51   13   51 1
    52   14   52 1
    53   15   53 1
    54   15   54 1
    55   16   55 1
    56   18   56 1
    57   19   57 1
    58   19   58 1
    59   19   59 1
    60   20   60 1
    61   20   61 1
    62   20   62 1
    63   21   63 1
    64   21   64 1
    65   21   65 1
    66   22   66 1
    67   24   67 1
    68   25   68 1
    69   25   69 1
    70   27   70 1
    71   27   71 1
    72   28   72 1
    73   28   73 1
    74   30   74 1
    75   30   75 1
    76   30   76 1
    77   31   77 1
    78   31   78 1
    79   33   79 1
    80   33   80 1
    81   33   81 1
    82   34   82 1
    83   35   83 1
    84   35   84 1
    85   35   85 1
    86   37   86 1
    87   37   87 1
@<TRIPOS>PROPERTY_DATA
  Total_Score	| 16.0018
  Crash		| -1.4025
  Polar		| 7.5560
  FragIndex	| 1
  FragRMSD	| 0.137

