@<TRIPOS>MOLECULE
BindingDB_18332
 90 90 0 0 0
SMALL
NO_CHARGES


@<TRIPOS>ATOM
1    C        11.3574   47.6453   71.6605  C     
2    C        12.5419   48.1084   72.2898  C     
3    C        12.6766   49.4918   72.5708  C     
4    C        11.6393   50.3765   72.2200  C     
5    C        10.4669   49.8949   71.6117  C     
6    C        10.3147   48.5230   71.3060  C     
7    C        13.7602   50.9027   74.1580  C     
8    O        13.5911   47.3025   72.6920  O     
9    C        13.8364   46.0479   72.0334  C     
10   C         9.0963   48.0216   70.5994  C     
11   C         9.3373   47.2066   69.2747  C     
12   C         7.9827   46.8586   68.5618  C     
13   C         7.2563   45.5432   69.0126  C     
14   C         5.8710   45.3605   68.3042  C     
15   C         4.9046   44.4057   69.0757  C     
16   C         3.5809   43.9990   68.3261  C     
17   C         2.8495   45.1964   67.9098  C     
18   C        10.4173   47.8726   68.3202  C     
19   C        10.5563   47.1498   66.9498  C     
20   C        10.2428   49.4051   68.1117  C     
21   N         8.1171   44.3677   68.7625  N     
22   O         6.0295   44.8694   66.9640  O     
23   O         2.4769   45.9819   68.7764  O     
24   N         2.5700   45.4014   66.6297  N     
25   O        13.8652   49.9621   73.0713  O     
26   C        14.4101   46.2483   70.6043  C     
27   C        14.4478   44.9733   69.7303  C     
28   O        15.2682   43.9357   70.3046  O     
29   C        14.5764   42.9420   71.0829  C     
30   C         2.7310   47.1871   64.9750  C     
31   C         1.4628   42.4796   68.2854  C     
32   C         2.6516   43.0198   69.1434  C     
33   C         3.4089   41.8043   69.7601  C     
34   C         1.8463   46.5036   66.0621  C     
35   C         2.2831   48.5169   64.5859  C     
36   O         1.7734   48.7066   63.4895  O     
37   N         2.4491   49.5479   65.3818  N     
38   C         0.5115   45.9623   65.4821  C     
39   H        11.2923   46.6444   71.4171  H     
40   H        11.7328   51.3808   72.3831  H     
41   H         9.7357   50.5726   71.3684  H     
42   H        13.3813   51.8672   73.8052  H     
43   H        14.7646   51.0661   74.5602  H     
44   H        13.1179   50.5289   74.9638  H     
45   H        14.5708   45.5055   72.6309  H     
46   H        12.8978   45.4743   72.0277  H     
47   H         8.5534   47.3924   71.3134  H     
48   H         8.4322   48.8597   70.3682  H     
49   H         9.7917   46.2612   69.5881  H     
50   H         7.3011   47.7060   68.6962  H     
51   H         8.1484   46.7645   67.4909  H     
52   H         7.0857   45.6054   70.0898  H     
53   H         5.3851   46.3391   68.2493  H     
54   H         5.4657   43.4945   69.2967  H     
55   H         4.6398   44.8681   70.0357  H     
56   H         3.8936   43.4462   67.4336  H     
57   H        11.3932   47.7368   68.8055  H     
58   H        10.5145   46.0624   67.0855  H     
59   H        11.5239   47.3923   66.4914  H     
60   H         9.7630   47.4502   66.2557  H     
61   H         9.3186   49.6274   67.5635  H     
62   H        11.1049   49.7925   67.5492  H     
63   H        10.2157   49.9330   69.0701  H     
64   H         8.3155   44.2786   67.7597  H     
65   H         7.6464   43.5177   69.0795  H     
66   H         8.9979   44.4668   69.2728  H     
67   H         6.7278   45.4144   66.5471  H     
68   H         2.8756   44.7289   66.0021  H     
69   H        13.8219   46.9991   70.0693  H     
70   H        15.4290   46.6414   70.6897  H     
71   H        13.4261   44.6487   69.5023  H     
72   H        14.9072   45.2312   68.7732  H     
73   H        14.0620   43.3927   71.9400  H     
74   H        15.3018   42.2172   71.4536  H     
75   H        13.8413   42.4133   70.4628  H     
76   H         3.7495   47.2836   65.3587  H     
77   H         2.7785   46.5280   64.0994  H     
78   H         0.8272   43.2967   67.9401  H     
79   H         0.8303   41.8074   68.8686  H     
80   H         1.8304   41.9359   67.4127  H     
81   H         2.2126   43.5747   69.9818  H     
82   H         3.9738   41.2752   68.9921  H     
83   H         2.7123   41.1046   70.2238  H     
84   H         4.0935   42.1351   70.5387  H     
85   H         1.5912   47.2501   66.8288  H     
86   H         2.1588   50.4281   65.0966  H     
87   H         2.8634   49.4296   66.2535  H     
88   H         0.7013   45.2360   64.6891  H     
89   H        -0.0884   46.7786   65.0723  H     
90   H        -0.0685   45.4753   66.2703  H     
@<TRIPOS>BOND
     1    1    2 2
     2    1    6 1
     3    2    3 1
     4    2    8 1
     5    3    4 2
     6    3   25 1
     7    4    5 1
     8    5    6 2
     9    6   10 1
    10    7   25 1
    11    8    9 1
    12    9   26 1
    13   10   11 1
    14   11   12 1
    15   11   18 1
    16   12   13 1
    17   13   14 1
    18   13   21 1
    19   14   15 1
    20   14   22 1
    21   15   16 1
    22   16   17 1
    23   16   32 1
    24   17   23 2
    25   17   24 am
    26   18   19 1
    27   18   20 1
    28   24   34 1
    29   26   27 1
    30   27   28 1
    31   28   29 1
    32   30   34 1
    33   30   35 1
    34   31   32 1
    35   32   33 1
    36   34   38 1
    37   35   36 2
    38   35   37 am
    39    1   39 1
    40    4   40 1
    41    5   41 1
    42    7   42 1
    43    7   43 1
    44    7   44 1
    45    9   45 1
    46    9   46 1
    47   10   47 1
    48   10   48 1
    49   11   49 1
    50   12   50 1
    51   12   51 1
    52   13   52 1
    53   14   53 1
    54   15   54 1
    55   15   55 1
    56   16   56 1
    57   18   57 1
    58   19   58 1
    59   19   59 1
    60   19   60 1
    61   20   61 1
    62   20   62 1
    63   20   63 1
    64   21   64 1
    65   21   65 1
    66   21   66 1
    67   22   67 1
    68   24   68 1
    69   26   69 1
    70   26   70 1
    71   27   71 1
    72   27   72 1
    73   29   73 1
    74   29   74 1
    75   29   75 1
    76   30   76 1
    77   30   77 1
    78   31   78 1
    79   31   79 1
    80   31   80 1
    81   32   81 1
    82   33   82 1
    83   33   83 1
    84   33   84 1
    85   34   85 1
    86   37   86 1
    87   37   87 1
    88   38   88 1
    89   38   89 1
    90   38   90 1
@<TRIPOS>PROPERTY_DATA
  Total_Score	| 17.1097
  Crash		| -1.6857
  Polar		| 7.4367
  FragIndex	| 1
  FragRMSD	| 0.279

