@<TRIPOS>MOLECULE
BindingDB_18329
 90 90 0 0 0
SMALL
NO_CHARGES


@<TRIPOS>ATOM
1    C        11.1818   47.5986   71.7658  C     
2    C        12.3910   48.0901   72.3081  C     
3    C        12.5403   49.4800   72.5179  C     
4    C        11.4945   50.3601   72.1551  C     
5    C        10.3092   49.8605   71.5956  C     
6    C        10.1491   48.4774   71.3507  C     
7    C        13.6132   50.9533   74.0113  C     
8    O        13.4425   47.2817   72.6823  O     
9    C        13.6910   46.0644   71.9481  C     
10   C         8.9794   47.9567   70.5871  C     
11   C         9.3448   47.2578   69.2220  C     
12   C         8.0547   46.8091   68.4571  C     
13   C         7.3220   45.5412   68.9972  C     
14   C         5.9074   45.3585   68.3490  C     
15   C         4.9457   44.4821   69.2136  C     
16   C         3.7021   43.8783   68.4712  C     
17   C         2.7735   44.9493   68.0979  C     
18   C        10.3397   48.1092   68.3293  C     
19   C        10.6961   47.4390   66.9679  C     
20   C         9.9006   49.5781   68.0890  C     
21   N         8.1397   44.3327   68.7724  N     
22   O         6.0193   44.7990   67.0330  O     
23   O         2.3938   45.7267   68.9542  O     
24   N         2.4326   45.1166   66.8185  N     
25   O        13.7367   49.9740   72.9675  O     
26   C        14.2981   46.2748   70.5400  C     
27   C        14.4288   44.9656   69.7167  C     
28   O        15.2610   43.9777   70.3594  O     
29   C        14.5710   42.8995   71.0227  C     
30   C         2.0119   46.4780   64.8138  C     
31   C         1.6687   42.2625   68.5271  C     
32   C         2.9586   42.7364   69.2682  C     
33   C         3.8573   41.4946   69.5593  C     
34   C         1.6698   46.2119   66.3003  C     
35   C         2.3558   47.8719   64.5456  C     
36   O         3.5304   48.1902   64.4967  O     
37   N         1.3916   48.7644   64.3848  N     
38   C         1.6160   50.1535   64.1664  C     
39   H        11.0810   46.5838   71.6275  H     
40   H        11.6086   51.3708   72.2773  H     
41   H         9.5761   50.5222   71.3233  H     
42   H        13.0911   51.8508   73.6598  H     
43   H        14.6228   51.2468   74.3137  H     
44   H        13.0878   50.5543   74.8892  H     
45   H        14.3965   45.4827   72.5469  H     
46   H        12.7603   45.4907   71.8693  H     
47   H         8.4665   47.2491   71.2406  H     
48   H         8.2656   48.7638   70.4008  H     
49   H         9.8927   46.3532   69.4846  H     
50   H         7.3560   47.6438   68.4450  H     
51   H         8.3023   46.6014   67.4181  H     
52   H         7.1856   45.6496   70.0782  H     
53   H         5.4487   46.3477   68.2450  H     
54   H         5.5347   43.6586   69.6127  H     
55   H         4.5993   45.0831   70.0597  H     
56   H         4.0907   43.4071   67.5613  H     
57   H        11.2971   48.1563   68.8640  H     
58   H        10.8986   46.3736   67.1000  H     
59   H        11.5963   47.8991   66.5473  H     
60   H         9.8910   47.5504   66.2390  H     
61   H         9.0152   49.6273   67.4528  H     
62   H        10.7123   50.1383   67.6152  H     
63   H         9.6706   50.0746   69.0302  H     
64   H         8.2696   44.1884   67.7643  H     
65   H         7.6714   43.5138   69.1672  H     
66   H         9.0529   44.4376   69.2229  H     
67   H         6.6329   45.3672   66.5206  H     
68   H         2.7848   44.4885   66.1710  H     
69   H        13.6671   46.9698   69.9774  H     
70   H        15.2824   46.7347   70.6457  H     
71   H        13.4356   44.5920   69.4479  H     
72   H        14.9264   45.2166   68.7790  H     
73   H        13.9090   43.2727   71.8104  H     
74   H        15.3208   42.2429   71.4717  H     
75   H        13.9798   42.3253   70.3032  H     
76   H         2.8552   45.8447   64.5231  H     
77   H         1.1682   46.1897   64.1799  H     
78   H         0.9366   43.0700   68.4794  H     
79   H         1.1937   41.4253   69.0423  H     
80   H         1.9067   41.9483   67.5099  H     
81   H         2.6486   43.1303   70.2426  H     
82   H         4.3237   41.1320   68.6404  H     
83   H         3.2755   40.6775   69.9965  H     
84   H         4.6412   41.7466   70.2771  H     
85   H         0.5996   45.9831   66.3976  H     
86   H         1.8813   47.1028   66.9055  H     
87   H         0.4694   48.4699   64.4420  H     
88   H         2.1328   50.5918   65.0246  H     
89   H         0.6607   50.6620   64.0320  H     
90   H         2.2245   50.3062   63.2726  H     
@<TRIPOS>BOND
     1    1    2 2
     2    1    6 1
     3    2    3 1
     4    2    8 1
     5    3    4 2
     6    3   25 1
     7    4    5 1
     8    5    6 2
     9    6   10 1
    10    7   25 1
    11    8    9 1
    12    9   26 1
    13   10   11 1
    14   11   12 1
    15   11   18 1
    16   12   13 1
    17   13   14 1
    18   13   21 1
    19   14   15 1
    20   14   22 1
    21   15   16 1
    22   16   17 1
    23   16   32 1
    24   17   23 2
    25   17   24 am
    26   18   19 1
    27   18   20 1
    28   24   34 1
    29   26   27 1
    30   27   28 1
    31   28   29 1
    32   30   34 1
    33   30   35 1
    34   31   32 1
    35   32   33 1
    36   35   36 2
    37   35   37 am
    38   37   38 1
    39    1   39 1
    40    4   40 1
    41    5   41 1
    42    7   42 1
    43    7   43 1
    44    7   44 1
    45    9   45 1
    46    9   46 1
    47   10   47 1
    48   10   48 1
    49   11   49 1
    50   12   50 1
    51   12   51 1
    52   13   52 1
    53   14   53 1
    54   15   54 1
    55   15   55 1
    56   16   56 1
    57   18   57 1
    58   19   58 1
    59   19   59 1
    60   19   60 1
    61   20   61 1
    62   20   62 1
    63   20   63 1
    64   21   64 1
    65   21   65 1
    66   21   66 1
    67   22   67 1
    68   24   68 1
    69   26   69 1
    70   26   70 1
    71   27   71 1
    72   27   72 1
    73   29   73 1
    74   29   74 1
    75   29   75 1
    76   30   76 1
    77   30   77 1
    78   31   78 1
    79   31   79 1
    80   31   80 1
    81   32   81 1
    82   33   82 1
    83   33   83 1
    84   33   84 1
    85   34   85 1
    86   34   86 1
    87   37   87 1
    88   38   88 1
    89   38   89 1
    90   38   90 1
@<TRIPOS>PROPERTY_DATA
  Total_Score	| 17.5350
  Crash		| -1.7707
  Polar		| 7.4459
  FragIndex	| 1
  FragRMSD	| 0.149

