@<TRIPOS>MOLECULE
BindingDB_18333
 90 90 0 0 0
SMALL
NO_CHARGES


@<TRIPOS>ATOM
1    C        11.3303   47.6125   71.6889  C     
2    C        12.5068   48.1015   72.3032  C     
3    C        12.6322   49.4844   72.5641  C     
4    C        11.5805   50.3635   72.2161  C     
5    C        10.4064   49.8662   71.6219  C     
6    C        10.2715   48.4858   71.3321  C     
7    C        13.7622   50.8220   74.1763  C     
8    O        13.5311   47.2744   72.7041  O     
9    C        13.7776   46.0257   72.0224  C     
10   C         9.0683   47.9736   70.6096  C     
11   C         9.3680   47.2566   69.2437  C     
12   C         8.0369   46.8226   68.5149  C     
13   C         7.3107   45.5285   69.0260  C     
14   C         5.8987   45.3385   68.3743  C     
15   C         4.9510   44.3917   69.1849  C     
16   C         3.6501   43.8960   68.4506  C     
17   C         2.8546   45.0421   68.0039  C     
18   C        10.3382   48.0793   68.2988  C     
19   C        10.6900   47.3494   66.9677  C     
20   C         9.8633   49.5346   68.0257  C     
21   N         8.1502   44.3410   68.7834  N     
22   O         6.0143   44.8369   67.0367  O     
23   O         2.5130   45.8841   68.8270  O     
24   N         2.5995   45.2106   66.7108  N     
25   O        13.8363   49.9442   73.0325  O     
26   C        14.3427   46.2355   70.5943  C     
27   C        14.4311   44.9505   69.7280  C     
28   O        15.3125   43.9585   70.2922  O     
29   C        14.6810   42.8937   71.0340  C     
30   C         2.1828   46.3599   64.5699  C     
31   C         1.5409   42.3624   68.4528  C     
32   C         2.7596   42.8827   69.2766  C     
33   C         3.5491   41.6570   69.8249  C     
34   C         2.0676   46.4010   66.1231  C     
35   C         1.0572   45.6595   63.9708  C     
36   O         0.0564   46.2703   63.5888  O     
37   N         1.0715   44.3593   63.7732  N     
38   C         2.4016   47.7824   63.9705  C     
39   H        11.2527   46.6130   71.4782  H     
40   H        11.6854   51.3674   72.3927  H     
41   H         9.6697   50.5379   71.3774  H     
42   H        13.3103   51.7874   73.9035  H     
43   H        14.7844   51.0119   74.5316  H     
44   H        13.1911   50.3689   75.0011  H     
45   H        14.5188   45.4717   72.6084  H     
46   H        12.8544   45.4408   72.0089  H     
47   H         8.5725   47.2749   71.2830  H     
48   H         8.3539   48.7847   70.4329  H     
49   H         9.9034   46.3362   69.4851  H     
50   H         7.3343   47.6574   68.5676  H     
51   H         8.2441   46.6546   67.4572  H     
52   H         7.1763   45.6208   70.1065  H     
53   H         5.4132   46.3132   68.3225  H     
54   H         5.5306   43.5125   69.4645  H     
55   H         4.6566   44.8978   70.1091  H     
56   H         3.9971   43.3390   67.5700  H     
57   H        11.2962   48.1651   68.8187  H     
58   H        10.9746   46.3118   67.1675  H     
59   H        11.5394   47.8430   66.4864  H     
60   H         9.8438   47.3609   66.2720  H     
61   H         8.9895   49.5428   67.3659  H     
62   H        10.6633   50.1116   67.5519  H     
63   H         9.5999   50.0481   68.9536  H     
64   H         8.3114   44.2163   67.7773  H     
65   H         7.6884   43.5029   69.1434  H     
66   H         9.0491   44.4445   69.2585  H     
67   H         6.6880   45.3863   66.5768  H     
68   H         2.8830   44.5064   66.1057  H     
69   H        13.7118   46.9449   70.0631  H     
70   H        15.3419   46.6755   70.6659  H     
71   H        13.4234   44.5669   69.5251  H     
72   H        14.8675   45.2224   68.7633  H     
73   H        14.1208   43.2912   71.8857  H     
74   H        15.4565   42.2225   71.4091  H     
75   H        14.0086   42.3211   70.3859  H     
76   H         3.0949   45.8106   64.3158  H     
77   H         0.8872   43.1863   68.1622  H     
78   H         0.9412   41.6633   69.0390  H     
79   H         1.8751   41.8497   67.5474  H     
80   H         2.3590   43.4087   70.1494  H     
81   H         4.0535   41.1267   69.0140  H     
82   H         2.8801   40.9562   70.3303  H     
83   H         4.2929   41.9728   70.5563  H     
84   H         1.0281   46.5433   66.4280  H     
85   H         2.6461   47.2408   66.5118  H     
86   H         0.3198   43.9183   63.3422  H     
87   H         1.8399   43.8359   64.0671  H     
88   H         1.5804   48.4501   64.2439  H     
89   H         2.4681   47.7325   62.8796  H     
90   H         3.3358   48.2108   64.3440  H     
@<TRIPOS>BOND
     1    1    2 2
     2    1    6 1
     3    2    3 1
     4    2    8 1
     5    3    4 2
     6    3   25 1
     7    4    5 1
     8    5    6 2
     9    6   10 1
    10    7   25 1
    11    8    9 1
    12    9   26 1
    13   10   11 1
    14   11   12 1
    15   11   18 1
    16   12   13 1
    17   13   14 1
    18   13   21 1
    19   14   15 1
    20   14   22 1
    21   15   16 1
    22   16   17 1
    23   16   32 1
    24   17   23 2
    25   17   24 am
    26   18   19 1
    27   18   20 1
    28   24   34 1
    29   26   27 1
    30   27   28 1
    31   28   29 1
    32   30   34 1
    33   30   35 1
    34   30   38 1
    35   31   32 1
    36   32   33 1
    37   35   36 2
    38   35   37 am
    39    1   39 1
    40    4   40 1
    41    5   41 1
    42    7   42 1
    43    7   43 1
    44    7   44 1
    45    9   45 1
    46    9   46 1
    47   10   47 1
    48   10   48 1
    49   11   49 1
    50   12   50 1
    51   12   51 1
    52   13   52 1
    53   14   53 1
    54   15   54 1
    55   15   55 1
    56   16   56 1
    57   18   57 1
    58   19   58 1
    59   19   59 1
    60   19   60 1
    61   20   61 1
    62   20   62 1
    63   20   63 1
    64   21   64 1
    65   21   65 1
    66   21   66 1
    67   22   67 1
    68   24   68 1
    69   26   69 1
    70   26   70 1
    71   27   71 1
    72   27   72 1
    73   29   73 1
    74   29   74 1
    75   29   75 1
    76   30   76 1
    77   31   77 1
    78   31   78 1
    79   31   79 1
    80   32   80 1
    81   33   81 1
    82   33   82 1
    83   33   83 1
    84   34   84 1
    85   34   85 1
    86   37   86 1
    87   37   87 1
    88   38   88 1
    89   38   89 1
    90   38   90 1
@<TRIPOS>PROPERTY_DATA
  Total_Score	| 18.0838
  Crash		| -1.4571
  Polar		| 9.2062
  FragIndex	| 1
  FragRMSD	| 0.146

