@<TRIPOS>MOLECULE
BindingDB_18334
 90 90 0 0 0
SMALL
NO_CHARGES


@<TRIPOS>ATOM
1    C        11.3147   47.5823   71.5561  C     
2    C        12.4514   48.0664   72.2486  C     
3    C        12.5290   49.4379   72.5820  C     
4    C        11.4333   50.2903   72.3123  C     
5    C        10.2847   49.7829   71.6795  C     
6    C        10.2281   48.4306   71.2425  C     
7    C        13.6820   50.8598   74.1272  C     
8    O        13.5036   47.2778   72.6614  O     
9    C        13.7684   46.0132   72.0338  C     
10   C         9.0311   47.9280   70.5075  C     
11   C         9.2474   47.3222   69.0635  C     
12   C         7.8561   46.9043   68.4322  C     
13   C         7.1864   45.5764   68.9431  C     
14   C         5.7859   45.2873   68.2983  C     
15   C         4.9456   44.2279   69.0960  C     
16   C         3.6193   43.7138   68.4264  C     
17   C         2.7523   44.8471   68.0838  C     
18   C        10.0890   48.2145   68.0535  C     
19   C        10.2198   49.7298   68.4160  C     
20   C        11.4987   47.6033   67.7545  C     
21   N         8.0973   44.4309   68.7173  N     
22   O         5.9305   44.8384   66.9435  O     
23   O         2.4246   45.6236   68.9738  O     
24   N         2.3770   45.0322   66.8212  N     
25   O        13.7339   49.9160   73.0347  O     
26   C        14.3286   46.2019   70.6017  C     
27   C        14.3930   44.9233   69.7434  C     
28   O        15.2873   43.9364   70.2865  O     
29   C        14.6775   42.9128   71.1127  C     
30   C         0.4883   45.5047   65.2676  C     
31   C         1.4995   42.1902   68.6220  C     
32   C         2.8542   42.6190   69.2742  C     
33   C         3.6998   41.3313   69.5399  C     
34   C         1.5205   46.0597   66.3042  C     
35   C        -0.4702   44.5421   65.8197  C     
36   O        -0.4722   44.2293   67.0013  O     
37   N        -1.4076   43.9976   65.0708  N     
38   C         1.2011   44.9423   63.9990  C     
39   H        11.2966   46.6064   71.2499  H     
40   H        11.4892   51.2820   72.5603  H     
41   H         9.4945   50.4185   71.5273  H     
42   H        13.2175   51.8030   73.8022  H     
43   H        14.7120   51.0865   74.4394  H     
44   H        13.1392   50.4574   75.0000  H     
45   H        14.5166   45.4925   72.6393  H     
46   H        12.8500   45.4183   72.0524  H     
47   H         8.5919   47.1558   71.1464  H     
48   H         8.2733   48.7179   70.4169  H     
49   H         9.7917   46.3804   69.2014  H     
50   H         7.1468   47.7277   68.5712  H     
51   H         7.9892   46.7846   67.3513  H     
52   H         7.0222   45.6663   70.0205  H     
53   H         5.2176   46.2267   68.2858  H     
54   H         5.5928   43.3657   69.2461  H     
55   H         4.7137   44.6349   70.0886  H     
56   H         3.9290   43.2134   67.5013  H     
57   H         9.5815   48.1887   67.0795  H     
58   H         9.2389   50.1388   68.7043  H     
59   H        10.5929   50.2744   67.5412  H     
60   H        10.9338   49.8682   69.2376  H     
61   H        12.1086   47.5762   68.6588  H     
62   H        12.0321   48.1960   67.0029  H     
63   H        11.3910   46.5794   67.3688  H     
64   H         8.2824   44.3342   67.7109  H     
65   H         7.6747   43.5626   69.0610  H     
66   H         8.9782   44.5858   69.2178  H     
67   H         6.6356   45.3854   66.5437  H     
68   H         2.7530   44.4207   66.1687  H     
69   H        13.7057   46.9110   70.0657  H     
70   H        15.3265   46.6325   70.6656  H     
71   H        13.3897   44.5349   69.5459  H     
72   H        14.8192   45.1906   68.7762  H     
73   H        14.1599   43.3469   71.9790  H     
74   H        15.4683   42.2539   71.4792  H     
75   H        13.9675   42.3139   70.5246  H     
76   H        -0.0924   46.3738   64.9381  H     
77   H         0.7881   43.0176   68.6352  H     
78   H         1.0417   41.3685   69.1727  H     
79   H         1.6572   41.8768   67.5879  H     
80   H         2.6174   43.0483   70.2560  H     
81   H         4.0455   40.9000   68.5964  H     
82   H         3.1105   40.5810   70.0721  H     
83   H         4.5665   41.5515   70.1674  H     
84   H         0.9871   46.5767   67.1110  H     
85   H         2.1719   46.7920   65.8148  H     
86   H        -2.0024   43.3327   65.4656  H     
87   H        -1.4596   44.2063   64.1193  H     
88   H         1.9392   45.6605   63.6239  H     
89   H         0.4711   44.7638   63.2051  H     
90   H         1.7120   44.0000   64.2222  H     
@<TRIPOS>BOND
     1    1    2 2
     2    1    6 1
     3    2    3 1
     4    2    8 1
     5    3    4 2
     6    3   25 1
     7    4    5 1
     8    5    6 2
     9    6   10 1
    10    7   25 1
    11    8    9 1
    12    9   26 1
    13   10   11 1
    14   11   12 1
    15   11   18 1
    16   12   13 1
    17   13   14 1
    18   13   21 1
    19   14   15 1
    20   14   22 1
    21   15   16 1
    22   16   17 1
    23   16   32 1
    24   17   23 2
    25   17   24 am
    26   18   19 1
    27   18   20 1
    28   24   34 1
    29   26   27 1
    30   27   28 1
    31   28   29 1
    32   30   34 1
    33   30   35 1
    34   30   38 1
    35   31   32 1
    36   32   33 1
    37   35   36 2
    38   35   37 am
    39    1   39 1
    40    4   40 1
    41    5   41 1
    42    7   42 1
    43    7   43 1
    44    7   44 1
    45    9   45 1
    46    9   46 1
    47   10   47 1
    48   10   48 1
    49   11   49 1
    50   12   50 1
    51   12   51 1
    52   13   52 1
    53   14   53 1
    54   15   54 1
    55   15   55 1
    56   16   56 1
    57   18   57 1
    58   19   58 1
    59   19   59 1
    60   19   60 1
    61   20   61 1
    62   20   62 1
    63   20   63 1
    64   21   64 1
    65   21   65 1
    66   21   66 1
    67   22   67 1
    68   24   68 1
    69   26   69 1
    70   26   70 1
    71   27   71 1
    72   27   72 1
    73   29   73 1
    74   29   74 1
    75   29   75 1
    76   30   76 1
    77   31   77 1
    78   31   78 1
    79   31   79 1
    80   32   80 1
    81   33   81 1
    82   33   82 1
    83   33   83 1
    84   34   84 1
    85   34   85 1
    86   37   86 1
    87   37   87 1
    88   38   88 1
    89   38   89 1
    90   38   90 1
@<TRIPOS>PROPERTY_DATA
  Total_Score	| 16.8120
  Crash		| -1.7353
  Polar		| 9.5545
  FragIndex	| 1
  FragRMSD	| 0.381

