@<TRIPOS>MOLECULE
BindingDB_50348989
 111 111 0 0 0
SMALL
NO_CHARGES


@<TRIPOS>ATOM
1    C        12.3398   48.2724   72.1801  C     
2    C        12.4724   49.6600   72.4049  C     
3    C        11.3932   50.5118   72.0997  C     
4    C        10.1943   49.9881   71.5691  C     
5    C        10.0465   48.6004   71.3555  C     
6    C        11.1212   47.7462   71.7243  C     
7    O        13.4105   47.4531   72.4028  O     
8    C        13.6923   46.4242   71.4239  C     
9    C        13.8005   45.0780   72.1796  C     
10   C        14.1471   43.8529   71.3024  C     
11   O        15.2577   44.0993   70.4107  O     
12   C        14.9140   44.5246   69.0834  C     
13   O        13.6864   50.1710   72.7859  O     
14   C        13.6331   50.9755   73.9835  C     
15   C         8.9060   48.0307   70.5894  C     
16   C         9.3055   47.3077   69.2441  C     
17   C         8.0394   46.8303   68.4354  C     
18   C         7.3037   45.5568   68.9607  C     
19   C         5.8764   45.4084   68.3317  C     
20   C         4.9766   44.3754   69.0771  C     
21   C         3.6450   43.9543   68.3534  C     
22   C         2.9326   45.1452   67.8715  C     
23   N         2.7327   45.3378   66.5651  N     
24   C         2.2903   46.5436   65.9186  C     
25   C         0.9173   46.4313   65.1628  C     
26   C        -0.2709   46.1989   66.1604  C     
27   C        10.3166   48.1469   68.3623  C     
28   C        10.8248   47.3946   67.0910  C     
29   C         9.8136   49.5739   67.9944  C     
30   N         8.1084   44.3465   68.6864  N     
31   O         5.9546   45.0332   66.9531  O     
32   C         2.6872   43.0459   69.2242  C     
33   C         1.4918   42.4986   68.3849  C     
34   C         3.4024   41.8339   69.8880  C     
35   O         2.6033   45.9891   68.6937  O     
36   C         0.6770   47.7620   64.3687  C     
37   C         0.9547   45.2524   64.1321  C     
38   N        -0.1438   46.9393   67.3817  N     
39   C        -0.3660   46.4825   68.6081  C     
40   C        -0.1691   47.3727   69.7341  C     
41   O        -0.7368   45.3336   68.8183  O     
42   C        -1.3113   48.4068   69.9508  C     
43   C        -2.7007   47.7954   70.3197  C     
44   C        -3.8686   48.1266   69.3462  C     
45   C        -4.2089   49.6342   69.2412  C     
46   H        11.4786   51.5186   72.2209  H     
47   H         9.4517   50.6393   71.2893  H     
48   H        11.0126   46.7409   71.5855  H     
49   H        12.9219   46.3321   70.6466  H     
50   H        14.6483   46.6655   70.9308  H     
51   H        14.5476   45.1960   72.9703  H     
52   H        12.8341   44.8777   72.6555  H     
53   H        14.4546   43.0526   71.9719  H     
54   H        13.2440   43.5064   70.7884  H     
55   H        14.4198   43.7145   68.5487  H     
56   H        15.8269   44.7871   68.5516  H     
57   H        14.2700   45.3985   69.0704  H     
58   H        13.0559   51.8946   73.8194  H     
59   H        14.6554   51.2605   74.2408  H     
60   H        13.2031   50.4165   74.8271  H     
61   H         8.3962   47.3212   71.2432  H     
62   H         8.1801   48.8199   70.3639  H     
63   H         9.8562   46.4075   69.5354  H     
64   H         7.3379   47.6703   68.3934  H     
65   H         8.3228   46.6138   67.4059  H     
66   H         7.1935   45.6482   70.0405  H     
67   H         5.3709   46.3779   68.3858  H     
68   H         5.5735   43.4756   69.2182  H     
69   H         4.7318   44.7689   70.0662  H     
70   H         3.9510   43.3470   67.4921  H     
71   H         2.9894   44.6118   65.9715  H     
72   H         2.2466   47.3788   66.6235  H     
73   H         3.0756   46.8049   65.2030  H     
74   H        -1.2036   46.5192   65.6960  H     
75   H        -0.3669   45.1264   66.3495  H     
76   H        11.2289   48.2916   68.9537  H     
77   H        11.0863   46.3603   67.3404  H     
78   H        11.7202   47.8855   66.6954  H     
79   H        10.0695   47.3879   66.2976  H     
80   H         8.9724   49.5303   67.2938  H     
81   H        10.6290   50.1496   67.5430  H     
82   H         9.4880   50.1199   68.8810  H     
83   H         8.2336   44.2253   67.6748  H     
84   H         7.6385   43.5192   69.0546  H     
85   H         9.0239   44.4275   69.1323  H     
86   H         6.6828   45.5591   66.5606  H     
87   H         2.2703   43.6468   70.0409  H     
88   H         0.9031   43.3204   67.9749  H     
89   H         0.8212   41.8917   69.0032  H     
90   H         1.8537   41.8872   67.5519  H     
91   H         3.9375   41.2411   69.1387  H     
92   H         2.6867   41.1864   70.4030  H     
93   H         4.1168   42.1784   70.6423  H     
94   H         0.6726   48.6254   65.0392  H     
95   H        -0.2827   47.7360   63.8449  H     
96   H         1.4614   47.9196   63.6244  H     
97   H         1.7665   45.3879   63.4106  H     
98   H         0.0129   45.1889   63.5799  H     
99   H         1.1096   44.2953   64.6389  H     
100  H         0.1617   47.8590   67.3137  H     
101  H        -0.0474   46.7990   70.6562  H     
102  H         0.7667   47.9113   69.5805  H     
103  H        -0.9990   49.0569   70.7742  H     
104  H        -1.3881   49.0476   69.0692  H     
105  H        -2.6124   46.7078   70.3801  H     
106  H        -2.9883   48.1281   71.3209  H     
107  H        -3.6499   47.7468   68.3470  H     
108  H        -4.7693   47.6114   69.6938  H     
109  H        -4.4986   50.0236   70.2212  H     
110  H        -5.0465   49.7744   68.5503  H     
111  H        -3.3577   50.2081   68.8688  H     
@<TRIPOS>BOND
     1    1    2 2
     2    1    6 1
     3    1    7 1
     4    2    3 1
     5    2   13 1
     6    3    4 2
     7    4    5 1
     8    5    6 2
     9    5   15 1
    10    7    8 1
    11    8    9 1
    12    9   10 1
    13   10   11 1
    14   11   12 1
    15   13   14 1
    16   15   16 1
    17   16   17 1
    18   16   27 1
    19   17   18 1
    20   18   19 1
    21   18   30 1
    22   19   20 1
    23   19   31 1
    24   20   21 1
    25   21   22 1
    26   21   32 1
    27   22   23 am
    28   22   35 2
    29   23   24 1
    30   24   25 1
    31   25   26 1
    32   25   36 1
    33   25   37 1
    34   26   38 1
    35   27   28 1
    36   27   29 1
    37   32   33 1
    38   32   34 1
    39   38   39 am
    40   39   40 1
    41   39   41 2
    42   40   42 1
    43   42   43 1
    44   43   44 1
    45   44   45 1
    46    3   46 1
    47    4   47 1
    48    6   48 1
    49    8   49 1
    50    8   50 1
    51    9   51 1
    52    9   52 1
    53   10   53 1
    54   10   54 1
    55   12   55 1
    56   12   56 1
    57   12   57 1
    58   14   58 1
    59   14   59 1
    60   14   60 1
    61   15   61 1
    62   15   62 1
    63   16   63 1
    64   17   64 1
    65   17   65 1
    66   18   66 1
    67   19   67 1
    68   20   68 1
    69   20   69 1
    70   21   70 1
    71   23   71 1
    72   24   72 1
    73   24   73 1
    74   26   74 1
    75   26   75 1
    76   27   76 1
    77   28   77 1
    78   28   78 1
    79   28   79 1
    80   29   80 1
    81   29   81 1
    82   29   82 1
    83   30   83 1
    84   30   84 1
    85   30   85 1
    86   31   86 1
    87   32   87 1
    88   33   88 1
    89   33   89 1
    90   33   90 1
    91   34   91 1
    92   34   92 1
    93   34   93 1
    94   36   94 1
    95   36   95 1
    96   36   96 1
    97   37   97 1
    98   37   98 1
    99   37   99 1
   100   38  100 1
   101   40  101 1
   102   40  102 1
   103   42  103 1
   104   42  104 1
   105   43  105 1
   106   43  106 1
   107   44  107 1
   108   44  108 1
   109   45  109 1
   110   45  110 1
   111   45  111 1
@<TRIPOS>PROPERTY_DATA
  Total_Score	| 17.0441
  Crash		| -2.3467
  Polar		| 8.4950
  FragIndex	| 1
  FragRMSD	| 0.100

