@<TRIPOS>MOLECULE
BindingDB_18336
 93 93 0 0 0
SMALL
NO_CHARGES


@<TRIPOS>ATOM
1    C        10.9873   47.7372   71.6250  C     
2    C        12.2579   48.1735   72.0654  C     
3    C        12.4216   49.5096   72.4963  C     
4    C        11.3408   50.4166   72.3648  C     
5    C        10.1219   49.9998   71.7962  C     
6    C         9.9504   48.6620   71.3708  C     
7    C        13.7163   50.7968   74.0402  C     
8    O        13.3802   47.3614   71.9701  O     
9    C        13.5014   46.5386   70.7713  C     
10   C         8.7937   48.2421   70.5270  C     
11   C         9.1740   47.3787   69.2551  C     
12   C         7.9030   46.8959   68.4680  C     
13   C         7.2363   45.5636   68.9573  C     
14   C         5.8552   45.3224   68.2613  C     
15   C         4.9388   44.3142   69.0276  C     
16   C         3.5836   43.9387   68.3256  C     
17   C         2.9002   45.1608   67.8798  C     
18   C        10.2565   48.0606   68.3213  C     
19   C        10.4630   47.3225   66.9634  C     
20   C        10.0342   49.5801   68.0766  C     
21   N         8.1204   44.3991   68.7339  N     
22   O         6.0142   44.8602   66.9163  O     
23   O         2.5021   45.9555   68.7248  O     
24   N         2.8001   45.4287   66.5823  N     
25   O        13.6684   49.9253   72.8916  O     
26   C        14.8601   45.8085   70.7171  C     
27   C        14.9497   44.7036   69.6218  C     
28   O        15.4705   43.4519   70.1126  O     
29   C        14.5770   42.5514   70.7977  C     
30   C         0.9562   46.4137   65.2172  C     
31   C         1.4233   42.4926   68.4082  C     
32   C         2.6414   43.0360   69.2144  C     
33   C         3.3748   41.8282   69.8708  C     
34   C         2.3035   46.6286   65.9761  C     
35   C        -0.1477   46.1886   66.1544  C     
36   O        -0.7862   45.1411   66.1318  O     
37   C         1.0984   45.3265   64.1070  C     
38   N        -0.4580   47.1378   67.0316  N     
39   C        -1.4876   47.0459   68.0132  C     
40   H        10.8920   46.7564   71.3412  H     
41   H        11.4643   51.3945   72.6337  H     
42   H         9.3790   50.6932   71.6505  H     
43   H        13.3266   51.7892   73.7913  H     
44   H        14.7612   50.8991   74.3375  H     
45   H        13.1585   50.3913   74.8937  H     
46   H        12.6936   45.8010   70.7950  H     
47   H        13.3716   47.1498   69.8602  H     
48   H         8.1240   47.6603   71.1705  H     
49   H         8.2276   49.1214   70.1963  H     
50   H         9.6595   46.4786   69.6386  H     
51   H         7.1590   47.6982   68.5120  H     
52   H         8.1506   46.7537   67.4166  H     
53   H         7.0625   45.6473   70.0311  H     
54   H         5.3244   46.2786   68.2186  H     
55   H         5.5179   43.3964   69.1636  H     
56   H         4.7210   44.7255   70.0186  H     
57   H         3.8488   43.3384   67.4452  H     
58   H        11.2224   47.9699   68.8259  H     
59   H        10.4984   46.2389   67.1075  H     
60   H        11.4147   47.6237   66.5146  H     
61   H         9.6626   47.5544   66.2551  H     
62   H         9.0979   49.7553   67.5448  H     
63   H        10.8538   49.9832   67.4752  H     
64   H        10.0154   50.1225   69.0236  H     
65   H         8.2860   44.2684   67.7304  H     
66   H         7.6760   43.5565   69.1034  H     
67   H         9.0119   44.5402   69.2148  H     
68   H         6.7029   45.4234   66.5024  H     
69   H         3.1245   44.7513   65.9679  H     
70   H        15.6302   46.5602   70.5334  H     
71   H        15.0640   45.3562   71.6902  H     
72   H        13.9981   44.5688   69.0975  H     
73   H        15.6786   45.0340   68.8793  H     
74   H        14.2615   42.9508   71.7637  H     
75   H        15.1213   41.6233   70.9782  H     
76   H        13.7002   42.3259   70.1827  H     
77   H         0.7338   47.3494   64.6932  H     
78   H         0.8168   43.3118   68.0152  H     
79   H         0.7753   41.8869   69.0477  H     
80   H         1.7573   41.8748   67.5715  H     
81   H         2.2459   43.6487   70.0321  H     
82   H         3.8973   41.2387   69.1160  H     
83   H         2.6659   41.1796   70.3892  H     
84   H         4.0956   42.1726   70.6131  H     
85   H         2.1881   47.4368   66.7053  H     
86   H         3.0623   46.9723   65.2687  H     
87   H         1.8954   45.5977   63.4128  H     
88   H         0.1679   45.2455   63.5409  H     
89   H         1.3304   44.3518   64.5417  H     
90   H         0.0574   47.9631   67.0129  H     
91   H        -2.4557   46.8942   67.5327  H     
92   H        -1.5181   47.9757   68.5826  H     
93   H        -1.2864   46.2201   68.6980  H     
@<TRIPOS>BOND
     1    1    2 2
     2    1    6 1
     3    2    3 1
     4    2    8 1
     5    3    4 2
     6    3   25 1
     7    4    5 1
     8    5    6 2
     9    6   10 1
    10    7   25 1
    11    8    9 1
    12    9   26 1
    13   10   11 1
    14   11   12 1
    15   11   18 1
    16   12   13 1
    17   13   14 1
    18   13   21 1
    19   14   15 1
    20   14   22 1
    21   15   16 1
    22   16   17 1
    23   16   32 1
    24   17   23 2
    25   17   24 am
    26   18   19 1
    27   18   20 1
    28   24   34 1
    29   26   27 1
    30   27   28 1
    31   28   29 1
    32   30   34 1
    33   30   35 1
    34   30   37 1
    35   31   32 1
    36   32   33 1
    37   35   36 2
    38   35   38 am
    39   38   39 1
    40    1   40 1
    41    4   41 1
    42    5   42 1
    43    7   43 1
    44    7   44 1
    45    7   45 1
    46    9   46 1
    47    9   47 1
    48   10   48 1
    49   10   49 1
    50   11   50 1
    51   12   51 1
    52   12   52 1
    53   13   53 1
    54   14   54 1
    55   15   55 1
    56   15   56 1
    57   16   57 1
    58   18   58 1
    59   19   59 1
    60   19   60 1
    61   19   61 1
    62   20   62 1
    63   20   63 1
    64   20   64 1
    65   21   65 1
    66   21   66 1
    67   21   67 1
    68   22   68 1
    69   24   69 1
    70   26   70 1
    71   26   71 1
    72   27   72 1
    73   27   73 1
    74   29   74 1
    75   29   75 1
    76   29   76 1
    77   30   77 1
    78   31   78 1
    79   31   79 1
    80   31   80 1
    81   32   81 1
    82   33   82 1
    83   33   83 1
    84   33   84 1
    85   34   85 1
    86   34   86 1
    87   37   87 1
    88   37   88 1
    89   37   89 1
    90   38   90 1
    91   39   91 1
    92   39   92 1
    93   39   93 1
@<TRIPOS>PROPERTY_DATA
  Total_Score	| 16.9367
  Crash		| -1.7112
  Polar		| 8.7758
  FragIndex	| 1
  FragRMSD	| 0.280

