@<TRIPOS>MOLECULE
BindingDB_50348986
 105 105 0 0 0
SMALL
NO_CHARGES


@<TRIPOS>ATOM
1    C        12.7606   47.5486   71.9297  C     
2    C        12.8523   48.7538   72.6724  C     
3    C        11.7374   49.6194   72.7308  C     
4    C        10.5374   49.2834   72.0759  C     
5    C        10.4192   48.0681   71.3563  C     
6    C        11.5355   47.1983   71.3258  C     
7    O        13.8600   46.7180   71.8873  O     
8    C        14.3684   46.3551   70.5737  C     
9    C        13.7846   44.9994   70.0726  C     
10   C        14.8137   44.0477   69.4005  C     
11   O        15.6328   43.3009   70.3203  O     
12   C        14.9651   42.3116   71.1297  C     
13   O        14.0133   49.1199   73.2943  O     
14   C        14.3146   48.3316   74.4648  C     
15   C         9.1783   47.7135   70.6106  C     
16   C         9.3933   47.1619   69.1505  C     
17   C         8.0262   46.8001   68.4563  C     
18   C         7.2848   45.5108   68.9509  C     
19   C         5.8778   45.3461   68.2870  C     
20   C         4.9334   44.3807   69.0696  C     
21   C         3.5947   43.9903   68.3517  C     
22   C         2.9127   45.2053   67.8756  C     
23   N         2.8008   45.4414   66.5709  N     
24   C         2.3467   46.6443   65.9342  C     
25   C         1.0076   46.4700   65.1281  C     
26   C        -0.1892   46.1416   66.0895  C     
27   C        10.3128   48.0926   68.2627  C     
28   C        10.6772   47.4601   66.8834  C     
29   C         9.7887   49.5468   68.0777  C     
30   N         8.1038   44.3050   68.7100  N     
31   O         6.0039   44.8880   66.9390  O     
32   C         2.6439   43.0803   69.2251  C     
33   C         1.4305   42.5375   68.4087  C     
34   C         3.3726   41.8694   69.8857  C     
35   O         2.5184   46.0201   68.7042  O     
36   C         0.7089   47.7846   64.3308  C     
37   C         1.1628   45.3055   64.0895  C     
38   N        -0.2304   46.9803   67.2534  N     
39   C        -0.6784   46.6448   68.4560  C     
40   C        -0.5983   47.6419   69.5079  C     
41   O        -1.1276   45.5252   68.6744  O     
42   C        -1.2762   47.2818   70.8624  C     
43   C        -1.4882   48.5221   71.7605  C     
44   H        11.8133   50.5048   73.2342  H     
45   H         9.7533   49.9413   72.1207  H     
46   H        11.4619   46.2982   70.8403  H     
47   H        14.1906   47.1447   69.8274  H     
48   H        15.4494   46.2620   70.6834  H     
49   H        13.3237   44.4684   70.9092  H     
50   H        12.9901   45.2132   69.3507  H     
51   H        14.2947   43.3631   68.7250  H     
52   H        15.4897   44.6514   68.7886  H     
53   H        14.3289   42.8098   71.8718  H     
54   H        15.7112   41.7246   71.6631  H     
55   H        14.3593   41.6278   70.5236  H     
56   H        13.4929   48.3464   75.1914  H     
57   H        15.1926   48.7638   74.9441  H     
58   H        14.5426   47.2964   74.1935  H     
59   H         8.6830   46.9478   71.2109  H     
60   H         8.4923   48.5648   70.5676  H     
61   H         9.9415   46.2217   69.2537  H     
62   H         7.3492   47.6514   68.5821  H     
63   H         8.2006   46.6808   67.3843  H     
64   H         7.1338   45.5969   70.0252  H     
65   H         5.3992   46.3306   68.2603  H     
66   H         5.4991   43.4659   69.2568  H     
67   H         4.7021   44.8261   70.0436  H     
68   H         3.8851   43.3876   67.4853  H     
69   H         3.1223   44.7414   65.9750  H     
70   H         2.2310   47.4566   66.6568  H     
71   H         3.1428   46.9487   65.2499  H     
72   H        -1.1368   46.2552   65.5517  H     
73   H        -0.1153   45.0944   66.3924  H     
74   H        11.2703   48.1771   68.7895  H     
75   H        10.9520   46.4092   66.9968  H     
76   H        11.5357   47.9821   66.4573  H     
77   H         9.8487   47.5269   66.1728  H     
78   H         8.8723   49.5669   67.4794  H     
79   H        10.5448   50.1511   67.5682  H     
80   H         9.5841   50.0071   69.0477  H     
81   H         8.2577   44.1779   67.7035  H     
82   H         7.6164   43.4845   69.0782  H     
83   H         9.0032   44.3900   69.1879  H     
84   H         6.7100   45.4280   66.5211  H     
85   H         2.2382   43.6856   70.0407  H     
86   H         0.8329   43.3587   68.0183  H     
87   H         0.7758   41.9340   69.0449  H     
88   H         1.7705   41.9192   67.5737  H     
89   H         3.9088   41.2834   69.1341  H     
90   H         2.6608   41.2143   70.3962  H     
91   H         4.0840   42.2152   70.6412  H     
92   H         0.5951   48.6362   65.0034  H     
93   H        -0.2142   47.6856   63.7522  H     
94   H         1.5205   48.0121   63.6360  H     
95   H         2.0113   45.4865   63.4246  H     
96   H         0.2617   45.2089   63.4762  H     
97   H         1.3272   44.3491   64.5976  H     
98   H         0.1187   47.8811   67.1578  H     
99   H         0.4596   47.8370   69.7069  H     
100  H        -1.0498   48.5670   69.1332  H     
101  H        -2.2534   46.8184   70.6775  H     
102  H        -0.6525   46.5600   71.4013  H     
103  H        -0.5376   49.0285   71.9415  H     
104  H        -1.9129   48.2163   72.7207  H     
105  H        -2.1779   49.2219   71.2824  H     
@<TRIPOS>BOND
     1    1    2 2
     2    1    6 1
     3    1    7 1
     4    2    3 1
     5    2   13 1
     6    3    4 2
     7    4    5 1
     8    5    6 2
     9    5   15 1
    10    7    8 1
    11    8    9 1
    12    9   10 1
    13   10   11 1
    14   11   12 1
    15   13   14 1
    16   15   16 1
    17   16   17 1
    18   16   27 1
    19   17   18 1
    20   18   19 1
    21   18   30 1
    22   19   20 1
    23   19   31 1
    24   20   21 1
    25   21   22 1
    26   21   32 1
    27   22   23 am
    28   22   35 2
    29   23   24 1
    30   24   25 1
    31   25   26 1
    32   25   36 1
    33   25   37 1
    34   26   38 1
    35   27   28 1
    36   27   29 1
    37   32   33 1
    38   32   34 1
    39   38   39 am
    40   39   40 1
    41   39   41 2
    42   40   42 1
    43   42   43 1
    44    3   44 1
    45    4   45 1
    46    6   46 1
    47    8   47 1
    48    8   48 1
    49    9   49 1
    50    9   50 1
    51   10   51 1
    52   10   52 1
    53   12   53 1
    54   12   54 1
    55   12   55 1
    56   14   56 1
    57   14   57 1
    58   14   58 1
    59   15   59 1
    60   15   60 1
    61   16   61 1
    62   17   62 1
    63   17   63 1
    64   18   64 1
    65   19   65 1
    66   20   66 1
    67   20   67 1
    68   21   68 1
    69   23   69 1
    70   24   70 1
    71   24   71 1
    72   26   72 1
    73   26   73 1
    74   27   74 1
    75   28   75 1
    76   28   76 1
    77   28   77 1
    78   29   78 1
    79   29   79 1
    80   29   80 1
    81   30   81 1
    82   30   82 1
    83   30   83 1
    84   31   84 1
    85   32   85 1
    86   33   86 1
    87   33   87 1
    88   33   88 1
    89   34   89 1
    90   34   90 1
    91   34   91 1
    92   36   92 1
    93   36   93 1
    94   36   94 1
    95   37   95 1
    96   37   96 1
    97   37   97 1
    98   38   98 1
    99   40   99 1
   100   40  100 1
   101   42  101 1
   102   42  102 1
   103   43  103 1
   104   43  104 1
   105   43  105 1
@<TRIPOS>PROPERTY_DATA
  Total_Score	| 16.9396
  Crash		| -1.8244
  Polar		| 8.7842
  FragIndex	| 1
  FragRMSD	| 0.132

