@<TRIPOS>MOLECULE
BindingDB_50348988
 108 108 0 0 0
SMALL
NO_CHARGES


@<TRIPOS>ATOM
1    C        12.4879   48.0287   72.2474  C     
2    C        12.5728   49.4061   72.5135  C     
3    C        11.5048   50.2606   72.1851  C     
4    C        10.3166   49.7347   71.6449  C     
5    C        10.2163   48.3575   71.3224  C     
6    C        11.3236   47.5299   71.6017  C     
7    O        13.5609   47.2663   72.6626  O     
8    C        13.8140   46.0024   72.0239  C     
9    C        14.3646   46.2198   70.5847  C     
10   C        14.4379   44.9440   69.7097  C     
11   O        15.3617   43.9816   70.2680  O     
12   C        14.7608   42.8911   70.9887  C     
13   O        13.7574   49.9103   72.9835  O     
14   C        13.6695   50.8213   74.0971  C     
15   C         9.0003   47.8000   70.6478  C     
16   C         9.2381   47.2562   69.1872  C     
17   C         7.8911   46.8154   68.5049  C     
18   C         7.1729   45.5051   68.9658  C     
19   C         5.7539   45.3434   68.3096  C     
20   C         4.8356   44.3092   69.0411  C     
21   C         3.5151   43.8855   68.3019  C     
22   C         2.7722   45.0839   67.8943  C     
23   N         2.5123   45.3015   66.6068  N     
24   C         1.9122   46.4713   66.0298  C     
25   C         0.7841   46.1561   64.9772  C     
26   C        -0.1187   44.9774   65.4988  C     
27   C        10.0791   48.2735   68.3000  C     
28   C        11.0149   47.5267   67.2881  C     
29   C         9.2410   49.4275   67.6306  C     
30   N         8.0062   44.3214   68.6754  N     
31   O         5.8498   44.9861   66.9273  O     
32   C         2.6217   42.8793   69.1333  C     
33   C         1.4181   42.3347   68.3049  C     
34   C         3.4210   41.6657   69.7040  C     
35   O         2.4468   45.8901   68.7581  O     
36   C        -0.0765   47.4509   64.7954  C     
37   C         1.4230   45.7861   63.6010  C     
38   N        -1.4184   44.9334   64.8902  N     
39   C        -2.5444   45.4783   65.3526  C     
40   C        -3.8033   45.3657   64.5913  C     
41   O        -2.5143   46.0934   66.4153  O     
42   C        -4.1980   43.8584   64.4611  C     
43   C        -4.9949   46.1155   65.2873  C     
44   C        -3.6072   45.9922   63.1732  C     
45   H        11.5917   51.2697   72.3156  H     
46   H         9.5409   50.3730   71.4426  H     
47   H        11.3294   46.5489   71.3087  H     
48   H        14.5667   45.4801   72.6111  H     
49   H        12.8923   45.3965   72.0462  H     
50   H        13.7434   46.9528   70.0615  H     
51   H        15.3702   46.6500   70.6635  H     
52   H        13.4259   44.5511   69.5357  H     
53   H        14.8460   45.2288   68.7334  H     
54   H        14.2060   43.2666   71.8485  H     
55   H        15.5611   42.2372   71.3438  H     
56   H        14.0950   42.3110   70.3454  H     
57   H        13.2562   51.7823   73.7738  H     
58   H        14.6897   50.9845   74.4677  H     
59   H        13.0561   50.4193   74.9165  H     
60   H         8.6384   46.9902   71.2880  H     
61   H         8.2114   48.5605   70.6148  H     
62   H         9.8147   46.3350   69.3169  H     
63   H         7.1706   47.6295   68.6260  H     
64   H         8.0829   46.7114   67.4352  H     
65   H         7.0408   45.5491   70.0508  H     
66   H         5.2539   46.3116   68.3630  H     
67   H         5.4383   43.4153   69.2010  H     
68   H         4.5792   44.7182   70.0265  H     
69   H         3.8272   43.3483   67.4022  H     
70   H         2.8124   44.6221   65.9792  H     
71   H         1.5022   47.1247   66.8061  H     
72   H         2.7154   47.0318   65.5414  H     
73   H         0.3691   44.0264   65.2720  H     
74   H        -0.1875   45.0410   66.5882  H     
75   H        10.7793   48.8151   68.9649  H     
76   H        11.6363   46.8036   67.8310  H     
77   H        11.6966   48.2403   66.8214  H     
78   H        10.4412   46.9996   66.5110  H     
79   H         8.6961   49.0548   66.7478  H     
80   H         9.9130   50.2434   67.3340  H     
81   H         8.5308   49.8524   68.3574  H     
82   H         8.1504   44.2392   67.6638  H     
83   H         7.5425   43.4705   69.0060  H     
84   H         8.9105   44.4056   69.1465  H     
85   H         6.6154   45.4685   66.5588  H     
86   H         2.2105   43.4208   69.9936  H     
87   H         0.7482   43.1482   68.0228  H     
88   H         0.8370   41.6186   68.8917  H     
89   H         1.7755   41.8357   67.4013  H     
90   H         3.9735   41.1597   68.9061  H     
91   H         2.7413   40.9416   70.1692  H     
92   H         4.1280   41.9965   70.4719  H     
93   H        -0.5728   47.7187   65.7296  H     
94   H        -0.8441   47.3073   64.0325  H     
95   H         0.5494   48.2908   64.4851  H     
96   H         2.0804   46.5875   63.2524  H     
97   H         0.6503   45.6284   62.8452  H     
98   H         2.0139   44.8716   63.6735  H     
99   H        -1.4759   44.4644   64.0362  H     
100  H        -3.4292   43.2913   63.9323  H     
101  H        -5.1319   43.7487   63.9037  H     
102  H        -4.3368   43.4093   65.4472  H     
103  H        -5.1668   45.7233   66.2906  H     
104  H        -5.9189   45.9985   64.7168  H     
105  H        -4.7850   47.1829   65.3726  H     
106  H        -3.3124   47.0414   63.2535  H     
107  H        -4.5330   45.9410   62.5939  H     
108  H        -2.8347   45.4654   62.6084  H     
@<TRIPOS>BOND
     1    1    2 2
     2    1    6 1
     3    1    7 1
     4    2    3 1
     5    2   13 1
     6    3    4 2
     7    4    5 1
     8    5    6 2
     9    5   15 1
    10    7    8 1
    11    8    9 1
    12    9   10 1
    13   10   11 1
    14   11   12 1
    15   13   14 1
    16   15   16 1
    17   16   17 1
    18   16   27 1
    19   17   18 1
    20   18   19 1
    21   18   30 1
    22   19   20 1
    23   19   31 1
    24   20   21 1
    25   21   22 1
    26   21   32 1
    27   22   23 am
    28   22   35 2
    29   23   24 1
    30   24   25 1
    31   25   26 1
    32   25   36 1
    33   25   37 1
    34   26   38 1
    35   27   28 1
    36   27   29 1
    37   32   33 1
    38   32   34 1
    39   38   39 am
    40   39   40 1
    41   39   41 2
    42   40   42 1
    43   40   43 1
    44   40   44 1
    45    3   45 1
    46    4   46 1
    47    6   47 1
    48    8   48 1
    49    8   49 1
    50    9   50 1
    51    9   51 1
    52   10   52 1
    53   10   53 1
    54   12   54 1
    55   12   55 1
    56   12   56 1
    57   14   57 1
    58   14   58 1
    59   14   59 1
    60   15   60 1
    61   15   61 1
    62   16   62 1
    63   17   63 1
    64   17   64 1
    65   18   65 1
    66   19   66 1
    67   20   67 1
    68   20   68 1
    69   21   69 1
    70   23   70 1
    71   24   71 1
    72   24   72 1
    73   26   73 1
    74   26   74 1
    75   27   75 1
    76   28   76 1
    77   28   77 1
    78   28   78 1
    79   29   79 1
    80   29   80 1
    81   29   81 1
    82   30   82 1
    83   30   83 1
    84   30   84 1
    85   31   85 1
    86   32   86 1
    87   33   87 1
    88   33   88 1
    89   33   89 1
    90   34   90 1
    91   34   91 1
    92   34   92 1
    93   36   93 1
    94   36   94 1
    95   36   95 1
    96   37   96 1
    97   37   97 1
    98   37   98 1
    99   38   99 1
   100   42  100 1
   101   42  101 1
   102   42  102 1
   103   43  103 1
   104   43  104 1
   105   43  105 1
   106   44  106 1
   107   44  107 1
   108   44  108 1
@<TRIPOS>PROPERTY_DATA
  Total_Score	| 16.8139
  Crash		| -2.0022
  Polar		| 8.8317
  FragIndex	| 1
  FragRMSD	| 0.179

