@<TRIPOS>MOLECULE
BindingDB_17950
 93 93 0 0 0
SMALL
NO_CHARGES


@<TRIPOS>ATOM
1    C        11.4762   47.2407   71.2292  C     
2    C        12.5344   47.6758   72.0517  C     
3    C        12.4145   48.8630   72.8028  C     
4    C        11.2186   49.6057   72.7178  C     
5    C        10.1536   49.1609   71.9114  C     
6    C        10.2642   47.9701   71.1475  C     
7    C         9.0927   47.4275   70.4039  C     
8    C         7.8013   46.8319   68.2382  C     
9    O        13.7151   46.9831   72.0902  O     
10   C        13.7036   45.6882   72.7285  C     
11   C        13.6963   44.5339   71.6923  C     
12   C        14.5235   44.8250   70.4078  C     
13   O        15.4730   43.7951   70.0774  O     
14   C        14.9899   42.7283   69.2494  C     
15   O        13.3898   49.1751   73.7162  O     
16   C        14.0560   50.4336   73.5345  C     
17   C         9.1786   47.2940   68.8418  C     
18   C         9.6982   48.5683   68.0612  C     
19   C         8.6750   49.7327   67.9303  C     
20   C        11.0656   49.1230   68.5676  C     
21   C         7.1392   45.5341   68.8080  C     
22   N         8.0505   44.3797   68.6960  N     
23   C         5.7680   45.2215   68.1290  C     
24   C         4.8834   44.2403   68.9682  C     
25   C         3.5018   43.8347   68.3302  C     
26   C         2.7983   45.0431   67.8833  C     
27   O         5.9496   44.6962   66.8127  O     
28   O         2.4582   45.8612   68.7395  O     
29   N         2.6998   45.3117   66.5850  N     
30   C         2.3537   46.5636   65.9790  C     
31   C        -0.1297   46.2922   66.0465  C     
32   C         2.6240   42.9005   69.2607  C     
33   C         1.3518   42.3581   68.5389  C     
34   C         3.4217   41.6788   69.8265  C     
35   C         0.8206   47.9279   64.4529  C     
36   C         1.0211   46.5367   65.1503  C     
37   C         1.1282   45.4659   64.0049  C     
38   O        -0.8626   45.3180   65.9295  O     
39   N        -0.4501   47.1295   67.0056  N     
40   H        11.5693   46.3631   70.7176  H     
41   H        11.0859   50.4421   73.2957  H     
42   H         9.2873   49.7195   71.8764  H     
43   H         8.9258   46.4322   70.8283  H     
44   H         8.1933   48.0145   70.6388  H     
45   H         7.0773   47.6361   68.3700  H     
46   H         7.9362   46.6789   67.1722  H     
47   H        14.6278   45.6346   73.2946  H     
48   H        12.8819   45.5631   73.4363  H     
49   H        14.0889   43.6432   72.1904  H     
50   H        12.6583   44.2991   71.4154  H     
51   H        13.8405   45.0200   69.5656  H     
52   H        15.1137   45.7349   70.5505  H     
53   H        14.1145   42.2487   69.6841  H     
54   H        15.7785   41.9850   69.1480  H     
55   H        14.7449   43.1175   68.2612  H     
56   H        14.4310   50.5460   72.5114  H     
57   H        14.9129   50.4559   74.2171  H     
58   H        13.3797   51.2619   73.7764  H     
59   H         9.8872   46.4929   68.6272  H     
60   H         9.9234   48.2512   67.0344  H     
61   H         7.7917   49.4079   67.3836  H     
62   H         9.1092   50.5676   67.3802  H     
63   H         8.3611   50.0938   68.9069  H     
64   H        10.9448   49.6806   69.4864  H     
65   H        11.5026   49.7848   67.8165  H     
66   H        11.7777   48.3158   68.7283  H     
67   H         6.9456   45.7000   69.8716  H     
68   H         8.2963   44.2093   67.7201  H     
69   H         7.6012   43.5432   69.0708  H     
70   H         8.8997   44.5564   69.2322  H     
71   H         5.2065   46.1528   68.0388  H     
72   H         5.4630   43.3348   69.1296  H     
73   H         4.6929   44.6917   69.9462  H     
74   H         3.7421   43.2221   67.4532  H     
75   H         6.5971   45.2872   66.3677  H     
76   H         2.9877   44.6141   65.9815  H     
77   H         2.2961   47.3656   66.7300  H     
78   H         3.1924   46.8317   65.3218  H     
79   H         2.2814   43.4845   70.1185  H     
80   H         0.6840   43.1830   68.2665  H     
81   H         0.7860   41.6824   69.1885  H     
82   H         1.6245   41.8144   67.6296  H     
83   H         3.9487   41.1593   69.0221  H     
84   H         2.7610   40.9673   70.3263  H     
85   H         4.1516   42.0081   70.5680  H     
86   H         0.8826   48.7409   65.1799  H     
87   H        -0.1531   47.9840   63.9626  H     
88   H         1.5931   48.1004   63.6989  H     
89   H         1.9964   45.6599   63.3699  H     
90   H         0.2365   45.4714   63.3783  H     
91   H         1.2352   44.4588   64.4191  H     
92   H        -1.2435   46.9755   67.5495  H     
93   H         0.0751   47.9367   67.1530  H     
@<TRIPOS>BOND
     1    1    2 2
     2    1    6 1
     3    2    3 1
     4    2    9 1
     5    3    4 2
     6    3   15 1
     7    4    5 1
     8    5    6 2
     9    6    7 1
    10    7   17 1
    11    8   17 1
    12    8   21 1
    13    9   10 1
    14   10   11 1
    15   11   12 1
    16   12   13 1
    17   13   14 1
    18   15   16 1
    19   17   18 1
    20   18   19 1
    21   18   20 1
    22   21   22 1
    23   21   23 1
    24   23   24 1
    25   23   27 1
    26   24   25 1
    27   25   26 1
    28   25   32 1
    29   26   28 2
    30   26   29 am
    31   29   30 1
    32   30   36 1
    33   31   36 1
    34   31   38 2
    35   31   39 am
    36   32   33 1
    37   32   34 1
    38   35   36 1
    39   36   37 1
    40    1   40 1
    41    4   41 1
    42    5   42 1
    43    7   43 1
    44    7   44 1
    45    8   45 1
    46    8   46 1
    47   10   47 1
    48   10   48 1
    49   11   49 1
    50   11   50 1
    51   12   51 1
    52   12   52 1
    53   14   53 1
    54   14   54 1
    55   14   55 1
    56   16   56 1
    57   16   57 1
    58   16   58 1
    59   17   59 1
    60   18   60 1
    61   19   61 1
    62   19   62 1
    63   19   63 1
    64   20   64 1
    65   20   65 1
    66   20   66 1
    67   21   67 1
    68   22   68 1
    69   22   69 1
    70   22   70 1
    71   23   71 1
    72   24   72 1
    73   24   73 1
    74   25   74 1
    75   27   75 1
    76   29   76 1
    77   30   77 1
    78   30   78 1
    79   32   79 1
    80   33   80 1
    81   33   81 1
    82   33   82 1
    83   34   83 1
    84   34   84 1
    85   34   85 1
    86   35   86 1
    87   35   87 1
    88   35   88 1
    89   37   89 1
    90   37   90 1
    91   37   91 1
    92   39   92 1
    93   39   93 1
@<TRIPOS>PROPERTY_DATA
  Total_Score	| 15.8773
  Crash		| -1.8325
  Polar		| 8.9842
  FragIndex	| 1
  FragRMSD	| 0.562

