@<TRIPOS>MOLECULE
BindingDB_18337
 96 96 0 0 0
SMALL
NO_CHARGES


@<TRIPOS>ATOM
1    C        11.3713   47.5996   71.5700  C     
2    C        12.5950   48.0533   72.1013  C     
3    C        12.7072   49.3844   72.5819  C     
4    C        11.6189   50.2628   72.4235  C     
5    C        10.4223   49.8164   71.8104  C     
6    C        10.2843   48.4829   71.3464  C     
7    C        13.8628   50.7509   74.1652  C     
8    O        13.6720   47.2006   72.1552  O     
9    C        14.0788   46.6523   70.8787  C     
10   C         9.0920   48.0174   70.5708  C     
11   C         9.4160   47.2461   69.2350  C     
12   C         8.1097   46.8446   68.4642  C     
13   C         7.3721   45.5677   68.9689  C     
14   C         5.9462   45.4037   68.3368  C     
15   C         5.1045   44.3094   69.0588  C     
16   C         3.8172   43.8136   68.3164  C     
17   C         2.9204   44.9368   68.0060  C     
18   C        10.4700   47.9945   68.3265  C     
19   C        10.6796   47.3120   66.9362  C     
20   C        10.2096   49.5185   68.1750  C     
21   N         8.1773   44.3530   68.7080  N     
22   O         6.0301   45.0792   66.9454  O     
23   O         2.5247   45.6539   68.9104  O     
24   N         2.6819   45.2476   66.7267  N     
25   O        13.9204   49.8053   73.0751  O     
26   C        14.0423   45.1134   70.9747  C     
27   C        14.6756   44.4378   69.7307  C     
28   O        15.4372   43.2487   70.0232  O     
29   C        14.7048   42.1129   70.5074  C     
30   C         3.1534   42.6297   70.5929  C     
31   C         3.1462   42.5868   69.0389  C     
32   C         1.7117   42.2866   68.5294  C     
33   C         2.0723   46.4335   66.2038  C     
34   C        -0.3390   45.7426   66.0011  C     
35   O        -1.4208   46.3284   65.9151  O     
36   C         0.5573   47.5692   64.5088  C     
37   C         0.8370   46.2072   65.2403  C     
38   C         1.1738   45.1595   64.1284  C     
39   N        -0.2886   44.6470   66.7568  N     
40   C        -1.3845   44.0689   67.4569  C     
41   H        11.3032   46.6318   71.2418  H     
42   H        11.7092   51.2433   72.7352  H     
43   H         9.6570   50.4879   71.6836  H     
44   H        13.5201   51.7276   73.8169  H     
45   H        14.8663   50.8599   74.5864  H     
46   H        13.1981   50.4021   74.9595  H     
47   H        13.4630   46.9723   70.0232  H     
48   H        15.1098   46.9609   70.6857  H     
49   H         8.5211   47.3739   71.2441  H     
50   H         8.4585   48.8800   70.3476  H     
51   H         9.9115   46.3261   69.5489  H     
52   H         7.4222   47.6944   68.5005  H     
53   H         8.3567   46.6821   67.4171  H     
54   H         7.2502   45.6609   70.0501  H     
55   H         5.4139   46.3590   68.4268  H     
56   H         5.7438   43.4423   69.2284  H     
57   H         4.8288   44.7104   70.0391  H     
58   H         4.1782   43.3984   67.3689  H     
59   H        11.4471   47.9009   68.8153  H     
60   H        10.6697   46.2215   67.0344  H     
61   H        11.6534   47.5961   66.5254  H     
62   H         9.9050   47.6076   66.2196  H     
63   H         9.2782   49.7179   67.6354  H     
64   H        11.0367   49.9831   67.6334  H     
65   H        10.1519   49.9998   69.1536  H     
66   H         8.2760   44.2147   67.6989  H     
67   H         7.7117   43.5370   69.1085  H     
68   H         9.1009   44.4467   69.1354  H     
69   H         6.8320   45.5174   66.5974  H     
70   H         3.0589   44.6467   66.0700  H     
71   H        14.5778   44.8019   71.8714  H     
72   H        13.0024   44.7830   71.0678  H     
73   H        13.9056   44.2230   68.9800  H     
74   H        15.3810   45.1371   69.2724  H     
75   H        14.3674   42.2818   71.5317  H     
76   H        15.3698   41.2461   70.5085  H     
77   H        13.8453   41.8858   69.8738  H     
78   H         4.1693   42.6927   70.9803  H     
79   H         2.7256   41.7099   70.9951  H     
80   H         2.5739   43.4796   70.9584  H     
81   H         3.7406   41.7065   68.7727  H     
82   H         1.0397   43.1019   68.8032  H     
83   H         1.3211   41.3647   68.9715  H     
84   H         1.7053   42.1674   67.4416  H     
85   H         1.7794   47.1282   66.9999  H     
86   H         2.8716   46.9247   65.6433  H     
87   H         0.3099   48.3573   65.2264  H     
88   H        -0.2803   47.4731   63.8086  H     
89   H         1.4263   47.9016   63.9323  H     
90   H         2.0550   45.4701   63.5609  H     
91   H         0.3365   45.0571   63.4292  H     
92   H         1.3758   44.1734   64.5516  H     
93   H         0.5649   44.1863   66.8154  H     
94   H        -1.7821   44.7717   68.1921  H     
95   H        -1.0496   43.1728   67.9794  H     
96   H        -2.1786   43.7876   66.7597  H     
@<TRIPOS>BOND
     1    1    2 2
     2    1    6 1
     3    2    3 1
     4    2    8 1
     5    3    4 2
     6    3   25 1
     7    4    5 1
     8    5    6 2
     9    6   10 1
    10    7   25 1
    11    8    9 1
    12    9   26 1
    13   10   11 1
    14   11   12 1
    15   11   18 1
    16   12   13 1
    17   13   14 1
    18   13   21 1
    19   14   15 1
    20   14   22 1
    21   15   16 1
    22   16   17 1
    23   16   31 1
    24   17   23 2
    25   17   24 am
    26   18   19 1
    27   18   20 1
    28   24   33 1
    29   26   27 1
    30   27   28 1
    31   28   29 1
    32   30   31 1
    33   31   32 1
    34   33   37 1
    35   34   35 2
    36   34   37 1
    37   34   39 am
    38   36   37 1
    39   37   38 1
    40   39   40 1
    41    1   41 1
    42    4   42 1
    43    5   43 1
    44    7   44 1
    45    7   45 1
    46    7   46 1
    47    9   47 1
    48    9   48 1
    49   10   49 1
    50   10   50 1
    51   11   51 1
    52   12   52 1
    53   12   53 1
    54   13   54 1
    55   14   55 1
    56   15   56 1
    57   15   57 1
    58   16   58 1
    59   18   59 1
    60   19   60 1
    61   19   61 1
    62   19   62 1
    63   20   63 1
    64   20   64 1
    65   20   65 1
    66   21   66 1
    67   21   67 1
    68   21   68 1
    69   22   69 1
    70   24   70 1
    71   26   71 1
    72   26   72 1
    73   27   73 1
    74   27   74 1
    75   29   75 1
    76   29   76 1
    77   29   77 1
    78   30   78 1
    79   30   79 1
    80   30   80 1
    81   31   81 1
    82   32   82 1
    83   32   83 1
    84   32   84 1
    85   33   85 1
    86   33   86 1
    87   36   87 1
    88   36   88 1
    89   36   89 1
    90   38   90 1
    91   38   91 1
    92   38   92 1
    93   39   93 1
    94   40   94 1
    95   40   95 1
    96   40   96 1
@<TRIPOS>PROPERTY_DATA
  Total_Score	| 15.9494
  Crash		| -2.4175
  Polar		| 7.5990
  FragIndex	| 1
  FragRMSD	| 0.597

