@<TRIPOS>MOLECULE
BindingDB_18335
 93 93 0 0 0
SMALL
NO_CHARGES


@<TRIPOS>ATOM
1    C        11.3878   47.5569   71.6214  C     
2    C        12.5746   48.0250   72.2237  C     
3    C        12.6638   49.3965   72.5560  C     
4    C        11.5889   50.2671   72.2717  C     
5    C        10.4255   49.7798   71.6466  C     
6    C        10.3152   48.4109   71.3028  C     
7    C        13.6893   50.7727   74.1901  C     
8    O        13.7090   47.2532   72.3561  O     
9    C        13.6604   45.9089   72.8974  C     
10   C         9.1474   47.8674   70.5395  C     
11   C         9.5262   47.1136   69.2152  C     
12   C         8.2908   46.5047   68.4593  C     
13   C         7.2553   45.6753   69.2885  C     
14   C         6.0036   45.2779   68.4484  C     
15   C         4.9795   44.4228   69.2564  C     
16   C         3.6849   44.0103   68.4696  C     
17   C         2.9988   45.2134   67.9849  C     
18   C        10.4772   47.9657   68.2814  C     
19   C        10.7460   47.3028   66.9039  C     
20   C        10.0394   49.4443   68.0968  C     
21   N         7.8611   44.4758   69.9058  N     
22   O         6.3686   44.5494   67.2713  O     
23   O         2.6030   46.0413   68.7974  O     
24   N         2.8577   45.4078   66.6806  N     
25   O        13.8402   49.8739   73.0749  O     
26   C        13.5916   44.7460   71.8531  C     
27   C        14.4531   44.9258   70.5661  C     
28   O        15.3591   43.8564   70.2119  O     
29   C        14.8059   42.5316   70.1754  C     
30   C         0.8193   46.2680   65.5100  C     
31   C         1.5208   42.5761   68.3816  C     
32   C         2.7038   43.0684   69.2690  C     
33   C         3.4108   41.8288   69.8970  C     
34   C         2.2683   46.5373   66.0317  C     
35   C         0.6365   44.8737   65.0933  C     
36   O        -0.0680   44.1062   65.7396  O     
37   C        -0.2425   46.7567   66.5368  C     
38   N         1.3171   44.4283   64.0475  N     
39   C         1.3829   43.0712   63.6283  C     
40   H        11.3133   46.5807   71.3710  H     
41   H        11.6695   51.2675   72.4823  H     
42   H         9.6743   50.4382   71.4164  H     
43   H        13.2895   51.7406   73.8590  H     
44   H        14.6784   50.9513   74.6226  H     
45   H        13.0456   50.3529   74.9813  H     
46   H        14.5911   45.7807   73.4592  H     
47   H        12.8374   45.8067   73.6138  H     
48   H         8.6420   47.1807   71.2186  H     
49   H         8.4330   48.6539   70.3080  H     
50   H        10.1304   46.2509   69.5185  H     
51   H         7.7585   47.3122   67.9351  H     
52   H         8.6873   45.8245   67.6913  H     
53   H         6.9040   46.3182   70.0976  H     
54   H         5.5144   46.2003   68.1327  H     
55   H         5.4971   43.5148   69.5764  H     
56   H         4.6885   44.9726   70.1581  H     
57   H         4.0264   43.4228   67.6111  H     
58   H        11.4593   47.9941   68.7525  H     
59   H        11.0223   46.2473   67.0195  H     
60   H        11.5797   47.8046   66.3995  H     
61   H         9.8754   47.3622   66.2501  H     
62   H         9.1240   49.5182   67.5062  H     
63   H        10.8241   50.0090   67.5831  H     
64   H         9.8675   49.9292   69.0538  H     
65   H         7.7287   43.6564   69.3024  H     
66   H         7.3980   44.2945   70.8014  H     
67   H         8.8635   44.6129   70.0683  H     
68   H         6.8546   45.1680   66.6818  H     
69   H         3.1613   44.6907   66.0936  H     
70   H        13.8640   43.8147   72.3573  H     
71   H        12.5547   44.6012   71.5540  H     
72   H        13.7844   45.1126   69.7049  H     
73   H        15.0874   45.8184   70.6600  H     
74   H        14.7681   42.1341   71.1896  H     
75   H        15.4685   41.8998   69.5809  H     
76   H        13.8049   42.5036   69.7246  H     
77   H         0.6759   46.8890   64.6195  H     
78   H         0.9162   43.4160   68.0391  H     
79   H         0.8651   41.9058   68.9379  H     
80   H         1.9024   42.0398   67.5106  H     
81   H         2.2745   43.6448   70.0996  H     
82   H         4.0222   41.3124   69.1524  H     
83   H         2.6844   41.1210   70.3029  H     
84   H         4.0517   42.1386   70.7254  H     
85   H         2.2874   47.4188   66.6711  H     
86   H         2.9095   46.7675   65.1777  H     
87   H        -0.1919   46.1785   67.4619  H     
88   H        -1.2465   46.6575   66.1189  H     
89   H        -0.0838   47.8101   66.7785  H     
90   H         1.8576   45.0672   63.5574  H     
91   H         1.7884   42.4479   64.4265  H     
92   H         2.0412   42.9893   62.7640  H     
93   H         0.3973   42.7047   63.3497  H     
@<TRIPOS>BOND
     1    1    2 2
     2    1    6 1
     3    2    3 1
     4    2    8 1
     5    3    4 2
     6    3   25 1
     7    4    5 1
     8    5    6 2
     9    6   10 1
    10    7   25 1
    11    8    9 1
    12    9   26 1
    13   10   11 1
    14   11   12 1
    15   11   18 1
    16   12   13 1
    17   13   14 1
    18   13   21 1
    19   14   15 1
    20   14   22 1
    21   15   16 1
    22   16   17 1
    23   16   32 1
    24   17   23 2
    25   17   24 am
    26   18   19 1
    27   18   20 1
    28   24   34 1
    29   26   27 1
    30   27   28 1
    31   28   29 1
    32   30   34 1
    33   30   35 1
    34   30   37 1
    35   31   32 1
    36   32   33 1
    37   35   36 2
    38   35   38 am
    39   38   39 1
    40    1   40 1
    41    4   41 1
    42    5   42 1
    43    7   43 1
    44    7   44 1
    45    7   45 1
    46    9   46 1
    47    9   47 1
    48   10   48 1
    49   10   49 1
    50   11   50 1
    51   12   51 1
    52   12   52 1
    53   13   53 1
    54   14   54 1
    55   15   55 1
    56   15   56 1
    57   16   57 1
    58   18   58 1
    59   19   59 1
    60   19   60 1
    61   19   61 1
    62   20   62 1
    63   20   63 1
    64   20   64 1
    65   21   65 1
    66   21   66 1
    67   21   67 1
    68   22   68 1
    69   24   69 1
    70   26   70 1
    71   26   71 1
    72   27   72 1
    73   27   73 1
    74   29   74 1
    75   29   75 1
    76   29   76 1
    77   30   77 1
    78   31   78 1
    79   31   79 1
    80   31   80 1
    81   32   81 1
    82   33   82 1
    83   33   83 1
    84   33   84 1
    85   34   85 1
    86   34   86 1
    87   37   87 1
    88   37   88 1
    89   37   89 1
    90   38   90 1
    91   39   91 1
    92   39   92 1
    93   39   93 1
@<TRIPOS>PROPERTY_DATA
  Total_Score	| 14.5612
  Crash		| -1.4793
  Polar		| 6.2604
  FragIndex	| 1
  FragRMSD	| 1.058

