@<TRIPOS>MOLECULE
BindingDB_50348983
 99 99 0 0 0
SMALL
NO_CHARGES


@<TRIPOS>ATOM
1    C        12.5078   48.1402   72.2942  C     
2    C        12.6620   49.5340   72.5207  C     
3    C        11.6287   50.4159   72.1656  C     
4    C        10.4426   49.9270   71.5663  C     
5    C        10.2534   48.5418   71.3517  C     
6    C        11.2858   47.6600   71.7585  C     
7    O        13.5331   47.3017   72.6756  O     
8    C        13.7743   46.0333   72.0043  C     
9    C        14.4088   46.2211   70.5850  C     
10   C        14.4437   44.9263   69.7150  C     
11   O        15.3107   43.8935   70.2357  O     
12   C        14.6601   42.8402   70.9815  C     
13   O        13.8408   50.0446   72.9809  O     
14   C        13.7410   50.7498   74.2338  C     
15   C         9.0722   48.0055   70.6079  C     
16   C         9.3873   47.2640   69.2609  C     
17   C         8.0666   46.8588   68.4954  C     
18   C         7.3332   45.5719   68.9993  C     
19   C         5.8869   45.4002   68.3883  C     
20   C         5.0084   44.3887   69.1932  C     
21   C         3.7354   43.8326   68.4622  C     
22   C         2.8280   44.9001   68.0905  C     
23   N         2.2411   44.8760   66.8782  N     
24   C         1.0989   45.6238   66.4807  C     
25   C         0.9737   45.7605   64.9210  C     
26   C         2.2970   46.3838   64.3425  C     
27   C        10.4211   48.0362   68.3619  C     
28   C        10.7614   47.2781   67.0362  C     
29   C        10.0550   49.5089   68.0506  C     
30   N         8.1457   44.3659   68.7132  N     
31   O         5.9587   44.9633   67.0304  O     
32   C         3.0126   42.6760   69.2947  C     
33   C         1.6520   42.1852   68.7012  C     
34   C         3.9423   41.4352   69.4647  C     
35   O         2.4603   45.7287   68.9383  O     
36   C         0.7237   44.3668   64.2545  C     
37   C        -0.2390   46.6733   64.5659  C     
38   N         2.5242   47.7168   64.8002  N     
39   C         2.3754   48.8432   64.1102  C     
40   C         2.4372   50.0977   64.8009  C     
41   O         2.0650   48.8291   62.9213  O     
42   H        11.7343   51.4274   72.3052  H     
43   H         9.7063   50.5976   71.2939  H     
44   H        11.1580   46.6587   71.6546  H     
45   H        14.4985   45.4653   72.6108  H     
46   H        12.8468   45.4458   71.9172  H     
47   H        13.8318   46.9755   70.0356  H     
48   H        15.4363   46.5921   70.6954  H     
49   H        13.4119   44.5842   69.5122  H     
50   H        14.8670   45.2071   68.7433  H     
51   H        14.1714   43.2223   71.8948  H     
52   H        15.4239   42.1193   71.2817  H     
53   H        13.9135   42.3210   70.3638  H     
54   H        13.1083   51.6380   74.1547  H     
55   H        14.7398   51.0844   74.5293  H     
56   H        13.3573   50.1018   75.0240  H     
57   H         8.5628   47.3201   71.2795  H     
58   H         8.3691   48.8145   70.3978  H     
59   H         9.8892   46.3384   69.5453  H     
60   H         7.3602   47.7060   68.5482  H     
61   H         8.2739   46.7051   67.4331  H     
62   H         7.2197   45.6465   70.0865  H     
63   H         5.3906   46.3702   68.4084  H     
64   H         5.6402   43.5480   69.4485  H     
65   H         4.7133   44.8617   70.1406  H     
66   H         4.0886   43.3618   67.5359  H     
67   H         2.6208   44.2278   66.2362  H     
68   H         0.2095   45.1275   66.8803  H     
69   H         1.1502   46.6149   66.9309  H     
70   H         3.1556   45.7934   64.6695  H     
71   H         2.2804   46.3170   63.2480  H     
72   H        11.3799   48.0646   68.8885  H     
73   H        11.0225   46.2374   67.2457  H     
74   H        11.6063   47.7579   66.5362  H     
75   H         9.9022   47.3030   66.3426  H     
76   H         9.2024   49.5701   67.3559  H     
77   H        10.9139   50.0192   67.5967  H     
78   H         9.7987   50.0576   68.9631  H     
79   H         8.2377   44.2388   67.7061  H     
80   H         7.7020   43.5365   69.1182  H     
81   H         9.0726   44.4693   69.1346  H     
82   H         6.6654   45.4648   66.5816  H     
83   H         2.7923   43.0617   70.2866  H     
84   H         0.9049   42.9781   68.7303  H     
85   H         1.2578   41.3451   69.2878  H     
86   H         1.7765   41.8475   67.6624  H     
87   H         4.1915   41.0165   68.4764  H     
88   H         3.4518   40.6598   70.0561  H     
89   H         4.8742   41.6895   69.9727  H     
90   H         1.6044   43.7309   64.3143  H     
91   H         0.4748   44.4789   63.1944  H     
92   H        -0.1056   43.8467   64.7364  H     
93   H        -1.1792   46.2337   64.9170  H     
94   H        -0.3280   46.8140   63.4822  H     
95   H        -0.1446   47.6603   65.0189  H     
96   H         2.7659   47.8261   65.7312  H     
97   H         1.6790   50.1278   65.5842  H     
98   H         2.2521   50.9324   64.1262  H     
99   H         3.4153   50.2378   65.2598  H     
@<TRIPOS>BOND
     1    1    2 2
     2    1    6 1
     3    1    7 1
     4    2    3 1
     5    2   13 1
     6    3    4 2
     7    4    5 1
     8    5    6 2
     9    5   15 1
    10    7    8 1
    11    8    9 1
    12    9   10 1
    13   10   11 1
    14   11   12 1
    15   13   14 1
    16   15   16 1
    17   16   17 1
    18   16   27 1
    19   17   18 1
    20   18   19 1
    21   18   30 1
    22   19   20 1
    23   19   31 1
    24   20   21 1
    25   21   22 1
    26   21   32 1
    27   22   23 am
    28   22   35 2
    29   23   24 1
    30   24   25 1
    31   25   26 1
    32   25   36 1
    33   25   37 1
    34   26   38 1
    35   27   28 1
    36   27   29 1
    37   32   33 1
    38   32   34 1
    39   38   39 am
    40   39   40 1
    41   39   41 2
    42    3   42 1
    43    4   43 1
    44    6   44 1
    45    8   45 1
    46    8   46 1
    47    9   47 1
    48    9   48 1
    49   10   49 1
    50   10   50 1
    51   12   51 1
    52   12   52 1
    53   12   53 1
    54   14   54 1
    55   14   55 1
    56   14   56 1
    57   15   57 1
    58   15   58 1
    59   16   59 1
    60   17   60 1
    61   17   61 1
    62   18   62 1
    63   19   63 1
    64   20   64 1
    65   20   65 1
    66   21   66 1
    67   23   67 1
    68   24   68 1
    69   24   69 1
    70   26   70 1
    71   26   71 1
    72   27   72 1
    73   28   73 1
    74   28   74 1
    75   28   75 1
    76   29   76 1
    77   29   77 1
    78   29   78 1
    79   30   79 1
    80   30   80 1
    81   30   81 1
    82   31   82 1
    83   32   83 1
    84   33   84 1
    85   33   85 1
    86   33   86 1
    87   34   87 1
    88   34   88 1
    89   34   89 1
    90   36   90 1
    91   36   91 1
    92   36   92 1
    93   37   93 1
    94   37   94 1
    95   37   95 1
    96   38   96 1
    97   40   97 1
    98   40   98 1
    99   40   99 1
@<TRIPOS>PROPERTY_DATA
  Total_Score	| 18.0175
  Crash		| -1.8757
  Polar		| 7.5325
  FragIndex	| 1
  FragRMSD	| 0.919

