@<TRIPOS>MOLECULE
BindingDB_50348987
 108 108 0 0 0
SMALL
NO_CHARGES


@<TRIPOS>ATOM
1    C        12.5589   48.0141   72.1117  C     
2    C        12.6590   49.3506   72.5570  C     
3    C        11.5615   50.2235   72.3782  C     
4    C        10.3659   49.7549   71.7878  C     
5    C        10.2454   48.4075   71.3618  C     
6    C        11.3382   47.5357   71.5944  C     
7    O        13.6353   47.1658   72.1754  O     
8    C        14.0927   46.6542   70.9015  C     
9    C        14.0575   45.1047   70.9254  C     
10   C        14.7942   44.4653   69.7165  C     
11   O        15.4941   43.2526   70.0484  O     
12   C        14.7012   42.1701   70.5461  C     
13   O        13.8654   49.8073   73.0259  O     
14   C        13.8129   50.6779   74.1620  C     
15   C         9.0531   47.9232   70.6019  C     
16   C         9.3683   47.2143   69.2283  C     
17   C         8.0399   46.8273   68.4810  C     
18   C         7.3026   45.5432   68.9871  C     
19   C         5.9187   45.3396   68.2804  C     
20   C         4.9725   44.3718   69.0642  C     
21   C         3.6251   43.9957   68.3512  C     
22   C         2.9491   45.2219   67.9043  C     
23   N         2.8275   45.4776   66.6055  N     
24   C         2.3538   46.6844   65.9813  C     
25   C         1.0233   46.4980   65.1601  C     
26   C        -0.1754   46.0940   66.0949  C     
27   C        10.4000   48.0046   68.3201  C     
28   C        10.6992   47.2884   66.9687  C     
29   C        10.0397   49.5008   68.0830  C     
30   N         8.1441   44.3431   68.7832  N     
31   O         6.0872   44.8544   66.9403  O     
32   C         2.6808   43.0777   69.2201  C     
33   C         1.4322   42.6031   68.4165  C     
34   C         3.3998   41.8269   69.8126  C     
35   O         2.5479   46.0141   68.7450  O     
36   C         0.6848   47.8376   64.4210  C     
37   C         1.2192   45.3900   64.0737  C     
38   N        -0.6248   47.1663   66.9370  N     
39   C        -1.8455   47.3365   67.4355  C     
40   C        -2.1597   48.4908   68.2706  C     
41   O        -2.7471   46.5461   67.1683  O     
42   C        -1.8803   48.2970   69.8060  C     
43   C        -0.4297   48.7079   70.1983  C     
44   C        -2.9054   49.0665   70.6856  C     
45   H        11.6442   51.2073   72.6624  H     
46   H         9.5943   50.4156   71.6395  H     
47   H        11.2755   46.5574   71.2938  H     
48   H        13.4980   47.0065   70.0546  H     
49   H        15.1215   46.9821   70.7490  H     
50   H        14.5085   44.7576   71.8626  H     
51   H        13.0090   44.7797   70.9207  H     
52   H        14.0810   44.2868   68.9102  H     
53   H        15.5390   45.1678   69.3523  H     
54   H        14.3291   42.3981   71.5468  H     
55   H        15.3412   41.2840   70.6154  H     
56   H        13.8585   41.9427   69.8846  H     
57   H        13.3217   51.6173   73.8916  H     
58   H        14.8429   50.8816   74.4802  H     
59   H        13.2847   50.2104   74.9968  H     
60   H         8.5291   47.2247   71.2650  H     
61   H         8.3687   48.7591   70.4237  H     
62   H         9.8790   46.2798   69.4910  H     
63   H         7.3573   47.6823   68.5494  H     
64   H         8.2606   46.6712   67.4211  H     
65   H         7.1214   45.6498   70.0643  H     
66   H         5.4173   46.3153   68.2208  H     
67   H         5.5316   43.4522   69.2416  H     
68   H         4.7528   44.8169   70.0402  H     
69   H         3.9056   43.4097   67.4720  H     
70   H         3.1631   44.8035   65.9910  H     
71   H         2.2195   47.4832   66.7224  H     
72   H         3.1473   47.0162   65.3053  H     
73   H        -0.9935   45.7093   65.4760  H     
74   H         0.1425   45.2764   66.7539  H     
75   H        11.3621   48.0048   68.8495  H     
76   H        10.8738   46.2198   67.1338  H     
77   H        11.6035   47.7088   66.5131  H     
78   H         9.8705   47.4083   66.2664  H     
79   H         9.1317   49.5979   67.4789  H     
80   H        10.8636   50.0018   67.5665  H     
81   H         9.8871   50.0199   69.0310  H     
82   H         8.3422   44.2261   67.7797  H     
83   H         7.6471   43.5110   69.1218  H     
84   H         9.0224   44.4399   69.3034  H     
85   H         6.7612   45.4317   66.5198  H     
86   H         2.3186   43.6652   70.0703  H     
87   H         0.8452   43.4607   68.0703  H     
88   H         0.7801   41.9920   69.0437  H     
89   H         1.7402   42.0132   67.5466  H     
90   H         3.9209   41.2687   69.0298  H     
91   H         2.6845   41.1550   70.2945  H     
92   H         4.1236   42.1193   70.5767  H     
93   H         0.5730   48.6606   65.1324  H     
94   H        -0.2484   47.7428   63.8580  H     
95   H         1.4807   48.1034   63.7175  H     
96   H         2.0666   45.6282   63.4230  H     
97   H         0.3276   45.2983   63.4449  H     
98   H         1.4047   44.4156   64.5324  H     
99   H         0.0383   47.8322   67.1812  H     
100  H        -1.6003   49.3537   67.8945  H     
101  H        -3.2253   48.7354   68.1309  H     
102  H        -2.0000   47.2366   70.0584  H     
103  H         0.3082   48.1290   69.6397  H     
104  H        -0.2609   48.5231   71.2627  H     
105  H        -0.2598   49.7696   69.9981  H     
106  H        -2.8570   50.1436   70.4991  H     
107  H        -2.7109   48.8854   71.7486  H     
108  H        -3.9218   48.7240   70.4712  H     
@<TRIPOS>BOND
     1    1    2 2
     2    1    6 1
     3    1    7 1
     4    2    3 1
     5    2   13 1
     6    3    4 2
     7    4    5 1
     8    5    6 2
     9    5   15 1
    10    7    8 1
    11    8    9 1
    12    9   10 1
    13   10   11 1
    14   11   12 1
    15   13   14 1
    16   15   16 1
    17   16   17 1
    18   16   27 1
    19   17   18 1
    20   18   19 1
    21   18   30 1
    22   19   20 1
    23   19   31 1
    24   20   21 1
    25   21   22 1
    26   21   32 1
    27   22   23 am
    28   22   35 2
    29   23   24 1
    30   24   25 1
    31   25   26 1
    32   25   36 1
    33   25   37 1
    34   26   38 1
    35   27   28 1
    36   27   29 1
    37   32   33 1
    38   32   34 1
    39   38   39 am
    40   39   40 1
    41   39   41 2
    42   40   42 1
    43   42   43 1
    44   42   44 1
    45    3   45 1
    46    4   46 1
    47    6   47 1
    48    8   48 1
    49    8   49 1
    50    9   50 1
    51    9   51 1
    52   10   52 1
    53   10   53 1
    54   12   54 1
    55   12   55 1
    56   12   56 1
    57   14   57 1
    58   14   58 1
    59   14   59 1
    60   15   60 1
    61   15   61 1
    62   16   62 1
    63   17   63 1
    64   17   64 1
    65   18   65 1
    66   19   66 1
    67   20   67 1
    68   20   68 1
    69   21   69 1
    70   23   70 1
    71   24   71 1
    72   24   72 1
    73   26   73 1
    74   26   74 1
    75   27   75 1
    76   28   76 1
    77   28   77 1
    78   28   78 1
    79   29   79 1
    80   29   80 1
    81   29   81 1
    82   30   82 1
    83   30   83 1
    84   30   84 1
    85   31   85 1
    86   32   86 1
    87   33   87 1
    88   33   88 1
    89   33   89 1
    90   34   90 1
    91   34   91 1
    92   34   92 1
    93   36   93 1
    94   36   94 1
    95   36   95 1
    96   37   96 1
    97   37   97 1
    98   37   98 1
    99   38   99 1
   100   40  100 1
   101   40  101 1
   102   42  102 1
   103   43  103 1
   104   43  104 1
   105   43  105 1
   106   44  106 1
   107   44  107 1
   108   44  108 1
@<TRIPOS>PROPERTY_DATA
  Total_Score	| 17.5130
  Crash		| -1.8416
  Polar		| 8.6292
  FragIndex	| 1
  FragRMSD	| 0.154

