@<TRIPOS>MOLECULE
BindingDB_18330
 93 93 0 0 0
SMALL
NO_CHARGES


@<TRIPOS>ATOM
1    C        11.2995   47.5396   71.6113  C     
2    C        12.5183   48.0050   72.1330  C     
3    C        12.6331   49.3529   72.5579  C     
4    C        11.5421   50.2281   72.3783  C     
5    C        10.3398   49.7647   71.8067  C     
6    C        10.2119   48.4158   71.3863  C     
7    C        13.8121   50.6758   74.1493  C     
8    O        13.5876   47.1528   72.1860  O     
9    C        14.0124   46.6371   70.8988  C     
10   C         9.0388   47.9457   70.5952  C     
11   C         9.3907   47.1888   69.2583  C     
12   C         8.0882   46.8026   68.4758  C     
13   C         7.2975   45.5465   68.9800  C     
14   C         5.9214   45.3997   68.2519  C     
15   C         4.8830   44.5079   69.0093  C     
16   C         3.5129   44.2957   68.2724  C     
17   C         3.0234   45.5555   67.6965  C     
18   C        10.4595   47.9153   68.3465  C     
19   C        10.7518   47.1723   67.0130  C     
20   C        10.1663   49.4233   68.0917  C     
21   N         8.0959   44.3182   68.7921  N     
22   O         6.0829   44.8990   66.9171  O     
23   O         2.7715   46.4841   68.4602  O     
24   N         2.9551   45.7237   66.3785  N     
25   O        13.8524   49.7982   73.0058  O     
26   C        14.0823   45.0893   70.9767  C     
27   C        14.8159   44.4812   69.7522  C     
28   O        15.5010   43.2412   70.0250  O     
29   C        14.7049   42.1512   70.5003  C     
30   C         1.3592   46.7559   64.7833  C     
31   C         1.1451   44.3093   69.5178  C     
32   C         2.4520   43.5302   69.1780  C     
33   C         2.0747   42.1498   68.5706  C     
34   C         2.6162   46.9367   65.6840  C     
35   C         0.2361   47.6336   65.1352  C     
36   O        -0.7004   47.0646   65.6867  O     
37   N         0.1746   48.9640   64.8994  N     
38   C        -1.0196   49.6946   65.2793  C     
39   C         1.2589   49.6870   64.2603  C     
40   H        11.2313   46.5624   71.3021  H     
41   H        11.6247   51.2166   72.6190  H     
42   H         9.5810   50.4324   71.6633  H     
43   H        13.4106   51.6556   73.8753  H     
44   H        14.8351   50.8202   74.5082  H     
45   H        13.2212   50.2547   74.9700  H     
46   H        13.3616   46.9082   70.0635  H     
47   H        15.0102   47.0206   70.6792  H     
48   H         8.4740   47.2759   71.2543  H     
49   H         8.3791   48.7849   70.3684  H     
50   H         9.8656   46.2515   69.5679  H     
51   H         7.4179   47.6737   68.4929  H     
52   H         8.3324   46.6146   67.4286  H     
53   H         7.1081   45.6704   70.0497  H     
54   H         5.4876   46.4014   68.1731  H     
55   H         5.3422   43.5263   69.1873  H     
56   H         4.6925   44.9525   69.9875  H     
57   H         3.7714   43.6313   67.4426  H     
58   H        11.4119   47.8821   68.8869  H     
59   H        10.8256   46.0931   67.1814  H     
60   H        11.7065   47.5086   66.5915  H     
61   H         9.9748   47.3601   66.2677  H     
62   H         9.3027   49.5436   67.4275  H     
63   H        11.0403   49.8923   67.6242  H     
64   H         9.9677   49.9510   69.0279  H     
65   H         8.3427   44.2086   67.7961  H     
66   H         7.5514   43.5008   69.0873  H     
67   H         8.9492   44.3735   69.3565  H     
68   H         6.7499   45.4814   66.4897  H     
69   H         3.1800   44.9600   65.8206  H     
70   H        14.6055   44.8163   71.8949  H     
71   H        13.0645   44.6877   71.0265  H     
72   H        14.1148   44.3553   68.9197  H     
73   H        15.5850   45.1796   69.4239  H     
74   H        14.3908   42.3284   71.5297  H     
75   H        15.3160   41.2459   70.4841  H     
76   H        13.8267   41.9826   69.8738  H     
77   H         1.6346   46.9198   63.7388  H     
78   H         1.0390   45.6999   64.8295  H     
79   H         1.3795   45.2550   70.0046  H     
80   H         0.5164   43.7394   70.2130  H     
81   H         0.5552   44.5139   68.6181  H     
82   H         2.9160   43.3082   70.1486  H     
83   H         1.6132   42.2674   67.5882  H     
84   H         1.3774   41.6118   69.2245  H     
85   H         2.9730   41.5380   68.4661  H     
86   H         2.4786   47.7686   66.3878  H     
87   H         3.4818   47.1934   65.0665  H     
88   H        -1.8775   49.2994   64.7308  H     
89   H        -0.9668   50.7653   65.0737  H     
90   H        -1.2051   49.5812   66.3506  H     
91   H         2.1553   49.6652   64.8866  H     
92   H         1.0283   50.7417   64.0776  H     
93   H         1.4899   49.2458   63.2866  H     
@<TRIPOS>BOND
     1    1    2 2
     2    1    6 1
     3    2    3 1
     4    2    8 1
     5    3    4 2
     6    3   25 1
     7    4    5 1
     8    5    6 2
     9    6   10 1
    10    7   25 1
    11    8    9 1
    12    9   26 1
    13   10   11 1
    14   11   12 1
    15   11   18 1
    16   12   13 1
    17   13   14 1
    18   13   21 1
    19   14   15 1
    20   14   22 1
    21   15   16 1
    22   16   17 1
    23   16   32 1
    24   17   23 2
    25   17   24 am
    26   18   19 1
    27   18   20 1
    28   24   34 1
    29   26   27 1
    30   27   28 1
    31   28   29 1
    32   30   34 1
    33   30   35 1
    34   31   32 1
    35   32   33 1
    36   35   36 2
    37   35   37 am
    38   37   38 1
    39   37   39 1
    40    1   40 1
    41    4   41 1
    42    5   42 1
    43    7   43 1
    44    7   44 1
    45    7   45 1
    46    9   46 1
    47    9   47 1
    48   10   48 1
    49   10   49 1
    50   11   50 1
    51   12   51 1
    52   12   52 1
    53   13   53 1
    54   14   54 1
    55   15   55 1
    56   15   56 1
    57   16   57 1
    58   18   58 1
    59   19   59 1
    60   19   60 1
    61   19   61 1
    62   20   62 1
    63   20   63 1
    64   20   64 1
    65   21   65 1
    66   21   66 1
    67   21   67 1
    68   22   68 1
    69   24   69 1
    70   26   70 1
    71   26   71 1
    72   27   72 1
    73   27   73 1
    74   29   74 1
    75   29   75 1
    76   29   76 1
    77   30   77 1
    78   30   78 1
    79   31   79 1
    80   31   80 1
    81   31   81 1
    82   32   82 1
    83   33   83 1
    84   33   84 1
    85   33   85 1
    86   34   86 1
    87   34   87 1
    88   38   88 1
    89   38   89 1
    90   38   90 1
    91   39   91 1
    92   39   92 1
    93   39   93 1
@<TRIPOS>PROPERTY_DATA
  Total_Score	| 15.9056
  Crash		| -2.6118
  Polar		| 7.3243
  FragIndex	| 1
  FragRMSD	| 0.438

