@<TRIPOS>MOLECULE
BindingDB_50348985
 102 102 0 0 0
SMALL
NO_CHARGES


@<TRIPOS>ATOM
1    C        12.1797   48.1435   72.5875  C     
2    C        12.4694   49.5268   72.6308  C     
3    C        11.5553   50.4464   72.0667  C     
4    C        10.3692   49.9927   71.4530  C     
5    C        10.0778   48.6053   71.3903  C     
6    C        10.9835   47.6939   71.9847  C     
7    O        13.0470   47.2816   73.2049  O     
8    C        13.8154   46.3513   72.4147  C     
9    C        12.9308   45.2461   71.7838  C     
10   C        13.6848   43.9704   71.3324  C     
11   O        14.4068   44.2023   70.1047  O     
12   C        14.9500   43.0097   69.5157  C     
13   O        13.6706   49.9348   73.1684  O     
14   C        13.5979   50.9338   74.1935  C     
15   C         8.9016   48.0931   70.6204  C     
16   C         9.2612   47.3099   69.2956  C     
17   C         7.9608   46.8647   68.5184  C     
18   C         7.2720   45.5469   69.0057  C     
19   C         5.8777   45.3060   68.3297  C     
20   C         4.9761   44.3060   69.1312  C     
21   C         3.6426   43.8452   68.4387  C     
22   C         2.8746   45.0213   68.0068  C     
23   N         2.6228   45.2124   66.7151  N     
24   C         1.9806   46.3527   66.1247  C     
25   C         0.6956   46.0103   65.2838  C     
26   C         0.0599   47.3274   64.7045  C     
27   C        10.2985   48.0679   68.3771  C     
28   C        10.7243   47.2640   67.1068  C     
29   C         9.8589   49.5148   68.0063  C     
30   N         8.1507   44.3836   68.7554  N     
31   O         6.0415   44.8363   66.9854  O     
32   C         2.7518   42.8738   69.3114  C     
33   C         1.4938   42.3684   68.5341  C     
34   C         3.5323   41.6442   69.8672  C     
35   O         2.5190   45.8327   68.8553  O     
36   C         1.0540   45.0348   64.1146  C     
37   C        -0.3582   45.3179   66.2064  C     
38   N         1.0409   48.2505   64.2048  N     
39   C         1.1256   49.5505   64.4662  C     
40   C         2.2896   50.3359   64.1030  C     
41   O         0.2195   50.1378   65.0496  O     
42   C         3.4588   49.6092   63.3900  C     
43   H        11.7743   51.4488   72.0609  H     
44   H         9.7227   50.6799   71.0481  H     
45   H        10.7759   46.6895   71.9810  H     
46   H        14.4076   46.8561   71.6435  H     
47   H        14.5167   45.8750   73.1053  H     
48   H        12.1785   44.9404   72.5134  H     
49   H        12.4100   45.6632   70.9223  H     
50   H        14.3727   43.6520   72.1235  H     
51   H        12.9374   43.1853   71.1846  H     
52   H        15.6309   42.5032   70.2047  H     
53   H        15.5053   43.2831   68.6176  H     
54   H        14.1523   42.3205   69.2318  H     
55   H        13.2594   51.8798   73.7667  H     
56   H        14.6050   51.0706   74.6041  H     
57   H        12.9297   50.6307   75.0049  H     
58   H         8.3446   47.4345   71.2894  H     
59   H         8.2224   48.9151   70.3707  H     
60   H         9.7708   46.3940   69.6128  H     
61   H         7.2355   47.6837   68.5719  H     
62   H         8.1971   46.7210   67.4614  H     
63   H         7.1178   45.6224   70.0860  H     
64   H         5.3441   46.2603   68.2839  H     
65   H         5.5778   43.4187   69.3271  H     
66   H         4.7308   44.7573   70.1000  H     
67   H         3.9461   43.2748   67.5556  H     
68   H         2.9650   44.5458   66.0971  H     
69   H         1.7159   47.1042   66.8802  H     
70   H         2.7356   46.8079   65.4771  H     
71   H        -0.6071   47.0794   63.8741  H     
72   H        -0.5589   47.8011   65.4761  H     
73   H        11.2240   48.1655   68.9594  H     
74   H        10.8397   46.1998   67.3411  H     
75   H        11.6851   47.6326   66.7370  H     
76   H         9.9904   47.3683   66.3031  H     
77   H         8.9765   49.5000   67.3605  H     
78   H        10.6747   50.0280   67.4993  H     
79   H         9.6244   50.0934   68.9011  H     
80   H         8.3009   44.2703   67.7463  H     
81   H         7.7175   43.5330   69.1241  H     
82   H         9.0516   44.5208   69.2210  H     
83   H         6.6880   45.4386   66.5574  H     
84   H         2.3882   43.4287   70.1846  H     
85   H         0.8141   43.2013   68.3333  H     
86   H         0.9371   41.6325   69.1171  H     
87   H         1.7804   41.9098   67.5833  H     
88   H         4.0161   41.0930   69.0564  H     
89   H         2.8594   40.9665   70.3993  H     
90   H         4.2926   41.9634   70.5842  H     
91   H         1.8181   45.4669   63.4616  H     
92   H         0.1696   44.8164   63.5104  H     
93   H         1.4352   44.0808   64.4950  H     
94   H         0.0026   44.3447   66.5533  H     
95   H        -1.2966   45.1542   65.6698  H     
96   H        -0.5662   45.9316   67.0858  H     
97   H         1.7439   47.8631   63.6631  H     
98   H         1.9640   51.1534   63.4561  H     
99   H         2.6892   50.7762   65.0230  H     
100  H         3.8065   48.7709   63.9916  H     
101  H         4.2939   50.3022   63.2491  H     
102  H         3.1403   49.2469   62.4123  H     
@<TRIPOS>BOND
     1    1    2 2
     2    1    6 1
     3    1    7 1
     4    2    3 1
     5    2   13 1
     6    3    4 2
     7    4    5 1
     8    5    6 2
     9    5   15 1
    10    7    8 1
    11    8    9 1
    12    9   10 1
    13   10   11 1
    14   11   12 1
    15   13   14 1
    16   15   16 1
    17   16   17 1
    18   16   27 1
    19   17   18 1
    20   18   19 1
    21   18   30 1
    22   19   20 1
    23   19   31 1
    24   20   21 1
    25   21   22 1
    26   21   32 1
    27   22   23 am
    28   22   35 2
    29   23   24 1
    30   24   25 1
    31   25   26 1
    32   25   36 1
    33   25   37 1
    34   26   38 1
    35   27   28 1
    36   27   29 1
    37   32   33 1
    38   32   34 1
    39   38   39 am
    40   39   40 1
    41   39   41 2
    42   40   42 1
    43    3   43 1
    44    4   44 1
    45    6   45 1
    46    8   46 1
    47    8   47 1
    48    9   48 1
    49    9   49 1
    50   10   50 1
    51   10   51 1
    52   12   52 1
    53   12   53 1
    54   12   54 1
    55   14   55 1
    56   14   56 1
    57   14   57 1
    58   15   58 1
    59   15   59 1
    60   16   60 1
    61   17   61 1
    62   17   62 1
    63   18   63 1
    64   19   64 1
    65   20   65 1
    66   20   66 1
    67   21   67 1
    68   23   68 1
    69   24   69 1
    70   24   70 1
    71   26   71 1
    72   26   72 1
    73   27   73 1
    74   28   74 1
    75   28   75 1
    76   28   76 1
    77   29   77 1
    78   29   78 1
    79   29   79 1
    80   30   80 1
    81   30   81 1
    82   30   82 1
    83   31   83 1
    84   32   84 1
    85   33   85 1
    86   33   86 1
    87   33   87 1
    88   34   88 1
    89   34   89 1
    90   34   90 1
    91   36   91 1
    92   36   92 1
    93   36   93 1
    94   37   94 1
    95   37   95 1
    96   37   96 1
    97   38   97 1
    98   40   98 1
    99   40   99 1
   100   42  100 1
   101   42  101 1
   102   42  102 1
@<TRIPOS>PROPERTY_DATA
  Total_Score	| 16.8383
  Crash		| -2.4333
  Polar		| 7.3405
  FragIndex	| 1
  FragRMSD	| 0.930

