@<TRIPOS>MOLECULE
BindingDB_18331
 90 90 0 0 0
SMALL
NO_CHARGES


@<TRIPOS>ATOM
1    C        11.2958   47.5917   71.7192  C     
2    C        12.4934   48.0709   72.3165  C     
3    C        12.6343   49.4512   72.5669  C     
4    C        11.6037   50.3391   72.1976  C     
5    C        10.4075   49.8486   71.6375  C     
6    C        10.2516   48.4732   71.3517  C     
7    C        13.7577   50.8247   74.1446  C     
8    O        13.5377   47.2530   72.7054  O     
9    C        13.8112   46.0275   71.9988  C     
10   C         9.0507   47.9599   70.6133  C     
11   C         9.3629   47.2299   69.2498  C     
12   C         8.0447   46.8330   68.4891  C     
13   C         7.2669   45.5591   68.9655  C     
14   C         5.8830   45.4242   68.2411  C     
15   C         4.8935   44.4132   68.8985  C     
16   C         3.6137   44.0597   68.0539  C     
17   C         2.8521   45.2531   67.6681  C     
18   C        10.3732   48.0199   68.3272  C     
19   C        10.6728   47.3156   66.9710  C     
20   C         9.9820   49.5024   68.0795  C     
21   N         8.0855   44.3473   68.7377  N     
22   O         6.0546   45.0496   66.8673  O     
23   O         2.5155   46.0250   68.5631  O     
24   N         2.4846   45.4528   66.4115  N     
25   O        13.8393   49.9296   73.0231  O     
26   C        14.3940   46.2649   70.5775  C     
27   C        14.4442   44.9777   69.7093  C     
28   O        15.2862   43.9645   70.2940  O     
29   C        14.6217   42.9557   71.0793  C     
30   C         2.4873   47.8210   65.6690  C     
31   C         3.2160   42.2917   69.9522  C     
32   C         2.6660   42.9537   68.6485  C     
33   C         1.1661   43.3598   68.8615  C     
34   C         1.6608   46.5164   65.8810  C     
35   C         1.9289   48.8608   64.8187  C     
36   O         1.1424   48.6231   63.9085  O     
37   N         2.3140   50.1104   64.9828  N     
38   C         0.3807   46.7001   66.7425  C     
39   H        11.2095   46.5884   71.5181  H     
40   H        11.7060   51.3449   72.3343  H     
41   H         9.6666   50.5176   71.3936  H     
42   H        13.3321   51.7867   73.8593  H     
43   H        14.7715   51.0069   74.5069  H     
44   H        13.1769   50.3947   74.9632  H     
45   H        14.5427   45.4719   72.5845  H     
46   H        12.8943   45.4259   71.9461  H     
47   H         8.5325   47.2728   71.2805  H     
48   H         8.3541   48.7818   70.4170  H     
49   H         9.8707   46.2986   69.5196  H     
50   H         7.3641   47.6881   68.5292  H     
51   H         8.2907   46.6718   67.4379  H     
52   H         7.0888   45.6498   70.0378  H     
53   H         5.3953   46.3976   68.2634  H     
54   H         5.4455   43.4898   69.0733  H     
55   H         4.5797   44.7878   69.8759  H     
56   H         4.0026   43.6042   67.1403  H     
57   H        11.3345   48.0447   68.8402  H     
58   H        10.7771   46.2400   67.1145  H     
59   H        11.6098   47.6927   66.5573  H     
60   H         9.8830   47.4940   66.2328  H     
61   H         9.1160   49.5822   67.4123  H     
62   H        10.8175   50.0454   67.6330  H     
63   H         9.7317   50.0075   69.0120  H     
64   H         8.2625   44.2367   67.7290  H     
65   H         7.5841   43.5168   69.0776  H     
66   H         8.9754   44.4213   69.2361  H     
67   H         6.7926   45.5866   66.5201  H     
68   H         2.7867   44.7957   65.7661  H     
69   H        13.7796   47.0082   70.0546  H     
70   H        15.4093   46.6725   70.6661  H     
71   H        13.4256   44.6347   69.5020  H     
72   H        14.8981   45.2409   68.7474  H     
73   H        14.0548   43.3876   71.9042  H     
74   H        15.3779   42.2918   71.4991  H     
75   H        13.9521   42.3602   70.4559  H     
76   H         2.6791   48.2699   66.6458  H     
77   H         3.4455   47.5457   65.2335  H     
78   H         4.2626   41.9927   69.8189  H     
79   H         2.6397   41.3989   70.2062  H     
80   H         3.1557   42.9896   70.7939  H     
81   H         2.6319   42.1295   67.9156  H     
82   H         1.1050   44.2077   69.5520  H     
83   H         0.5947   42.5253   69.2673  H     
84   H         0.7043   43.6362   67.9125  H     
85   H         1.3315   46.1682   64.9001  H     
86   H         1.9674   50.8131   64.4046  H     
87   H         2.9426   50.3355   65.6919  H     
88   H        -0.0929   45.7319   66.9187  H     
89   H        -0.3416   47.3381   66.2298  H     
90   H         0.6118   47.1539   67.7086  H     
@<TRIPOS>BOND
     1    1    2 2
     2    1    6 1
     3    2    3 1
     4    2    8 1
     5    3    4 2
     6    3   25 1
     7    4    5 1
     8    5    6 2
     9    6   10 1
    10    7   25 1
    11    8    9 1
    12    9   26 1
    13   10   11 1
    14   11   12 1
    15   11   18 1
    16   12   13 1
    17   13   14 1
    18   13   21 1
    19   14   15 1
    20   14   22 1
    21   15   16 1
    22   16   17 1
    23   16   32 1
    24   17   23 2
    25   17   24 am
    26   18   19 1
    27   18   20 1
    28   24   34 1
    29   26   27 1
    30   27   28 1
    31   28   29 1
    32   30   34 1
    33   30   35 1
    34   31   32 1
    35   32   33 1
    36   34   38 1
    37   35   36 2
    38   35   37 am
    39    1   39 1
    40    4   40 1
    41    5   41 1
    42    7   42 1
    43    7   43 1
    44    7   44 1
    45    9   45 1
    46    9   46 1
    47   10   47 1
    48   10   48 1
    49   11   49 1
    50   12   50 1
    51   12   51 1
    52   13   52 1
    53   14   53 1
    54   15   54 1
    55   15   55 1
    56   16   56 1
    57   18   57 1
    58   19   58 1
    59   19   59 1
    60   19   60 1
    61   20   61 1
    62   20   62 1
    63   20   63 1
    64   21   64 1
    65   21   65 1
    66   21   66 1
    67   22   67 1
    68   24   68 1
    69   26   69 1
    70   26   70 1
    71   27   71 1
    72   27   72 1
    73   29   73 1
    74   29   74 1
    75   29   75 1
    76   30   76 1
    77   30   77 1
    78   31   78 1
    79   31   79 1
    80   31   80 1
    81   32   81 1
    82   33   82 1
    83   33   83 1
    84   33   84 1
    85   34   85 1
    86   37   86 1
    87   37   87 1
    88   38   88 1
    89   38   89 1
    90   38   90 1
@<TRIPOS>PROPERTY_DATA
  Total_Score	| 17.0546
  Crash		| -1.9426
  Polar		| 7.2945
  FragIndex	| 1
  FragRMSD	| 0.171

