@<TRIPOS>MOLECULE
BindingDB_50334353
 39 40 0 0 0
SMALL
NO_CHARGES


@<TRIPOS>ATOM
1    C        -6.4015    3.2704   15.7771  C     
2    C        -5.8987    4.2743   14.9322  C     
3    C        -4.5414    4.2699   14.5281  C     
4    C        -3.7045    3.2374   15.0073  C     
5    C        -4.2084    2.2256   15.8480  C     
6    C        -5.5599    2.2449   16.2493  C     
7    S        -6.1894    1.0492   17.3481  S     
8    N        -7.6765    1.4891   17.9833  N     
9    O        -6.4146   -0.3443   16.6255  O     
10   O        -5.2062    0.8591   18.5802  O     
11   N        -3.9654    5.2620   13.7827  N     
12   C        -4.5328    6.1566   12.9781  C     
13   N        -3.8452    7.1994   12.5357  N     
14   O        -5.6793    6.0470   12.5684  O     
15   C        -2.6261    7.6107   12.9954  C     
16   C        -1.5434    7.6590   12.0968  C     
17   C        -0.2462    8.0027   12.5371  C     
18   C        -0.0529    8.3316   13.8967  C     
19   C        -1.1366    8.3413   14.8019  C     
20   C        -2.4243    7.9804   14.3463  C     
21   C         0.8791    8.0046   11.5727  C     
22   C        -0.8996    8.7140   16.2105  C     
23   H        -7.3816    3.3092   16.0602  H     
24   H        -6.5293    5.0275   14.6541  H     
25   H        -2.7145    3.2176   14.7491  H     
26   H        -3.5795    1.4893   16.1784  H     
27   H        -7.9823    1.0884   18.8124  H     
28   H        -8.2118    2.1671   17.5410  H     
29   H        -2.9942    5.3786   13.8897  H     
30   H        -4.2399    7.7148   11.8136  H     
31   H        -1.6946    7.4053   11.1156  H     
32   H         0.8838    8.5796   14.2294  H     
33   H        -3.2259    7.9464   15.0024  H     
34   H         1.0120    7.0025   11.1628  H     
35   H         1.8180    8.3074   12.0379  H     
36   H         0.6667    8.6966   10.7554  H     
37   H        -0.3052    7.9394   16.6927  H     
38   H        -1.8307    8.8357   16.7627  H     
39   H        -0.3556    9.6574   16.2589  H     
@<TRIPOS>BOND
     1    1    2 2
     2    1    6 1
     3    2    3 1
     4    3    4 2
     5    3   11 1
     6    4    5 1
     7    5    6 2
     8    6    7 1
     9    7    8 am
    10    7    9 2
    11    7   10 2
    12   11   12 am
    13   12   13 am
    14   12   14 2
    15   13   15 1
    16   15   16 2
    17   15   20 1
    18   16   17 1
    19   17   18 2
    20   17   21 1
    21   18   19 1
    22   19   20 2
    23   19   22 1
    24    1   23 1
    25    2   24 1
    26    4   25 1
    27    5   26 1
    28    8   27 1
    29    8   28 1
    30   11   29 1
    31   13   30 1
    32   16   31 1
    33   18   32 1
    34   20   33 1
    35   21   34 1
    36   21   35 1
    37   21   36 1
    38   22   37 1
    39   22   38 1
    40   22   39 1
@<TRIPOS>PROPERTY_DATA
  Total_Score	| 6.5465
  Crash		| -2.2802
  Polar		| 4.3785
  FragIndex	| 1
  FragRMSD	| 0.906

