@<TRIPOS>MOLECULE
BindingDB_54376
 33 34 0 0 0
SMALL
NO_CHARGES


@<TRIPOS>ATOM
1    Cl        1.7044    9.2056   13.8195  Cl    
2    S        -6.1982    1.0060   17.3312  S     
3    O        -5.2067    0.7339   18.5387  O     
4    O        -6.3143   -0.3510   16.5213  O     
5    O        -5.5849    6.1589   12.7731  O     
6    N        -3.9485    5.4562   14.1143  N     
7    N        -3.7524    7.2893   12.6959  N     
8    N        -7.6959    1.3076   18.0095  N     
9    C        -5.5716    2.3011   16.3565  C     
10   C        -4.5396    4.4366   14.8022  C     
11   C        -6.4319    3.3098   15.8759  C     
12   C        -4.1949    2.3610   16.0601  C     
13   C        -5.9207    4.3704   15.1084  C     
14   C        -3.6833    3.4297   15.3021  C     
15   C        -2.4899    7.7100   13.0110  C     
16   C        -4.4613    6.3054   13.2307  C     
17   C        -2.0042    7.8181   14.3368  C     
18   C        -1.6548    8.1196   11.9492  C     
19   C        -0.6964    8.2718   14.5897  C     
20   C        -0.3481    8.5772   12.1976  C     
21   C         0.1354    8.6506   13.5196  C     
22   H        -2.9955    5.5448   14.2679  H     
23   H        -4.1702    7.7427   11.9427  H     
24   H        -8.3989    1.6797   17.4634  H     
25   H        -7.7883    1.3144   18.9660  H     
26   H        -7.4319    3.2933   16.0926  H     
27   H        -3.5512    1.6445   16.4107  H     
28   H        -6.5647    5.1067   14.8088  H     
29   H        -2.6755    3.4651   15.1162  H     
30   H        -2.6059    7.5845   15.1315  H     
31   H        -1.9868    8.0652   10.9845  H     
32   H        -0.3593    8.3327   15.5558  H     
33   H         0.2464    8.8534   11.4157  H     
@<TRIPOS>BOND
     1    1   21 1
     2    2    3 2
     3    2    4 2
     4    2    8 am
     5    2    9 1
     6    5   16 2
     7    6   10 1
     8    6   16 am
     9    7   15 1
    10    7   16 am
    11    9   11 2
    12    9   12 1
    13   10   13 2
    14   10   14 1
    15   11   13 1
    16   12   14 2
    17   15   17 2
    18   15   18 1
    19   17   19 1
    20   18   20 2
    21   19   21 2
    22   20   21 1
    23    6   22 1
    24    7   23 1
    25    8   24 1
    26    8   25 1
    27   11   26 1
    28   12   27 1
    29   13   28 1
    30   14   29 1
    31   17   30 1
    32   18   31 1
    33   19   32 1
    34   20   33 1
@<TRIPOS>PROPERTY_DATA
  Total_Score	| 5.2080
  Crash		| -1.7891
  Polar		| 3.8688
  FragIndex	| 1
  FragRMSD	| 0.870

