@<TRIPOS>MOLECULE
BindingDB_50334347
 44 46 0 0 0
SMALL
NO_CHARGES


@<TRIPOS>ATOM
1    C        -6.4337    3.1973   15.7238  C     
2    C        -5.9369    4.2702   14.9767  C     
3    C        -4.5500    4.4102   14.7457  C     
4    C        -3.6631    3.4762   15.3473  C     
5    C        -4.1670    2.3949   16.1024  C     
6    C        -5.5598    2.2385   16.2803  C     
7    S        -6.1729    0.9037   17.2135  S     
8    N        -7.8274    0.9610   17.4591  N     
9    O        -5.8976   -0.3819   16.3210  O     
10   O        -5.3526    0.7052   18.5574  O     
11   N        -3.9506    5.4362   14.0765  N     
12   C        -4.4436    6.2975   13.1838  C     
13   N        -3.7296    7.3032   12.7078  N     
14   O        -5.5532    6.1606   12.6938  O     
15   C        -2.4937    7.7603   13.0928  C     
16   C        -2.0542    7.8138   14.4401  C     
17   C        -0.7770    8.3006   14.7682  C     
18   C         0.0886    8.7754   13.7639  C     
19   C        -0.3420    8.7417   12.4198  C     
20   C        -1.6233    8.2493   12.0905  C     
21   O         1.3493    9.1997   14.0892  O     
22   C         1.3445   10.4476   14.6576  C     
23   C         0.8473   10.6515   15.9647  C     
24   C         0.8968   11.9256   16.5573  C     
25   C         1.4634   13.0078   15.8559  C     
26   C         1.9812   12.8106   14.5595  C     
27   C         1.9284   11.5325   13.9681  C     
28   H        -7.4452    3.1359   15.8838  H     
29   H        -6.6053    4.9584   14.6241  H     
30   H        -2.6423    3.5772   15.2534  H     
31   H        -3.5056    1.7299   16.5204  H     
32   H        -8.3728    0.1993   17.1991  H     
33   H        -8.2470    1.8364   17.5707  H     
34   H        -3.0019    5.5241   14.2444  H     
35   H        -4.1295    7.7568   11.9477  H     
36   H        -2.6658    7.5142   15.1986  H     
37   H        -0.4822    8.3133   15.7443  H     
38   H         0.2804    9.0677   11.6768  H     
39   H        -1.9078    8.2391   11.1065  H     
40   H         0.4496    9.8710   16.4891  H     
41   H         0.5401   12.0663   17.5099  H     
42   H         1.5126   13.9344   16.2897  H     
43   H         2.4087   13.5950   14.0575  H     
44   H         2.3234   11.3963   13.0351  H     
@<TRIPOS>BOND
     1    1    2 2
     2    1    6 1
     3    2    3 1
     4    3    4 2
     5    3   11 1
     6    4    5 1
     7    5    6 2
     8    6    7 1
     9    7    8 am
    10    7    9 2
    11    7   10 2
    12   11   12 am
    13   12   13 am
    14   12   14 2
    15   13   15 1
    16   15   16 2
    17   15   20 1
    18   16   17 1
    19   17   18 2
    20   18   19 1
    21   18   21 1
    22   19   20 2
    23   21   22 1
    24   22   23 2
    25   22   27 1
    26   23   24 1
    27   24   25 2
    28   25   26 1
    29   26   27 2
    30    1   28 1
    31    2   29 1
    32    4   30 1
    33    5   31 1
    34    8   32 1
    35    8   33 1
    36   11   34 1
    37   13   35 1
    38   16   36 1
    39   17   37 1
    40   19   38 1
    41   20   39 1
    42   23   40 1
    43   24   41 1
    44   25   42 1
    45   26   43 1
    46   27   44 1
@<TRIPOS>PROPERTY_DATA
  Total_Score	| 5.5150
  Crash		| -1.8095
  Polar		| 3.3651
  FragIndex	| 1
  FragRMSD	| 0.890

