@<TRIPOS>MOLECULE
BindingDB_50146756
 33 34 0 0 0
SMALL
NO_CHARGES


@<TRIPOS>ATOM
1    C        -1.6931    7.6234   13.1459  C     
2    S        -6.2733    1.0684   17.3138  S     
3    C        -1.2901    8.0351   14.4449  C     
4    C        -1.1146    8.2580   12.0215  C     
5    C        -0.1790    9.2994   12.1871  C     
6    C        -0.3593    9.0801   14.6094  C     
7    C         0.2000    9.7075   13.4807  C     
8    C        -3.4636    6.0426   13.6615  C     
9    N        -2.4839    6.5291   12.9181  N     
10   C        -5.5914    2.1749   16.1642  C     
11   O        -6.4850   -0.3534   16.6451  O     
12   O        -5.2367    0.8890   18.5035  O     
13   N        -3.7596    4.7721   13.4416  N     
14   N        -7.7381    1.5470   17.9670  N     
15   O        -3.9692    6.6902   14.5701  O     
16   F        -1.6913    7.4075   15.5185  F     
17   F        -1.4331    7.8787   10.8090  F     
18   F         0.3510    9.8780   11.1407  F     
19   F         0.0098    9.4507   15.8093  F     
20   F         1.0904   10.6513   13.6355  F     
21   C        -6.2358    3.3887   15.8431  C     
22   C        -4.3789    1.8382   15.5296  C     
23   C        -4.4241    3.9492   14.2977  C     
24   C        -3.8084    2.7145   14.5929  C     
25   C        -5.6542    4.2721   14.9160  C     
26   H        -2.2456    5.9981   12.1405  H     
27   H        -3.2261    4.3309   12.7610  H     
28   H        -7.9682    1.2661   18.8647  H     
29   H        -8.4239    1.9044   17.3807  H     
30   H        -7.1250    3.6437   16.2813  H     
31   H        -3.9010    0.9588   15.7456  H     
32   H        -2.9197    2.4593   14.1523  H     
33   H        -6.1349    5.1461   14.6912  H     
@<TRIPOS>BOND
     1    1    3 1
     2    1    4 2
     3    1    9 1
     4    2   10 1
     5    2   11 2
     6    2   12 2
     7    2   14 am
     8    3    6 2
     9    3   16 1
    10    4    5 1
    11    4   17 1
    12    5    7 2
    13    5   18 1
    14    6    7 1
    15    6   19 1
    16    7   20 1
    17    8    9 am
    18    8   13 am
    19    8   15 2
    20   10   21 2
    21   10   22 1
    22   13   23 1
    23   21   25 1
    24   22   24 2
    25   23   24 1
    26   23   25 2
    27    9   26 1
    28   13   27 1
    29   14   28 1
    30   14   29 1
    31   21   30 1
    32   22   31 1
    33   24   32 1
    34   25   33 1
@<TRIPOS>PROPERTY_DATA
  Total_Score	| 3.2585
  Crash		| -1.7608
  Polar		| 3.4414
  FragIndex	| 1
  FragRMSD	| 1.321

