@<TRIPOS>MOLECULE
BindingDB_50334355
 33 34 0 0 0
SMALL
NO_CHARGES


@<TRIPOS>ATOM
1    C        -4.1104    2.4144   16.0689  C     
2    C        -3.5855    3.5460   15.4190  C     
3    C        -4.4357    4.5720   14.9548  C     
4    C        -5.8226    4.4661   15.1991  C     
5    C        -6.3461    3.3467   15.8687  C     
6    C        -5.4950    2.3115   16.3004  C     
7    S        -6.1387    0.9275   17.1278  S     
8    N        -7.8047    0.9285   17.3153  N     
9    O        -5.8366   -0.3377   16.2186  O     
10   O        -5.3985    0.6322   18.5011  O     
11   N        -3.8486    5.6402   14.3441  N     
12   C        -4.2828    6.3565   13.3126  C     
13   N        -3.5990    7.3438   12.7483  N     
14   O        -5.3758    6.1385   12.8069  O     
15   C        -2.3436    7.8399   12.9942  C     
16   C        -1.7810    8.0673   14.2760  C     
17   C        -0.4842    8.5957   14.4123  C     
18   C         0.2921    8.8710   13.2750  C     
19   C        -0.2270    8.5961   11.9982  C     
20   C        -1.5291    8.0798   11.8630  C     
21   Br        2.0084    9.5654   13.4606  Br    
22   H        -3.4749    1.6744   16.3798  H     
23   H        -2.5741    3.6068   15.2703  H     
24   H        -6.4598    5.2146   14.9203  H     
25   H        -7.3511    3.3030   16.0468  H     
26   H        -8.3380    0.4112   16.6946  H     
27   H        -8.2134    1.6934   17.7466  H     
28   H        -2.9686    5.8537   14.6741  H     
29   H        -4.0964    7.8309   12.0711  H     
30   H        -2.2812    7.8129   15.1268  H     
31   H        -0.0966    8.7598   15.3407  H     
32   H         0.3380    8.7770   11.1657  H     
33   H        -1.8865    7.8946   10.9212  H     
@<TRIPOS>BOND
     1    1    2 2
     2    1    6 1
     3    2    3 1
     4    3    4 2
     5    3   11 1
     6    4    5 1
     7    5    6 2
     8    6    7 1
     9    7    8 am
    10    7    9 2
    11    7   10 2
    12   11   12 am
    13   12   13 am
    14   12   14 2
    15   13   15 1
    16   15   16 2
    17   15   20 1
    18   16   17 1
    19   17   18 2
    20   18   19 1
    21   18   21 1
    22   19   20 2
    23    1   22 1
    24    2   23 1
    25    4   24 1
    26    5   25 1
    27    8   26 1
    28    8   27 1
    29   11   28 1
    30   13   29 1
    31   16   30 1
    32   17   31 1
    33   19   32 1
    34   20   33 1
@<TRIPOS>PROPERTY_DATA
  Total_Score	| 4.4824
  Crash		| -1.2696
  Polar		| 3.0021
  FragIndex	| 1
  FragRMSD	| 0.947

