@<TRIPOS>MOLECULE
BindingDB_16654
 33 34 0 0 0
SMALL
NO_CHARGES


@<TRIPOS>ATOM
1    C        -5.5241    2.2648   16.2950  C     
2    C        -4.1590    2.2991   15.9549  C     
3    C        -3.6385    3.3914   15.2409  C     
4    C        -4.4725    4.4516   14.8333  C     
5    C        -5.8385    4.4177   15.1905  C     
6    C        -6.3611    3.3317   15.9154  C     
7    S        -6.1498    0.9151   17.1867  S     
8    O        -5.9267   -0.4434   16.3978  O     
9    O        -5.3016    0.7552   18.5190  O     
10   N        -7.7612    1.0188   17.6341  N     
11   N        -3.8741    5.4862   14.1826  N     
12   O        -5.4784    6.1695   12.7964  O     
13   C        -4.3676    6.3303   13.2840  C     
14   N        -3.6420    7.3200   12.7788  N     
15   C        -2.3992    7.7493   13.1677  C     
16   C        -2.0048    7.8727   14.5235  C     
17   C        -1.4841    8.1360   12.1646  C     
18   C        -0.1877    8.5724   12.5025  C     
19   C         0.2038    8.6466   13.8517  C     
20   C        -0.7102    8.3079   14.8644  C     
21   H        -3.5334    1.5369   16.2284  H     
22   H        -2.6405    3.4032   15.0136  H     
23   H        -6.4568    5.1958   14.9568  H     
24   H        -7.3512    3.3357   16.1690  H     
25   H        -8.4402    1.1133   16.9462  H     
26   H        -7.9820    1.2003   18.5596  H     
27   H        -2.9280    5.5853   14.3692  H     
28   H        -4.0219    7.7670   12.0053  H     
29   H        -2.6641    7.6632   15.2748  H     
30   H        -1.7499    8.0825   11.1785  H     
31   H         0.4723    8.8304   11.7667  H     
32   H         1.1465    8.9603   14.0971  H     
33   H        -0.4346    8.3794   15.8470  H     
@<TRIPOS>BOND
     1    1    2 1
     2    1    6 2
     3    1    7 1
     4    2    3 2
     5    3    4 1
     6    4    5 2
     7    4   11 1
     8    5    6 1
     9    7    8 2
    10    7    9 2
    11    7   10 am
    12   11   13 am
    13   12   13 2
    14   13   14 am
    15   14   15 1
    16   15   16 1
    17   15   17 2
    18   16   20 2
    19   17   18 1
    20   18   19 2
    21   19   20 1
    22    2   21 1
    23    3   22 1
    24    5   23 1
    25    6   24 1
    26   10   25 1
    27   10   26 1
    28   11   27 1
    29   14   28 1
    30   16   29 1
    31   17   30 1
    32   18   31 1
    33   19   32 1
    34   20   33 1
@<TRIPOS>PROPERTY_DATA
  Total_Score	| 5.5172
  Crash		| -1.2443
  Polar		| 3.2327
  FragIndex	| 1
  FragRMSD	| 0.891

