@<TRIPOS>MOLECULE
BindingDB_50334365
 57 58 0 0 0
SMALL
NO_CHARGES


@<TRIPOS>ATOM
1    C        -6.4699    3.1248   15.6083  C     
2    C        -6.0018    4.2190   14.8637  C     
3    C        -4.6026    4.4577   14.7370  C     
4    C        -3.7102    3.5636   15.3807  C     
5    C        -4.1797    2.4573   16.1081  C     
6    C        -5.5697    2.2392   16.2419  C     
7    S        -6.1312    0.9051   17.2070  S     
8    N        -7.7709    1.0008   17.5628  N     
9    O        -5.9540   -0.3933   16.3079  O     
10   O        -5.2659    0.7154   18.5277  O     
11   N        -4.0270    5.5095   14.0757  N     
12   C        -4.5138    6.4041   13.2202  C     
13   N        -3.7845    7.3808   12.6908  N     
14   O        -5.6466    6.3091   12.7592  O     
15   C        -2.4967    7.7554   12.9334  C     
16   C        -1.8939    7.8641   14.2126  C     
17   C        -0.5651    8.2857   14.3645  C     
18   C         0.2302    8.6420   13.2384  C     
19   C        -0.3946    8.6007   11.9628  C     
20   C        -1.7210    8.1655   11.8178  C     
21   C         1.6178    9.1600   13.4072  C     
22   C         2.6273    8.6554   12.3354  C     
23   C         4.1231    8.7594   12.7678  C     
24   C         4.5929    7.6472   13.7542  C     
25   C         5.2836    6.4073   13.0887  C     
26   C         4.6259    5.0239   13.3655  C     
27   C         3.3328    4.6927   12.5688  C     
28   C         3.3996    5.0214   11.0536  C     
29   H        -7.4774    2.9799   15.7115  H     
30   H        -6.6861    4.8538   14.4511  H     
31   H        -2.6954    3.7324   15.3233  H     
32   H        -3.5024    1.8343   16.5633  H     
33   H        -8.3384    0.2199   17.4245  H     
34   H        -8.1800    1.8848   17.6211  H     
35   H        -3.0891    5.6035   14.2536  H     
36   H        -4.2278    7.8868   11.9892  H     
37   H        -2.4328    7.6440   15.0504  H     
38   H        -0.1648    8.3252   15.3028  H     
39   H         0.1300    8.8761   11.1271  H     
40   H        -2.1297    8.1484   10.8783  H     
41   H         1.5829   10.2532   13.3653  H     
42   H         1.9865    8.8860   14.3998  H     
43   H         2.3967    7.6265   12.0685  H     
44   H         2.4935    9.2526   11.4291  H     
45   H         4.7497    8.7540   11.8688  H     
46   H         4.2808    9.7411   13.2278  H     
47   H         5.3184    8.1009   14.4419  H     
48   H         3.7563    7.3327   14.3770  H     
49   H         5.3838    6.5393   12.0136  H     
50   H         6.3084    6.3481   13.4697  H     
51   H         5.3646    4.2468   13.1454  H     
52   H         4.3994    4.9552   14.4358  H     
53   H         3.1464    3.6213   12.6671  H     
54   H         2.4833    5.1996   13.0211  H     
55   H         3.4476    6.0968   10.8925  H     
56   H         2.5019    4.6452   10.5539  H     
57   H         4.2848    4.5718   10.5999  H     
@<TRIPOS>BOND
     1    1    2 2
     2    1    6 1
     3    2    3 1
     4    3    4 2
     5    3   11 1
     6    4    5 1
     7    5    6 2
     8    6    7 1
     9    7    8 am
    10    7    9 2
    11    7   10 2
    12   11   12 am
    13   12   13 am
    14   12   14 2
    15   13   15 1
    16   15   16 2
    17   15   20 1
    18   16   17 1
    19   17   18 2
    20   18   19 1
    21   18   21 1
    22   19   20 2
    23   21   22 1
    24   22   23 1
    25   23   24 1
    26   24   25 1
    27   25   26 1
    28   26   27 1
    29   27   28 1
    30    1   29 1
    31    2   30 1
    32    4   31 1
    33    5   32 1
    34    8   33 1
    35    8   34 1
    36   11   35 1
    37   13   36 1
    38   16   37 1
    39   17   38 1
    40   19   39 1
    41   20   40 1
    42   21   41 1
    43   21   42 1
    44   22   43 1
    45   22   44 1
    46   23   45 1
    47   23   46 1
    48   24   47 1
    49   24   48 1
    50   25   49 1
    51   25   50 1
    52   26   51 1
    53   26   52 1
    54   27   53 1
    55   27   54 1
    56   28   55 1
    57   28   56 1
    58   28   57 1
@<TRIPOS>PROPERTY_DATA
  Total_Score	| 6.3660
  Crash		| -2.4082
  Polar		| 3.3572
  FragIndex	| 1
  FragRMSD	| 0.919

