@<TRIPOS>MOLECULE
BindingDB_50334362
 42 43 0 0 0
SMALL
NO_CHARGES


@<TRIPOS>ATOM
1    C        -4.1273    2.3496   15.9947  C     
2    C        -3.6510    3.4322   15.2349  C     
3    C        -4.5335    4.4092   14.7260  C     
4    C        -5.9106    4.2936   15.0314  C     
5    C        -6.3899    3.2155   15.7947  C     
6    C        -5.5021    2.2338   16.2740  C     
7    S        -6.0904    0.8960   17.2099  S     
8    N        -7.7348    0.9140   17.5370  N     
9    O        -5.8771   -0.4107   16.3353  O     
10   O        -5.2445    0.6488   18.5306  O     
11   N        -3.9647    5.4366   14.0282  N     
12   C        -4.5049    6.3373   13.2161  C     
13   N        -3.8228    7.3519   12.7021  N     
14   O        -5.6534    6.2266   12.8115  O     
15   C        -2.5453    7.7840   12.9516  C     
16   C        -1.9549    7.8707   14.2348  C     
17   C        -0.6300    8.3168   14.3918  C     
18   C         0.1405    8.7257   13.2768  C     
19   C        -0.4773    8.7006   12.0049  C     
20   C        -1.7966    8.2386   11.8463  C     
21   C         1.5519    9.2005   13.4508  C     
22   C         2.5510    8.4247   12.5472  C     
23   C         1.6677   10.7348   13.2495  C     
24   H        -3.4634    1.6530   16.3449  H     
25   H        -2.6454    3.4995   15.0523  H     
26   H        -6.5793    5.0026   14.7293  H     
27   H        -7.3896    3.1631   16.0054  H     
28   H        -8.3327    0.4738   16.9164  H     
29   H        -8.0809    1.6373   18.0852  H     
30   H        -3.0043    5.4969   14.1259  H     
31   H        -4.2965    7.8506   12.0172  H     
32   H        -2.4899    7.6408   15.0756  H     
33   H        -0.2380    8.3562   15.3347  H     
34   H         0.0309    9.0182   11.1770  H     
35   H        -2.2040    8.2248   10.9090  H     
36   H         1.8738    9.0028   14.4780  H     
37   H         2.4535    7.3480   12.7113  H     
38   H         3.5777    8.7112   12.7829  H     
39   H         2.3721    8.6358   11.4911  H     
40   H         1.4213   11.0163   12.2232  H     
41   H         2.6860   11.0664   13.4648  H     
42   H         0.9891   11.2581   13.9272  H     
@<TRIPOS>BOND
     1    1    2 2
     2    1    6 1
     3    2    3 1
     4    3    4 2
     5    3   11 1
     6    4    5 1
     7    5    6 2
     8    6    7 1
     9    7    8 am
    10    7    9 2
    11    7   10 2
    12   11   12 am
    13   12   13 am
    14   12   14 2
    15   13   15 1
    16   15   16 2
    17   15   20 1
    18   16   17 1
    19   17   18 2
    20   18   19 1
    21   18   21 1
    22   19   20 2
    23   21   22 1
    24   21   23 1
    25    1   24 1
    26    2   25 1
    27    4   26 1
    28    5   27 1
    29    8   28 1
    30    8   29 1
    31   11   30 1
    32   13   31 1
    33   16   32 1
    34   17   33 1
    35   19   34 1
    36   20   35 1
    37   21   36 1
    38   22   37 1
    39   22   38 1
    40   22   39 1
    41   23   40 1
    42   23   41 1
    43   23   42 1
@<TRIPOS>PROPERTY_DATA
  Total_Score	| 4.4163
  Crash		| -1.5727
  Polar		| 3.3788
  FragIndex	| 1
  FragRMSD	| 0.906

