@<TRIPOS>MOLECULE
BindingDB_50334356
 33 34 0 0 0
SMALL
NO_CHARGES


@<TRIPOS>ATOM
1    C        -4.1579    2.3971   15.9408  C     
2    C        -3.6486    3.4938   15.2235  C     
3    C        -4.4979    4.5327   14.7892  C     
4    C        -5.8675    4.4755   15.1360  C     
5    C        -6.3790    3.3829   15.8569  C     
6    C        -5.5298    2.3313   16.2502  C     
7    S        -6.1538    0.9719   17.1313  S     
8    N        -7.8178    0.9705   17.3327  N     
9    O        -5.8518   -0.3219   16.2622  O     
10   O        -5.3912    0.7358   18.5048  O     
11   N        -3.9191    5.5585   14.1017  N     
12   C        -4.4524    6.3970   13.2184  C     
13   N        -3.7582    7.3732   12.6498  N     
14   O        -5.5888    6.2437   12.7915  O     
15   C        -2.4877    7.8029   12.9213  C     
16   C        -1.9522    7.9216   14.2284  C     
17   C        -0.6397    8.3912   14.4287  C     
18   C         0.1460    8.7716   13.3259  C     
19   C        -0.3832    8.6850   12.0265  C     
20   C        -1.6944    8.2143   11.8282  C     
21   I         2.0516    9.4867   13.5994  I     
22   H        -3.5189    1.6496   16.2339  H     
23   H        -2.6459    3.5219   15.0098  H     
24   H        -6.5022    5.2354   14.8876  H     
25   H        -7.3721    3.3690   16.0953  H     
26   H        -8.3531    0.4013   16.7558  H     
27   H        -8.2324    1.7570   17.7237  H     
28   H        -2.9626    5.6415   14.2301  H     
29   H        -4.1955    7.8111   11.9006  H     
30   H        -2.5199    7.6912   15.0465  H     
31   H        -0.2638    8.4694   15.3767  H     
32   H         0.1823    8.9705   11.2245  H     
33   H        -2.0628    8.1606   10.8744  H     
@<TRIPOS>BOND
     1    1    2 2
     2    1    6 1
     3    2    3 1
     4    3    4 2
     5    3   11 1
     6    4    5 1
     7    5    6 2
     8    6    7 1
     9    7    8 am
    10    7    9 2
    11    7   10 2
    12   11   12 am
    13   12   13 am
    14   12   14 2
    15   13   15 1
    16   15   16 2
    17   15   20 1
    18   16   17 1
    19   17   18 2
    20   18   19 1
    21   18   21 1
    22   19   20 2
    23    1   22 1
    24    2   23 1
    25    4   24 1
    26    5   25 1
    27    8   26 1
    28    8   27 1
    29   11   28 1
    30   13   29 1
    31   16   30 1
    32   17   31 1
    33   19   32 1
    34   20   33 1
@<TRIPOS>PROPERTY_DATA
  Total_Score	| 4.7120
  Crash		| -1.3606
  Polar		| 3.3107
  FragIndex	| 1
  FragRMSD	| 0.924

