@<TRIPOS>MOLECULE
BindingDB_50334354
 33 34 0 0 0
SMALL
NO_CHARGES


@<TRIPOS>ATOM
1    C        -5.5261    2.2123   16.2307  C     
2    N        -7.7736    0.9581   17.4526  N     
3    O        -5.8505   -0.4196   16.3136  O     
4    S        -6.1196    0.8840   17.1769  S     
5    C        -4.1390    2.4320   16.1099  C     
6    O        -5.3050    0.7581   18.5339  O     
7    C        -3.6551    3.5415   15.3940  C     
8    C        -4.5429    4.4406   14.7604  C     
9    C        -5.9329    4.2107   14.8829  C     
10   C        -6.4167    3.1083   15.6087  C     
11   N        -3.9717    5.4976   14.1167  N     
12   C        -4.4597    6.3645   13.2329  C     
13   O        -5.5723    6.2430   12.7469  O     
14   N        -3.7180    7.3382   12.7214  N     
15   C        -2.4525    7.6992   13.0732  C     
16   C        -2.0385    7.8322   14.4185  C     
17   C        -0.7141    8.1852   14.7312  C     
18   C         0.2113    8.4291   13.6945  C     
19   F         1.4472    8.7434   13.9765  F     
20   C        -0.1964    8.3233   12.3499  C     
21   C        -1.5215    7.9748   12.0409  C     
22   H        -8.2922    0.1451   17.5491  H     
23   H        -8.2279    1.8133   17.4130  H     
24   H        -3.4707    1.7886   16.5416  H     
25   H        -2.6452    3.6797   15.3260  H     
26   H        -6.6110    4.8508   14.4755  H     
27   H        -7.4258    2.9710   15.6852  H     
28   H        -3.0278    5.6169   14.3205  H     
29   H        -4.0933    7.7935   11.9537  H     
30   H        -2.7038    7.6715   15.1822  H     
31   H        -0.4206    8.2546   15.7082  H     
32   H         0.4689    8.4974   11.5927  H     
33   H        -1.8013    7.8911   11.0607  H     
@<TRIPOS>BOND
     1    1    4 1
     2    1    5 1
     3    1   10 2
     4    2    4 am
     5    3    4 2
     6    4    6 2
     7    5    7 2
     8    7    8 1
     9    8    9 2
    10    8   11 1
    11    9   10 1
    12   11   12 am
    13   12   13 2
    14   12   14 am
    15   14   15 1
    16   15   16 2
    17   15   21 1
    18   16   17 1
    19   17   18 2
    20   18   19 1
    21   18   20 1
    22   20   21 2
    23    2   22 1
    24    2   23 1
    25    5   24 1
    26    7   25 1
    27    9   26 1
    28   10   27 1
    29   11   28 1
    30   14   29 1
    31   16   30 1
    32   17   31 1
    33   20   32 1
    34   21   33 1
@<TRIPOS>PROPERTY_DATA
  Total_Score	| 4.4304
  Crash		| -1.7879
  Polar		| 3.1975
  FragIndex	| 1
  FragRMSD	| 0.876

