@<TRIPOS>MOLECULE
BindingDB_50334357
 36 37 0 0 0
SMALL
NO_CHARGES


@<TRIPOS>ATOM
1    S        -6.0833    0.9086   17.2343  S     
2    F         2.0616    9.9411   12.5110  F     
3    F         1.5103   10.2339   14.6312  F     
4    F         2.3372    8.2740   13.9369  F     
5    O        -5.1902    0.7318   18.5340  O     
6    O        -5.9562   -0.4593   16.4439  O     
7    O        -5.6247    6.2153   12.7678  O     
8    N        -3.9536    5.4068   14.0084  N     
9    N        -3.7964    7.3419   12.7092  N     
10   N        -7.6779    1.0405   17.7262  N     
11   C        -5.4953    2.2324   16.2786  C     
12   C         0.1240    8.8057   13.3718  C     
13   C         1.5016    9.3171   13.6010  C     
14   C        -4.5292    4.3777   14.6974  C     
15   C        -2.5289    7.7881   12.9859  C     
16   C        -6.3956    3.1731   15.7365  C     
17   C        -4.1143    2.3623   16.0304  C     
18   C        -0.6028    8.2337   14.4446  C     
19   C        -0.5145    8.8848   12.1073  C     
20   C        -5.9163    4.2385   14.9567  C     
21   C        -3.6372    3.4307   15.2533  C     
22   C        -4.4803    6.3139   13.1935  C     
23   C        -1.9094    7.7531   14.2641  C     
24   C        -1.8168    8.3902   11.9214  C     
25   H        -2.9962    5.4749   14.1312  H     
26   H        -4.2677    7.8546   12.0326  H     
27   H        -8.3855    1.0529   17.0638  H     
28   H        -7.8720    1.2876   18.6411  H     
29   H        -7.4012    3.0947   15.9082  H     
30   H        -3.4442    1.6964   16.4269  H     
31   H        -0.1836    8.1814   15.3755  H     
32   H        -0.0279    9.3066   11.3097  H     
33   H        -6.5940    4.9193   14.6077  H     
34   H        -2.6235    3.5257   15.1164  H     
35   H        -2.4133    7.4094   15.0847  H     
36   H        -2.2453    8.4614   10.9932  H     
@<TRIPOS>BOND
     1    1    5 2
     2    1    6 2
     3    1   10 am
     4    1   11 1
     5    2   13 1
     6    3   13 1
     7    4   13 1
     8    7   22 2
     9    8   14 1
    10    8   22 am
    11    9   15 1
    12    9   22 am
    13   11   16 2
    14   11   17 1
    15   12   13 1
    16   12   18 2
    17   12   19 1
    18   14   20 2
    19   14   21 1
    20   15   23 2
    21   15   24 1
    22   16   20 1
    23   17   21 2
    24   18   23 1
    25   19   24 2
    26    8   25 1
    27    9   26 1
    28   10   27 1
    29   10   28 1
    30   16   29 1
    31   17   30 1
    32   18   31 1
    33   19   32 1
    34   20   33 1
    35   21   34 1
    36   23   35 1
    37   24   36 1
@<TRIPOS>PROPERTY_DATA
  Total_Score	| 4.8227
  Crash		| -1.4448
  Polar		| 3.4209
  FragIndex	| 1
  FragRMSD	| 0.904

