@<TRIPOS>MOLECULE
BindingDB_50334363
 45 46 0 0 0
SMALL
NO_CHARGES


@<TRIPOS>ATOM
1    C        -6.4223    3.5063   15.8052  C     
2    C        -5.9392    4.5987   15.0589  C     
3    C        -4.5787    4.6724   14.6824  C     
4    C        -3.6984    3.6559   15.1150  C     
5    C        -4.1792    2.5474   15.8376  C     
6    C        -5.5462    2.4658   16.1771  C     
7    S        -6.1375    1.0907   17.0597  S     
8    N        -7.7969    1.0673   17.3157  N     
9    O        -5.8995   -0.1677   16.1218  O     
10   O        -5.3192    0.7724   18.3794  O     
11   N        -4.0370    5.6997   13.9605  N     
12   C        -4.5799    6.4205   12.9821  C     
13   N        -3.9153    7.3645   12.3220  N     
14   O        -5.7333    6.2503   12.6166  O     
15   C        -2.6120    7.7338   12.4698  C     
16   C        -2.3086    9.1106   12.5129  C     
17   C        -1.0033    9.5487   12.7880  C     
18   C         0.0348    8.6205   13.0173  C     
19   C        -0.2383    7.2479   12.8304  C     
20   C        -1.5489    6.8105   12.5540  C     
21   C         1.3508    9.0776   13.5553  C     
22   C         1.3107   10.1601   14.6809  C     
23   C         0.0315   10.2657   15.5631  C     
24   C        -0.7165    8.9505   15.8601  C     
25   H        -7.4097    3.4720   16.0656  H     
26   H        -6.5849    5.3480   14.8053  H     
27   H        -2.7039    3.6991   14.8746  H     
28   H        -3.5262    1.8096   16.1140  H     
29   H        -8.3434    0.4920   16.7494  H     
30   H        -8.2073    1.8475   17.7124  H     
31   H        -3.0999    5.8655   14.1368  H     
32   H        -4.4485    7.9225   11.7400  H     
33   H        -3.0498    9.8036   12.4089  H     
34   H        -0.8316   10.5485   12.9189  H     
35   H         0.5000    6.5463   12.9413  H     
36   H        -1.7290    5.8075   12.4325  H     
37   H         1.9001    8.2197   13.9520  H     
38   H         1.9354    9.4652   12.7196  H     
39   H         2.1722   10.0073   15.3420  H     
40   H         1.4472   11.1414   14.2139  H     
41   H         0.3269   10.7034   16.5221  H     
42   H        -0.6684   10.9551   15.0815  H     
43   H        -1.0256    8.4406   14.9543  H     
44   H        -1.6084    9.1599   16.4557  H     
45   H        -0.0731    8.2871   16.4267  H     
@<TRIPOS>BOND
     1    1    2 2
     2    1    6 1
     3    2    3 1
     4    3    4 2
     5    3   11 1
     6    4    5 1
     7    5    6 2
     8    6    7 1
     9    7    8 am
    10    7    9 2
    11    7   10 2
    12   11   12 am
    13   12   13 am
    14   12   14 2
    15   13   15 1
    16   15   16 2
    17   15   20 1
    18   16   17 1
    19   17   18 2
    20   18   19 1
    21   18   21 1
    22   19   20 2
    23   21   22 1
    24   22   23 1
    25   23   24 1
    26    1   25 1
    27    2   26 1
    28    4   27 1
    29    5   28 1
    30    8   29 1
    31    8   30 1
    32   11   31 1
    33   13   32 1
    34   16   33 1
    35   17   34 1
    36   19   35 1
    37   20   36 1
    38   21   37 1
    39   21   38 1
    40   22   39 1
    41   22   40 1
    42   23   41 1
    43   23   42 1
    44   24   43 1
    45   24   44 1
    46   24   45 1
@<TRIPOS>PROPERTY_DATA
  Total_Score	| 5.2710
  Crash		| -2.6234
  Polar		| 3.9069
  FragIndex	| 1
  FragRMSD	| 1.253

