@<TRIPOS>MOLECULE
BindingDB_15162
 71 77 0 0 0
SMALL
NO_CHARGES


@<TRIPOS>ATOM
1    C         7.7761   -1.8207   12.4848  C     
2    C         8.8032   -0.8475   12.5504  C     
3    C         6.9164   -1.9601   13.6041  C     
4    C         7.1059   -1.1887   14.7652  C     
5    C         8.1524   -0.2523   14.8217  C     
6    C         8.9929   -0.0733   13.7104  C     
7    C         7.8714   -4.8021   12.5030  C     
8    C         9.6110   -5.7387   13.9471  C     
9    C         9.2292   -4.9060   12.8785  C     
10   C         6.9040   -5.5204   13.2428  C     
11   C         7.2938   -6.3367   14.3197  C     
12   C         8.6488   -6.4633   14.6875  C     
13   C         9.0567   -7.3877   15.7804  C     
14   C         9.1103   -9.6909   16.6942  C     
15   C         8.7413   -9.3812   14.2606  C     
16   C         8.0958  -10.7889   14.1477  C     
17   C         8.6440  -11.7643   15.2382  C     
18   C         8.4786  -11.1080   16.6413  C     
19   N         8.5545   -8.7936   15.6285  N     
20   C         6.9509  -13.5493   14.7108  C     
21   N         8.0914  -13.1017   15.2342  N     
22   N         6.7980  -14.8303   14.9587  N     
23   O         6.1035  -12.9112   14.0982  O     
24   C         8.6701  -14.1628   15.8607  C     
25   C        10.1933  -15.5634   17.1401  C     
26   C         9.3460  -16.6731   16.9310  C     
27   C         8.1562  -16.5338   16.1878  C     
28   C         7.8430  -15.2663   15.6668  C     
29   C         9.8624  -14.3023   16.6023  C     
30   C         7.5040   -4.0197   11.4186  C     
31   C         7.6315   -2.6380   11.3607  C     
32   C         7.1364   -2.6899    9.0359  C     
33   C         6.9670   -4.0895    9.1187  C     
34   C         6.6108   -4.8303    7.9851  C     
35   C         6.4088   -4.1711    6.7599  C     
36   C         6.5663   -2.7663    6.6497  C     
37   C         6.9367   -2.0296    7.8061  C     
38   N         7.1791   -4.6837   10.3181  N     
39   N         7.4574   -2.0378   10.1845  N     
40   C         6.3585   -2.1187    5.4017  C     
41   O         5.9265   -2.7904    4.3072  O     
42   O         6.6234   -0.8047    5.2274  O     
43   H         9.4408   -0.7133   11.7639  H     
44   H         6.1359   -2.6227   13.5794  H     
45   H         6.4869   -1.3134   15.5697  H     
46   H         8.3016    0.2962   15.6719  H     
47   H         9.7537    0.6057   13.7523  H     
48   H        10.6082   -5.8270   14.1667  H     
49   H         9.9565   -4.3924   12.3612  H     
50   H         5.9143   -5.4727   12.9795  H     
51   H         6.5748   -6.8232   14.8458  H     
52   H        10.1467   -7.4061   15.8789  H     
53   H         8.6513   -6.9721   16.7080  H     
54   H         8.8975   -9.2687   17.6838  H     
55   H        10.1996   -9.7817   16.5866  H     
56   H         9.8129   -9.4421   14.0127  H     
57   H         8.2522   -8.7330   13.5223  H     
58   H         7.0140  -10.6509   14.2627  H     
59   H         8.2869  -11.1964   13.1473  H     
60   H         9.7154  -11.8560   15.0269  H     
61   H         8.9409  -11.7342   17.4108  H     
62   H         7.4135  -11.0271   16.8716  H     
63   H         7.5488   -8.7449   15.8071  H     
64   H         6.0204  -15.3554   14.7081  H     
65   H        11.0517  -15.6796   17.6771  H     
66   H         9.5963  -17.5864   17.3143  H     
67   H         7.5290  -17.3267   16.0364  H     
68   H        10.4851  -13.5065   16.7544  H     
69   H         6.5000   -5.8443    8.0490  H     
70   H         6.1532   -4.7375    5.9479  H     
71   H         7.0573   -1.0125    7.7643  H     
@<TRIPOS>BOND
     1    1    2 1
     2    1    3 2
     3    1   31 1
     4    2    6 2
     5    3    4 1
     6    4    5 2
     7    5    6 1
     8    7    9 1
     9    7   10 2
    10    7   30 1
    11    8    9 2
    12    8   12 1
    13   10   11 1
    14   11   12 2
    15   12   13 1
    16   13   19 1
    17   14   18 1
    18   14   19 1
    19   15   16 1
    20   15   19 1
    21   16   17 1
    22   17   18 1
    23   17   21 1
    24   20   21 1
    25   20   22 1
    26   20   23 2
    27   21   24 1
    28   22   28 1
    29   24   28 2
    30   24   29 1
    31   25   26 1
    32   25   29 2
    33   26   27 2
    34   27   28 1
    35   30   31 1
    36   30   38 2
    37   31   39 2
    38   32   33 1
    39   32   37 2
    40   32   39 1
    41   33   34 2
    42   33   38 1
    43   34   35 1
    44   35   36 2
    45   36   37 1
    46   36   40 1
    47   40   41 2
    48   40   42 1
    49    2   43 1
    50    3   44 1
    51    4   45 1
    52    5   46 1
    53    6   47 1
    54    8   48 1
    55    9   49 1
    56   10   50 1
    57   11   51 1
    58   13   52 1
    59   13   53 1
    60   14   54 1
    61   14   55 1
    62   15   56 1
    63   15   57 1
    64   16   58 1
    65   16   59 1
    66   17   60 1
    67   18   61 1
    68   18   62 1
    69   19   63 1
    70   22   64 1
    71   25   65 1
    72   26   66 1
    73   27   67 1
    74   29   68 1
    75   34   69 1
    76   35   70 1
    77   37   71 1
@<TRIPOS>PROPERTY_DATA
  Total_Score	| 10.5930
  Crash		| -1.9031
  Polar		| 3.3475
  FragIndex	| 1
  FragRMSD	| 0.414

