@<TRIPOS>MOLECULE
BindingDB_15149
 69 75 0 0 0
SMALL
NO_CHARGES


@<TRIPOS>ATOM
1    C         6.6814   -4.4991    7.9762  C     
2    C         6.5079   -3.7786    6.7786  C     
3    C         6.6839   -2.3823    6.7598  C     
4    C         7.0574   -1.6973    7.9320  C     
5    C         7.0366   -3.8172    9.1533  C     
6    C         7.2312   -2.4152    9.1311  C     
7    C         7.6807   -2.4619   11.4644  C     
8    C         7.5596   -3.8535   11.4661  C     
9    N         7.2275   -4.4640   10.3312  N     
10   N         7.5366   -1.8158   10.3110  N     
11   C         7.8333   -4.6788   12.5663  C     
12   C         7.2364   -6.5868   13.9993  C     
13   C         7.0240   -5.8060   12.8478  C     
14   C         8.9101   -4.4057   13.4479  C     
15   C         9.1246   -5.1829   14.6057  C     
16   C         8.2821   -6.2815   14.9014  C     
17   C         8.4640   -7.0937   16.1380  C     
18   C         7.7813   -1.6645   12.6106  C     
19   C         6.8971   -1.8352   13.7084  C     
20   C         8.7671   -0.6458   12.6912  C     
21   C         8.8832    0.1483   13.8495  C     
22   C         8.0093   -0.0455   14.9300  C     
23   C         7.0128   -1.0355   14.8606  C     
24   C         8.7247   -9.3895   17.0821  C     
25   C         9.9957   -8.7400   15.0404  C     
26   C        10.2176  -10.2258   14.6540  C     
27   C        10.1625  -11.1577   15.9070  C     
28   C         8.8650  -10.8871   16.7300  C     
29   N         8.7421   -8.5377   15.8430  N     
30   C         9.4497  -13.3281   14.9083  C     
31   N        10.3207  -12.5538   15.5564  N     
32   N         9.9053  -14.5473   14.7609  N     
33   O         8.3680  -12.9915   14.4434  O     
34   C        11.1076  -14.6063   15.3245  C     
35   C        11.3887  -13.3469   15.8383  C     
36   C        12.6193  -13.1210   16.5055  C     
37   C        13.5356  -14.1904   16.6440  C     
38   C        13.2319  -15.4613   16.1168  C     
39   C        12.0080  -15.6820   15.4412  C     
40   H         6.5510   -5.5139    7.9828  H     
41   H         6.2550   -4.2689    5.9191  H     
42   H         6.5584   -1.8583    5.8909  H     
43   H         7.1892   -0.6815    7.9199  H     
44   H         6.6212   -7.3871   14.1752  H     
45   H         6.2356   -6.0422   12.2421  H     
46   H         9.5428   -3.6268   13.2574  H     
47   H         9.9133   -4.9491   15.2229  H     
48   H         9.2633   -6.6892   16.7631  H     
49   H         7.5407   -6.9938   16.7190  H     
50   H         6.1563   -2.5413   13.6727  H     
51   H         9.4238   -0.4926   11.9187  H     
52   H         9.6081    0.8705   13.9034  H     
53   H         8.0853    0.5423   15.7645  H     
54   H         6.3638   -1.1680   15.6397  H     
55   H         7.7816   -9.2511   17.6191  H     
56   H         9.5279   -9.1072   17.7684  H     
57   H        10.8663   -8.3959   15.6090  H     
58   H         9.9517   -8.1537   14.1126  H     
59   H         9.4409  -10.5027   13.9342  H     
60   H        11.1949  -10.3390   14.1681  H     
61   H        10.9935  -10.8592   16.5509  H     
62   H         8.8814  -11.4806   17.6519  H     
63   H         7.9821  -11.1795   16.1547  H     
64   H         7.9701   -8.8803   15.2632  H     
65   H         9.4493  -15.2768   14.3123  H     
66   H        12.8593  -12.2067   16.8805  H     
67   H        14.4325  -14.0326   17.1164  H     
68   H        13.8992  -16.2333   16.2248  H     
69   H        11.7894  -16.5985   15.0550  H     
@<TRIPOS>BOND
     1    1    2 1
     2    1    5 2
     3    2    3 2
     4    3    4 1
     5    4    6 2
     6    5    6 1
     7    5    9 1
     8    6   10 1
     9    7    8 1
    10    7   10 2
    11    7   18 1
    12    8    9 2
    13    8   11 1
    14   11   13 1
    15   11   14 2
    16   12   13 2
    17   12   16 1
    18   14   15 1
    19   15   16 2
    20   16   17 1
    21   17   29 1
    22   18   19 1
    23   18   20 2
    24   19   23 2
    25   20   21 1
    26   21   22 2
    27   22   23 1
    28   24   28 1
    29   24   29 1
    30   25   26 1
    31   25   29 1
    32   26   27 1
    33   27   28 1
    34   27   31 1
    35   30   31 1
    36   30   32 1
    37   30   33 2
    38   31   35 1
    39   32   34 1
    40   34   35 2
    41   34   39 1
    42   35   36 1
    43   36   37 2
    44   37   38 1
    45   38   39 2
    46    1   40 1
    47    2   41 1
    48    3   42 1
    49    4   43 1
    50   12   44 1
    51   13   45 1
    52   14   46 1
    53   15   47 1
    54   17   48 1
    55   17   49 1
    56   19   50 1
    57   20   51 1
    58   21   52 1
    59   22   53 1
    60   23   54 1
    61   24   55 1
    62   24   56 1
    63   25   57 1
    64   25   58 1
    65   26   59 1
    66   26   60 1
    67   27   61 1
    68   28   62 1
    69   28   63 1
    70   29   64 1
    71   32   65 1
    72   36   66 1
    73   37   67 1
    74   38   68 1
    75   39   69 1
@<TRIPOS>PROPERTY_DATA
  Total_Score	| 9.7898
  Crash		| -1.0788
  Polar		| 0.0017
  FragIndex	| 1
  FragRMSD	| 0.096

