@<TRIPOS>MOLECULE
BindingDB_15166
 77 84 0 0 0
SMALL
NO_CHARGES


@<TRIPOS>ATOM
1    C         7.5485   -1.8474   12.1821  C     
2    C         6.7482   -1.9352   13.3499  C     
3    C         8.4786   -0.7799   12.0926  C     
4    C         8.6361    0.1381   13.1479  C     
5    C         7.8568    0.0131   14.3119  C     
6    C         6.9072   -1.0211   14.4109  C     
7    C         7.6956   -4.8648   12.5087  C     
8    C         9.0076   -5.1756   14.5596  C     
9    C         8.7389   -4.4622   13.3754  C     
10   C         6.9434   -6.0143   12.8588  C     
11   C         7.2089   -6.7205   14.0455  C     
12   C         8.2493   -6.3161   14.9107  C     
13   C         8.5419   -7.0795   16.1564  C     
14   C         8.8019   -9.3358   17.1931  C     
15   C        10.0503   -8.7850   15.1090  C     
16   C        10.1891  -10.2811   14.7491  C     
17   C        10.2116  -11.1518   16.0348  C     
18   C         8.9641  -10.8599   16.9228  C     
19   N         8.8124   -8.5371   15.9206  N     
20   C         9.5122  -13.3251   15.0450  C     
21   N        10.3730  -12.5508   15.6985  N     
22   N         9.9824  -14.5441   14.9035  N     
23   O         8.4179  -13.0064   14.6028  O     
24   C        11.4749  -13.3148   15.9412  C     
25   C        13.6849  -14.0947   16.6074  C     
26   C        13.3772  -15.3838   16.1191  C     
27   C        12.1199  -15.6413   15.5356  C     
28   C        11.1965  -14.5863   15.4436  C     
29   C        12.7326  -13.0550   16.5254  C     
30   C         7.4223   -4.1749   11.3195  C     
31   C         7.4433   -2.7865   11.1437  C     
32   C         7.0523   -3.0684    8.8020  C     
33   C         7.0351   -4.4697    8.9936  C     
34   C         6.8654   -5.3345    7.9019  C     
35   C         6.7036   -4.8031    6.6131  C     
36   C         6.6727   -3.4031    6.3982  C     
37   C         6.8489   -2.5401    7.5094  C     
38   N         7.2295   -4.9398   10.2516  N     
39   N         7.2564   -2.3051    9.9111  N     
40   C         6.4507   -2.9109    5.0889  C     
41   N         5.5751   -1.9793    4.6967  N     
42   N         5.6704   -1.9112    3.4369  N     
43   N         6.5230   -2.6998    3.0104  N     
44   N         7.0279   -3.3483    3.9598  N     
45   C         4.8329   -1.1404    2.6334  C     
46   H         6.0366   -2.6623   13.4401  H     
47   H         9.0745   -0.6779   11.2677  H     
48   H         9.3207    0.8938   13.0746  H     
49   H         7.9818    0.6695   15.0824  H     
50   H         6.3394   -1.1135   15.2555  H     
51   H         9.7742   -4.8611   15.1623  H     
52   H         9.3265   -3.6557   13.1440  H     
53   H         6.1805   -6.3403   12.2565  H     
54   H         6.6446   -7.5436   14.2688  H     
55   H         9.3855   -6.6440   16.6977  H     
56   H         7.6607   -6.9633   16.7964  H     
57   H         7.8448   -9.2015   17.7018  H     
58   H         9.5949   -8.9958   17.8659  H     
59   H        10.9420   -8.4648   15.6545  H     
60   H        10.0234   -8.2279   14.1691  H     
61   H         9.3576  -10.5740   14.0993  H     
62   H        11.1164  -10.4336   14.1893  H     
63   H        11.0751  -10.8245   16.6167  H     
64   H         9.0687  -11.3832   17.8765  H     
65   H         8.0531  -11.2222   16.4408  H     
66   H         8.0310   -8.8897   15.3644  H     
67   H         9.5367  -15.2778   14.4516  H     
68   H        14.5994  -13.9145   17.0294  H     
69   H        14.0675  -16.1360   16.1962  H     
70   H        11.8864  -16.5732   15.1833  H     
71   H        12.9669  -12.1300   16.8829  H     
72   H         6.8750   -6.3494    8.0373  H     
73   H         6.5854   -5.4545    5.8338  H     
74   H         6.8476   -1.5252    7.3826  H     
75   H         3.7941   -1.4481    2.7840  H     
76   H         5.0687   -1.2551    1.5703  H     
77   H         4.9289   -0.0850    2.8985  H     
@<TRIPOS>BOND
     1    1    2 1
     2    1    3 2
     3    1   31 1
     4    2    6 2
     5    3    4 1
     6    4    5 2
     7    5    6 1
     8    7    9 1
     9    7   10 2
    10    7   30 1
    11    8    9 2
    12    8   12 1
    13   10   11 1
    14   11   12 2
    15   12   13 1
    16   13   19 1
    17   14   18 1
    18   14   19 1
    19   15   16 1
    20   15   19 1
    21   16   17 1
    22   17   18 1
    23   17   21 1
    24   20   21 1
    25   20   22 1
    26   20   23 2
    27   21   24 1
    28   22   28 1
    29   24   28 2
    30   24   29 1
    31   25   26 1
    32   25   29 2
    33   26   27 2
    34   27   28 1
    35   30   31 1
    36   30   38 2
    37   31   39 2
    38   32   33 1
    39   32   37 2
    40   32   39 1
    41   33   34 2
    42   33   38 1
    43   34   35 1
    44   35   36 2
    45   36   37 1
    46   36   40 1
    47   40   41 2
    48   40   44 1
    49   41   42 1
    50   42   43 1
    51   42   45 1
    52   43   44 2
    53    2   46 1
    54    3   47 1
    55    4   48 1
    56    5   49 1
    57    6   50 1
    58    8   51 1
    59    9   52 1
    60   10   53 1
    61   11   54 1
    62   13   55 1
    63   13   56 1
    64   14   57 1
    65   14   58 1
    66   15   59 1
    67   15   60 1
    68   16   61 1
    69   16   62 1
    70   17   63 1
    71   18   64 1
    72   18   65 1
    73   19   66 1
    74   22   67 1
    75   25   68 1
    76   26   69 1
    77   27   70 1
    78   29   71 1
    79   34   72 1
    80   35   73 1
    81   37   74 1
    82   45   75 1
    83   45   76 1
    84   45   77 1
@<TRIPOS>PROPERTY_DATA
  Total_Score	| 9.5803
  Crash		| -2.0565
  Polar		| 0.0660
  FragIndex	| 1
  FragRMSD	| 0.486

