@<TRIPOS>MOLECULE
BindingDB_15164
 74 81 0 0 0
SMALL
NO_CHARGES


@<TRIPOS>ATOM
1    C         7.7519   -1.8591   12.5552  C     
2    C         8.7678   -0.8737   12.5671  C     
3    C         6.8959   -1.9625   13.6813  C     
4    C         7.0523   -1.1046   14.7842  C     
5    C         8.0646   -0.1308   14.7810  C     
6    C         8.9209   -0.0155   13.6713  C     
7    C         7.9744   -4.8283   12.6831  C     
8    C         9.7589   -5.8032   14.0447  C     
9    C         9.3475   -4.9921   12.9724  C     
10   C         7.0208   -5.4728   13.5067  C     
11   C         7.4364   -6.2526   14.6005  C     
12   C         8.8096   -6.4607   14.8646  C     
13   C         9.2411   -7.3711   15.9604  C     
14   C         9.3257   -9.7079   16.8108  C     
15   C         8.7225   -9.2953   14.4308  C     
16   C         8.0371  -10.6839   14.3370  C     
17   C         8.6898  -11.6932   15.3255  C     
18   C         8.6689  -11.1117   16.7657  C     
19   N         8.6868   -8.7592   15.8389  N     
20   C         6.9575  -13.3852   14.7335  C     
21   N         8.1046  -13.0187   15.2956  N     
22   N         6.7224  -14.6638   14.9270  N     
23   O         6.1912  -12.6757   14.0999  O     
24   C         8.6091  -14.1270   15.8999  C     
25   C        10.0068  -15.6685   17.1682  C     
26   C         9.1022  -16.7162   16.8917  C     
27   C         7.9437  -16.4716   16.1299  C     
28   C         7.7195  -15.1707   15.6502  C     
29   C         9.7641  -14.3676   16.6756  C     
30   C         7.5736   -4.1019   11.5715  C     
31   C         7.6077   -2.7171   11.4673  C     
32   C         7.1544   -2.8818    9.1359  C     
33   C         7.1188   -4.2914    9.2553  C     
34   C         6.8841   -5.0956    8.1290  C     
35   C         6.6665   -4.4959    6.8779  C     
36   C         6.6564   -3.0849    6.7423  C     
37   C         6.9157   -2.2831    7.8821  C     
38   N         7.3444   -4.8224   10.4808  N     
39   N         7.4019   -2.1722   10.2702  N     
40   C         6.3248   -2.4955    5.4999  C     
41   N         6.6509   -2.9257    4.2715  N     
42   N         6.1047   -2.1203    3.4775  N     
43   N         5.4488   -1.2629    4.0667  N     
44   N         5.5284   -1.4412    5.3115  N     
45   H         9.4137   -0.7834   11.7756  H     
46   H         6.1331   -2.6457   13.6949  H     
47   H         6.4237   -1.1868   15.5878  H     
48   H         8.1770    0.4889   15.5837  H     
49   H         9.6640    0.6862   13.6752  H     
50   H        10.7586   -5.9380   14.2083  H     
51   H        10.0612   -4.5429   12.3863  H     
52   H         6.0182   -5.3695   13.3199  H     
53   H         6.7267   -6.7050   15.1835  H     
54   H        10.3334   -7.4226   16.0157  H     
55   H         8.8901   -6.9268   16.8944  H     
56   H         9.2258   -9.3285   17.8305  H     
57   H        10.3971   -9.8069   16.6021  H     
58   H         9.7551   -9.3697   14.0689  H     
59   H         8.1765   -8.6336   13.7500  H     
60   H         6.9770  -10.5466   14.5720  H     
61   H         8.1136  -11.0624   13.3116  H     
62   H         9.7410  -11.7624   15.0241  H     
63   H         9.2092  -11.7853   17.4348  H     
64   H         7.6389  -11.0373   17.1192  H     
65   H         7.7005   -8.7034   16.1197  H     
66   H         5.9561  -15.1518   14.5839  H     
67   H        10.8479  -15.8527   17.7241  H     
68   H         9.2935  -17.6576   17.2417  H     
69   H         7.2857  -17.2244   15.9240  H     
70   H        10.4248  -13.6194   16.8863  H     
71   H         6.8585   -6.1141    8.2163  H     
72   H         6.4730   -5.0993    6.0703  H     
73   H         6.9283   -1.2647    7.8040  H     
74   H         6.1194   -2.2184    2.5475  H     
@<TRIPOS>BOND
     1    1    2 1
     2    1    3 2
     3    1   31 1
     4    2    6 2
     5    3    4 1
     6    4    5 2
     7    5    6 1
     8    7    9 1
     9    7   10 2
    10    7   30 1
    11    8    9 2
    12    8   12 1
    13   10   11 1
    14   11   12 2
    15   12   13 1
    16   13   19 1
    17   14   18 1
    18   14   19 1
    19   15   16 1
    20   15   19 1
    21   16   17 1
    22   17   18 1
    23   17   21 1
    24   20   21 1
    25   20   22 1
    26   20   23 2
    27   21   24 1
    28   22   28 1
    29   24   28 2
    30   24   29 1
    31   25   26 1
    32   25   29 2
    33   26   27 2
    34   27   28 1
    35   30   31 1
    36   30   38 2
    37   31   39 2
    38   32   33 1
    39   32   37 2
    40   32   39 1
    41   33   34 2
    42   33   38 1
    43   34   35 1
    44   35   36 2
    45   36   37 1
    46   36   40 1
    47   40   41 2
    48   40   44 1
    49   41   42 1
    50   42   43 1
    51   43   44 2
    52    2   45 1
    53    3   46 1
    54    4   47 1
    55    5   48 1
    56    6   49 1
    57    8   50 1
    58    9   51 1
    59   10   52 1
    60   11   53 1
    61   13   54 1
    62   13   55 1
    63   14   56 1
    64   14   57 1
    65   15   58 1
    66   15   59 1
    67   16   60 1
    68   16   61 1
    69   17   62 1
    70   18   63 1
    71   18   64 1
    72   19   65 1
    73   22   66 1
    74   25   67 1
    75   26   68 1
    76   27   69 1
    77   29   70 1
    78   34   71 1
    79   35   72 1
    80   37   73 1
    81   42   74 1
@<TRIPOS>PROPERTY_DATA
  Total_Score	| 10.7098
  Crash		| -2.0218
  Polar		| 4.0131
  FragIndex	| 1
  FragRMSD	| 0.433

