@<TRIPOS>MOLECULE
BindingDB_50298449
 77 84 0 0 0
SMALL
NO_CHARGES


@<TRIPOS>ATOM
1    N         6.2620   -2.7542    4.2148  N     
2    C         7.1181   -3.6928    3.8219  C     
3    N         6.6683   -4.1220    2.6350  N     
4    N         5.6337   -3.4417    2.3929  N     
5    N         5.3977   -2.6475    3.2981  N     
6    C         6.5104   -4.1302    6.7932  C     
7    C         6.5867   -2.7218    6.7049  C     
8    C         6.8970   -1.9778    7.8814  C     
9    C         6.7623   -4.7999    8.0081  C     
10   C         7.0787   -4.0571    9.1504  C     
11   C         7.1515   -2.6405    9.1011  C     
12   N         7.4334   -1.9956   10.2690  N     
13   C         7.6572   -2.6106   11.4282  C     
14   C         7.6208   -3.9987   11.4439  C     
15   N         7.3365   -4.6602   10.3299  N     
16   C         8.0315   -4.7776   12.5037  C     
17   C         9.4021   -5.0634   12.6982  C     
18   C         9.8076   -5.9392   13.7218  C     
19   C         8.8498   -6.5105   14.6031  C     
20   C         7.4855   -6.1936   14.4205  C     
21   C         7.0734   -5.3618   13.3685  C     
22   C         7.7502   -1.8138   12.5701  C     
23   C         6.7929   -1.9132   13.6180  C     
24   C         6.8932   -1.1098   14.7648  C     
25   C         7.9379   -0.1782   14.8814  C     
26   C         8.8936   -0.0631   13.8556  C     
27   C         8.7988   -0.8712   12.7052  C     
28   C         9.2448   -7.4881   15.6537  C     
29   N         8.6234   -8.8420   15.5132  N     
30   C         8.7110   -9.4222   14.1235  C     
31   C         7.9622  -10.7723   14.0195  C     
32   C         8.5325  -11.7965   15.0456  C     
33   C         8.4412  -11.1777   16.4739  C     
34   C         9.1471   -9.8006   16.5464  C     
35   N         7.9499  -13.1250   15.0309  N     
36   N         6.6233  -14.8227   14.7257  N     
37   C         6.8196  -13.5480   14.4693  C     
38   O         6.0128  -12.9137   13.8015  O     
39   C         7.6247  -15.2705   15.4785  C     
40   C         8.4807  -14.1903   15.6945  C     
41   C         9.6366  -14.3659   16.4844  C     
42   C         9.9120  -15.6362   17.0285  C     
43   C         9.0400  -16.7212   16.7889  C     
44   C         7.8756  -16.5423   16.0193  C     
45   C         6.2841   -1.9852    5.4362  C     
46   H         7.9251   -4.0592    4.3367  H     
47   H         6.2674   -4.7051    5.9840  H     
48   H         6.9308   -0.9558    7.8489  H     
49   H         6.6968   -5.8213    8.0526  H     
50   H        10.1174   -4.6651   12.0818  H     
51   H        10.8015   -6.1677   13.8294  H     
52   H         6.7733   -6.5990   15.0396  H     
53   H         6.0746   -5.1679   13.2427  H     
54   H         5.9989   -2.5552   13.5358  H     
55   H         6.1964   -1.1908   15.5120  H     
56   H         8.0036    0.4201   15.7159  H     
57   H         9.6623    0.6087   13.9490  H     
58   H         9.5097   -0.7728   11.9744  H     
59   H        10.3334   -7.5929   15.6909  H     
60   H         8.9259   -7.0590   16.6061  H     
61   H         7.6330   -8.7275   15.7342  H     
62   H         8.2482   -8.7468   13.3974  H     
63   H         9.7568   -9.5571   13.8291  H     
64   H         6.9028  -10.5703   14.2140  H     
65   H         8.0571  -11.1661   12.9962  H     
66   H         9.5936  -11.8971   14.7893  H     
67   H         7.3879  -11.0629   16.7403  H     
68   H         8.9034  -11.8537   17.2012  H     
69   H        10.2258   -9.9411   16.4226  H     
70   H         8.9696   -9.3912   17.5468  H     
71   H         5.8546  -15.3334   14.4402  H     
72   H        10.2758  -13.5849   16.6623  H     
73   H        10.7531  -15.7787   17.5901  H     
74   H         9.2543  -17.6428   17.1772  H     
75   H         7.2335  -17.3182   15.8400  H     
76   H         7.0202   -1.1931    5.2981  H     
77   H         5.3174   -1.4973    5.5679  H     
@<TRIPOS>BOND
     1    1    2 1
     2    1    5 1
     3    1   45 1
     4    2    3 2
     5    3    4 1
     6    4    5 2
     7    6    7 2
     8    6    9 1
     9    7    8 1
    10    7   45 1
    11    8   11 2
    12    9   10 2
    13   10   11 1
    14   10   15 1
    15   11   12 1
    16   12   13 2
    17   13   14 1
    18   13   22 1
    19   14   15 2
    20   14   16 1
    21   16   17 2
    22   16   21 1
    23   17   18 1
    24   18   19 2
    25   19   20 1
    26   19   28 1
    27   20   21 2
    28   22   23 2
    29   22   27 1
    30   23   24 1
    31   24   25 2
    32   25   26 1
    33   26   27 2
    34   28   29 1
    35   29   30 1
    36   29   34 1
    37   30   31 1
    38   31   32 1
    39   32   33 1
    40   32   35 1
    41   33   34 1
    42   35   37 1
    43   35   40 1
    44   36   37 1
    45   36   39 1
    46   37   38 2
    47   39   40 2
    48   39   44 1
    49   40   41 1
    50   41   42 2
    51   42   43 1
    52   43   44 2
    53    2   46 1
    54    6   47 1
    55    8   48 1
    56    9   49 1
    57   17   50 1
    58   18   51 1
    59   20   52 1
    60   21   53 1
    61   23   54 1
    62   24   55 1
    63   25   56 1
    64   26   57 1
    65   27   58 1
    66   28   59 1
    67   28   60 1
    68   29   61 1
    69   30   62 1
    70   30   63 1
    71   31   64 1
    72   31   65 1
    73   32   66 1
    74   33   67 1
    75   33   68 1
    76   34   69 1
    77   34   70 1
    78   36   71 1
    79   41   72 1
    80   42   73 1
    81   43   74 1
    82   44   75 1
    83   45   76 1
    84   45   77 1
@<TRIPOS>PROPERTY_DATA
  Total_Score	| 12.3641
  Crash		| -1.3133
  Polar		| 3.2338
  FragIndex	| 1
  FragRMSD	| 0.350

