@<TRIPOS>MOLECULE
BindingDB_15170
 70 76 0 0 0
SMALL
NO_CHARGES


@<TRIPOS>ATOM
1    C         6.8421   -4.6220    7.9906  C     
2    C         6.5994   -3.9481    6.7819  C     
3    C         6.6510   -2.5363    6.7340  C     
4    C         6.9491   -1.8053    7.8986  C     
5    C         7.1204   -3.8954    9.1626  C     
6    C         7.1893   -2.4759    9.1213  C     
7    C         7.4762   -1.7913   10.3190  C     
8    C         7.6676   -2.4857   11.5401  C     
9    C         7.6049   -3.9084   11.5139  C     
10   N         7.3264   -4.5357   10.3415  N     
11   C         7.8002   -1.7459   12.7449  C     
12   C         6.9133   -1.9825   13.8242  C     
13   C         8.7911   -0.7428   12.8817  C     
14   C         8.8751    0.0169   14.0638  C     
15   C         7.9780   -0.2231   15.1223  C     
16   C         7.0001   -1.2255   15.0035  C     
17   C         7.8307   -4.7286   12.6481  C     
18   C         9.0662   -5.1954   14.7110  C     
19   C         8.8688   -4.4214   13.5566  C     
20   C         7.0168   -5.8565   12.9079  C     
21   C         7.2159   -6.6343   14.0651  C     
22   C         8.2302   -6.2984   14.9886  C     
23   C         8.4362   -7.1178   16.2127  C     
24   C         8.6473   -9.4136   17.1480  C     
25   C         9.8533   -8.8118   15.0380  C     
26   C        10.0163  -10.3008   14.6677  C     
27   C        10.0577  -11.1787   15.9442  C     
28   C         8.8024  -10.9241   16.8252  C     
29   N         8.6466   -8.5691   15.9044  N     
30   C         9.4417  -13.3686   14.9383  C     
31   C        11.3900  -13.2950   15.8606  C     
32   C        12.6483  -12.9830   16.4241  C     
33   C        13.6443  -13.9799   16.4674  C     
34   C        13.3866  -15.2812   15.9785  C     
35   C        12.1297  -15.5875   15.4128  C     
36   C        11.1668  -14.5714   15.3468  C     
37   N        10.2665  -12.5721   15.6130  N     
38   N         9.9669  -14.5643   14.7786  N     
39   O         8.3582  -13.0774   14.4526  O     
40   H         6.7948   -5.6450    8.0168  H     
41   H         6.3888   -4.4754    5.9326  H     
42   H         6.4607   -2.0473    5.8564  H     
43   H         6.9789   -0.7816    7.8512  H     
44   H         7.4970   -0.7666   10.3136  H     
45   H         6.1873   -2.7028   13.7459  H     
46   H         9.4553   -0.5642   12.1248  H     
47   H         9.5989    0.7394   14.1549  H     
48   H         8.0347    0.3397   15.9712  H     
49   H         6.3529   -1.4011   15.7726  H     
50   H         9.8297   -4.9496   15.3482  H     
51   H         9.4921   -3.6312   13.3792  H     
52   H         6.2597   -6.1075   12.2647  H     
53   H         6.6101   -7.4417   14.2387  H     
54   H         9.2888   -6.7481   16.7895  H     
55   H         7.5447   -6.9824   16.8323  H     
56   H         7.6968   -9.2904   17.6751  H     
57   H         9.4452   -9.0922   17.8266  H     
58   H        10.7597   -8.4712   15.5487  H     
59   H         9.7629   -8.2658   14.0946  H     
60   H         9.1773  -10.5939   14.0284  H     
61   H        10.9468  -10.4282   14.1008  H     
62   H        10.9091  -10.8181   16.5293  H     
63   H         8.8865  -11.4862   17.7603  H     
64   H         7.9046  -11.2709   16.3075  H     
65   H         7.8314   -8.8716   15.3639  H     
66   H        12.8503  -12.0457   16.7770  H     
67   H        14.5677  -13.7529   16.8489  H     
68   H        14.1112  -15.9969   16.0153  H     
69   H        11.9320  -16.5209   15.0366  H     
70   H         9.5840  -15.2885   14.2632  H     
@<TRIPOS>BOND
     1    1    2 2
     2    1    5 1
     3    2    3 1
     4    3    4 2
     5    4    6 1
     6    5    6 2
     7    5   10 1
     8    6    7 1
     9    7    8 2
    10    8    9 1
    11    8   11 1
    12    9   10 2
    13    9   17 1
    14   11   12 1
    15   11   13 2
    16   12   16 2
    17   13   14 1
    18   14   15 2
    19   15   16 1
    20   17   19 2
    21   17   20 1
    22   18   19 1
    23   18   22 2
    24   20   21 2
    25   21   22 1
    26   22   23 1
    27   23   29 1
    28   24   28 1
    29   24   29 1
    30   25   26 1
    31   25   29 1
    32   26   27 1
    33   27   28 1
    34   27   37 1
    35   30   37 1
    36   30   38 1
    37   30   39 2
    38   31   32 1
    39   31   36 2
    40   31   37 1
    41   32   33 2
    42   33   34 1
    43   34   35 2
    44   35   36 1
    45   36   38 1
    46    1   40 1
    47    2   41 1
    48    3   42 1
    49    4   43 1
    50    7   44 1
    51   12   45 1
    52   13   46 1
    53   14   47 1
    54   15   48 1
    55   16   49 1
    56   18   50 1
    57   19   51 1
    58   20   52 1
    59   21   53 1
    60   23   54 1
    61   23   55 1
    62   24   56 1
    63   24   57 1
    64   25   58 1
    65   25   59 1
    66   26   60 1
    67   26   61 1
    68   27   62 1
    69   28   63 1
    70   28   64 1
    71   29   65 1
    72   32   66 1
    73   33   67 1
    74   34   68 1
    75   35   69 1
    76   38   70 1
@<TRIPOS>PROPERTY_DATA
  Total_Score	| 9.8400
  Crash		| -1.1653
  Polar		| 0.0063
  FragIndex	| 1
  FragRMSD	| 0.148

