@<TRIPOS>MOLECULE
BindingDB_15168
 72 79 0 0 0
SMALL
NO_CHARGES


@<TRIPOS>ATOM
1    C         7.6872   -1.6986   12.7478  C     
2    C         6.8705   -1.9482   13.8813  C     
3    C         8.6512   -0.6647   12.8207  C     
4    C         8.8064    0.0942   13.9988  C     
5    C         8.0230   -0.1949   15.1304  C     
6    C         7.0442   -1.2078   15.0650  C     
7    C         7.7945   -4.7250   12.6382  C     
8    C         9.0510   -5.1909   14.6924  C     
9    C         8.8223   -4.4005   13.5527  C     
10   C         6.9897   -5.8585   12.8980  C     
11   C         7.2322   -6.6615   14.0264  C     
12   C         8.2589   -6.3395   14.9332  C     
13   C         8.5081   -7.2154   16.1054  C     
14   C         8.7483   -9.4996   16.9993  C     
15   C        10.0750   -8.8636   14.9854  C     
16   C        10.2282  -10.3429   14.5741  C     
17   C        10.2065  -11.2571   15.8366  C     
18   C         8.9118  -11.0071   16.6731  C     
19   N         8.8035   -8.6473   15.7721  N     
20   C         9.5089  -13.4739   14.9533  C     
21   N        10.3972  -12.6575   15.5199  N     
22   N         9.9648  -14.7027   14.9119  N     
23   O         8.3922  -13.1775   14.5509  O     
24   C        11.4859  -13.4145   15.8277  C     
25   C        13.6387  -14.1837   16.6752  C     
26   C        13.3322  -15.4908   16.2479  C     
27   C        12.0986  -15.7742   15.6379  C     
28   C        11.1914  -14.7161   15.4240  C     
29   C        12.7135  -13.1336   16.4635  C     
30   C         7.5234   -3.8966   11.5145  C     
31   C         7.5225   -2.4685   11.5702  C     
32   N         7.2789   -4.4953   10.3151  N     
33   N         7.3218   -1.7926   10.4110  N     
34   C         7.0638   -3.8159    9.1613  C     
35   C         7.0946   -2.3904    9.2068  C     
36   C         6.8129   -4.4772    7.9362  C     
37   C         6.9123   -1.6266    8.0363  C     
38   C         6.6871   -2.3075    6.8327  C     
39   C         6.6392   -3.6963    6.7785  C     
40   C         6.4250   -3.9770    5.4681  C     
41   N         6.5210   -1.8778    5.5758  N     
42   N         6.3634   -2.8807    4.8040  N     
43   H         6.1303   -2.6511   13.8445  H     
44   H         9.2523   -0.4554   12.0130  H     
45   H         9.4979    0.8457   14.0444  H     
46   H         8.1457    0.3388   15.9908  H     
47   H         6.4546   -1.4016   15.8843  H     
48   H         9.8035   -4.9297   15.3313  H     
49   H         9.4141   -3.5732   13.3892  H     
50   H         6.2181   -6.0975   12.2746  H     
51   H         6.6394   -7.4770   14.1933  H     
52   H         9.3259   -6.8198   16.7212  H     
53   H         7.5959   -7.1643   16.7075  H     
54   H         7.7888   -9.3697   17.5273  H     
55   H         9.5389   -9.2088   17.7009  H     
56   H        10.9550   -8.5518   15.5726  H     
57   H        10.0595   -8.2636   14.0663  H     
58   H         9.4119  -10.6109   13.8948  H     
59   H        11.1771  -10.4813   14.0390  H     
60   H        11.0371  -10.9215   16.4735  H     
61   H         8.9505  -11.5737   17.6025  H     
62   H         8.0336  -11.3453   16.1127  H     
63   H         8.0316   -8.9618   15.1761  H     
64   H         9.4799  -15.4805   14.5984  H     
65   H        14.5258  -13.9851   17.1402  H     
66   H        14.0116  -16.2443   16.3917  H     
67   H        11.8575  -16.7310   15.3630  H     
68   H        12.9308  -12.1983   16.8025  H     
69   H         6.7886   -5.4978    7.8834  H     
70   H         6.9232   -0.6065    8.0678  H     
71   H         6.3112   -4.8829    5.0755  H     
72   H         6.5447   -0.9525    5.2915  H     
@<TRIPOS>BOND
     1    1    2 1
     2    1    3 2
     3    1   31 1
     4    2    6 2
     5    3    4 1
     6    4    5 2
     7    5    6 1
     8    7    9 1
     9    7   10 2
    10    7   30 1
    11    8    9 2
    12    8   12 1
    13   10   11 1
    14   11   12 2
    15   12   13 1
    16   13   19 1
    17   14   18 1
    18   14   19 1
    19   15   16 1
    20   15   19 1
    21   16   17 1
    22   17   18 1
    23   17   21 1
    24   20   21 1
    25   20   22 1
    26   20   23 2
    27   21   24 1
    28   22   28 1
    29   24   28 2
    30   24   29 1
    31   25   26 1
    32   25   29 2
    33   26   27 2
    34   27   28 1
    35   30   31 1
    36   30   32 2
    37   31   33 2
    38   32   34 1
    39   33   35 1
    40   34   35 2
    41   34   36 1
    42   35   37 1
    43   36   39 2
    44   37   38 2
    45   38   39 1
    46   38   41 1
    47   39   40 1
    48   40   42 2
    49   41   42 1
    50    2   43 1
    51    3   44 1
    52    4   45 1
    53    5   46 1
    54    6   47 1
    55    8   48 1
    56    9   49 1
    57   10   50 1
    58   11   51 1
    59   13   52 1
    60   13   53 1
    61   14   54 1
    62   14   55 1
    63   15   56 1
    64   15   57 1
    65   16   58 1
    66   16   59 1
    67   17   60 1
    68   18   61 1
    69   18   62 1
    70   19   63 1
    71   22   64 1
    72   25   65 1
    73   26   66 1
    74   27   67 1
    75   29   68 1
    76   36   69 1
    77   37   70 1
    78   40   71 1
    79   41   72 1
@<TRIPOS>PROPERTY_DATA
  Total_Score	| 11.5257
  Crash		| -0.9409
  Polar		| 1.1354
  FragIndex	| 1
  FragRMSD	| 0.126

