@<TRIPOS>MOLECULE
BindingDB_15167
 77 84 0 0 0
SMALL
NO_CHARGES


@<TRIPOS>ATOM
1    C         7.8031   -1.7508   12.7020  C     
2    C         6.9323   -1.9803   13.7967  C     
3    C         8.7542   -0.7067   12.8122  C     
4    C         8.8550    0.0561   13.9947  C     
5    C         8.0099   -0.2170   15.0816  C     
6    C         7.0428   -1.2325   14.9805  C     
7    C         8.1080   -4.7217   12.5713  C     
8    C         9.8206   -5.8846   13.8723  C     
9    C         9.4676   -5.0013   12.8386  C     
10   C         7.1129   -5.3222   13.3700  C     
11   C         7.4764   -6.1730   14.4306  C     
12   C         8.8287   -6.4905   14.6761  C     
13   C         9.1867   -7.4584   15.7476  C     
14   C         9.0854   -9.7732   16.6294  C     
15   C         8.7698   -9.3949   14.1913  C     
16   C         8.0621  -10.7715   14.0402  C     
17   C         8.5701  -11.7847   15.1114  C     
18   C         8.4050  -11.1581   16.5278  C     
19   N         8.5956   -8.8245   15.5782  N     
20   C         6.8569  -13.5230   14.5182  C     
21   N         7.9933  -13.1124   15.0747  N     
22   N         6.6476  -14.7985   14.7604  N     
23   O         6.0521  -12.8709   13.8725  O     
24   C         8.5056  -14.1887   15.7335  C     
25   C         9.9141  -15.6560   17.0787  C     
26   C         9.0331  -16.7290   16.8365  C     
27   C         7.8758  -16.5389   16.0538  C     
28   C         7.6423  -15.2603   15.5155  C     
29   C         9.6542  -14.3775   16.5352  C     
30   C         7.7527   -3.9083   11.5101  C     
31   C         7.7184   -2.5195   11.5424  C     
32   C         7.2343   -2.4913    9.2095  C     
33   C         7.2592   -3.9028    9.2005  C     
34   C         6.9998   -4.6137    8.0202  C     
35   C         6.6766   -3.9223    6.8287  C     
36   C         6.6377   -2.5053    6.8454  C     
37   C         6.9349   -1.7920    8.0272  C     
38   N         7.5284   -4.5384   10.3648  N     
39   N         7.4730   -1.8720   10.4003  N     
40   C         6.3870   -4.6500    5.6516  C     
41   N         5.3392   -4.5034    4.8277  N     
42   N         5.4789   -5.3820    3.9301  N     
43   N         6.5066   -6.0439    4.1099  N     
44   N         7.1063   -5.6583    5.1389  N     
45   C         4.5538   -5.6255    2.9238  C     
46   H         6.1937   -2.6860   13.7366  H     
47   H         9.3977   -0.5050   12.0383  H     
48   H         9.5553    0.7974   14.0634  H     
49   H         8.0944    0.3207   15.9427  H     
50   H         6.4171   -1.4220   15.7696  H     
51   H        10.8093   -6.0998   14.0208  H     
52   H        10.2115   -4.5832   12.2603  H     
53   H         6.1227   -5.1311   13.2028  H     
54   H         6.7368   -6.5869   15.0087  H     
55   H        10.2738   -7.5445   15.8420  H     
56   H         8.8154   -7.0319   16.6835  H     
57   H         8.8640   -9.3680   17.6178  H     
58   H        10.1673   -9.9011   16.5534  H     
59   H         9.8278   -9.5047   13.9471  H     
60   H         8.3180   -8.7225   13.4475  H     
61   H         6.9897  -10.5972   14.1440  H     
62   H         8.2522  -11.1671   13.0352  H     
63   H         9.6476  -11.8886   14.9162  H     
64   H         8.8376  -11.8244   17.2816  H     
65   H         7.3357  -11.0571   16.7443  H     
66   H         7.5908   -8.7231   15.7512  H     
67   H         5.8709  -15.2999   14.4795  H     
68   H        10.7523  -15.8040   17.6526  H     
69   H         9.2374  -17.6476   17.2279  H     
70   H         7.2259  -17.3059   15.8813  H     
71   H        10.3004  -13.6064   16.7225  H     
72   H         7.0198   -5.6375    8.0402  H     
73   H         6.4086   -1.9803    5.9988  H     
74   H         6.9141   -0.7716    8.0218  H     
75   H         3.5989   -5.9305    3.3709  H     
76   H         4.8786   -6.4201    2.2526  H     
77   H         4.3855   -4.7152    2.3338  H     
@<TRIPOS>BOND
     1    1    2 1
     2    1    3 2
     3    1   31 1
     4    2    6 2
     5    3    4 1
     6    4    5 2
     7    5    6 1
     8    7    9 1
     9    7   10 2
    10    7   30 1
    11    8    9 2
    12    8   12 1
    13   10   11 1
    14   11   12 2
    15   12   13 1
    16   13   19 1
    17   14   18 1
    18   14   19 1
    19   15   16 1
    20   15   19 1
    21   16   17 1
    22   17   18 1
    23   17   21 1
    24   20   21 1
    25   20   22 1
    26   20   23 2
    27   21   24 1
    28   22   28 1
    29   24   28 2
    30   24   29 1
    31   25   26 1
    32   25   29 2
    33   26   27 2
    34   27   28 1
    35   30   31 1
    36   30   38 2
    37   31   39 2
    38   32   33 1
    39   32   37 2
    40   32   39 1
    41   33   34 2
    42   33   38 1
    43   34   35 1
    44   35   36 2
    45   35   40 1
    46   36   37 1
    47   40   41 2
    48   40   44 1
    49   41   42 1
    50   42   43 1
    51   42   45 1
    52   43   44 2
    53    2   46 1
    54    3   47 1
    55    4   48 1
    56    5   49 1
    57    6   50 1
    58    8   51 1
    59    9   52 1
    60   10   53 1
    61   11   54 1
    62   13   55 1
    63   13   56 1
    64   14   57 1
    65   14   58 1
    66   15   59 1
    67   15   60 1
    68   16   61 1
    69   16   62 1
    70   17   63 1
    71   18   64 1
    72   18   65 1
    73   19   66 1
    74   22   67 1
    75   25   68 1
    76   26   69 1
    77   27   70 1
    78   29   71 1
    79   34   72 1
    80   36   73 1
    81   37   74 1
    82   45   75 1
    83   45   76 1
    84   45   77 1
@<TRIPOS>PROPERTY_DATA
  Total_Score	| 11.9809
  Crash		| -1.0981
  Polar		| 3.3298
  FragIndex	| 1
  FragRMSD	| 0.148

