@<TRIPOS>MOLECULE
BindingDB_15165
 74 81 0 0 0
SMALL
NO_CHARGES


@<TRIPOS>ATOM
1    C         7.7929   -1.7952   12.8113  C     
2    C         6.9261   -2.0494   13.9053  C     
3    C         8.7517   -0.7609   12.9456  C     
4    C         8.8548   -0.0206   14.1390  C     
5    C         7.9977   -0.3048   15.2163  C     
6    C         7.0255   -1.3118   15.0972  C     
7    C         8.0720   -4.7822   12.5099  C     
8    C         7.5144   -6.3646   14.2891  C     
9    C         7.1139   -5.4212   13.3272  C     
10   C         9.4371   -5.1019   12.6857  C     
11   C         9.8251   -6.0799   13.6211  C     
12   C         8.8693   -6.7548   14.4198  C     
13   C         9.3416   -7.8305   15.3507  C     
14   C         7.5161   -9.5247   14.8910  C     
15   C         8.7953   -9.6708   17.0065  C     
16   C         9.4859  -10.9697   16.5042  C     
17   C         8.5616  -11.7739   15.5326  C     
18   C         8.1962  -10.8141   14.3644  C     
19   N         8.3077   -8.7643   15.9165  N     
20   C        10.2115  -13.6633   15.3194  C     
21   N         9.0468  -13.0615   15.0591  N     
22   N        10.2562  -14.8721   14.8211  N     
23   O        11.1369  -13.2579   16.0138  O     
24   C         8.3134  -13.9718   14.3450  C     
25   C         6.5336  -15.1307   13.1309  C     
26   C         7.3430  -16.2766   13.0201  C     
27   C         8.6368  -16.2842   13.5828  C     
28   C         9.0960  -15.1206   14.2238  C     
29   C         7.0091  -13.9804   13.7965  C     
30   C         7.6703   -3.9024   11.5101  C     
31   C         7.6855   -2.5128   11.6164  C     
32   C         7.2224   -2.3333    9.2885  C     
33   C         7.1878   -3.7430    9.1881  C     
34   C         6.9545   -4.3592    7.9428  C     
35   C         6.7378   -3.5723    6.7846  C     
36   C         6.7532   -2.1587    6.9051  C     
37   C         6.9883   -1.5422    8.1483  C     
38   N         7.4185   -4.4521   10.3239  N     
39   N         7.4615   -1.7992   10.5148  N     
40   C         6.5567   -4.1852    5.5185  C     
41   N         5.8481   -5.2858    5.2389  N     
42   N         5.9717   -5.4688    3.9995  N     
43   N         6.6841   -4.6144    3.4760  N     
44   N         7.0778   -3.7933    4.3462  N     
45   H         6.1937   -2.7548   13.8340  H     
46   H         9.3978   -0.5487   12.1790  H     
47   H         9.5640    0.7105   14.2281  H     
48   H         8.0770    0.2240   16.0863  H     
49   H         6.3912   -1.5077   15.8743  H     
50   H         6.7894   -6.7850   14.8722  H     
51   H         6.1197   -5.1828   13.2454  H     
52   H        10.1513   -4.6551   12.1079  H     
53   H        10.8167   -6.3136   13.7022  H     
54   H        10.1072   -8.4213   14.8369  H     
55   H         9.8384   -7.3117   16.1763  H     
56   H         7.2819   -8.9033   14.0295  H     
57   H         6.5580   -9.7911   15.3440  H     
58   H         7.9353   -9.9529   17.6155  H     
59   H         9.4788   -9.1460   17.6814  H     
60   H        10.4183  -10.6899   16.0011  H     
61   H         9.7252  -11.5833   17.3774  H     
62   H         7.6498  -11.9908   16.1005  H     
63   H         7.5059  -11.2789   13.6701  H     
64   H         9.0946  -10.5472   13.8042  H     
65   H         7.6409   -8.1505   16.3907  H     
66   H        10.9804  -15.5105   14.9471  H     
67   H         5.5909  -15.1409   12.7373  H     
68   H         6.9875  -17.1053   12.5393  H     
69   H         9.2266  -17.1146   13.5066  H     
70   H         6.3900  -13.1835   13.8965  H     
71   H         6.9397   -5.3834    7.8915  H     
72   H         6.5948   -1.5627    6.0878  H     
73   H         7.0100   -0.5217    8.2212  H     
74   H         5.5843   -6.1843    3.5329  H     
@<TRIPOS>BOND
     1    1    2 1
     2    1    3 2
     3    1   31 1
     4    2    6 2
     5    3    4 1
     6    4    5 2
     7    5    6 1
     8    7    9 1
     9    7   10 2
    10    7   30 1
    11    8    9 2
    12    8   12 1
    13   10   11 1
    14   11   12 2
    15   12   13 1
    16   13   19 1
    17   14   18 1
    18   14   19 1
    19   15   16 1
    20   15   19 1
    21   16   17 1
    22   17   18 1
    23   17   21 1
    24   20   21 1
    25   20   22 1
    26   20   23 2
    27   21   24 1
    28   22   28 1
    29   24   28 2
    30   24   29 1
    31   25   26 1
    32   25   29 2
    33   26   27 2
    34   27   28 1
    35   30   31 1
    36   30   38 2
    37   31   39 2
    38   32   33 1
    39   32   37 2
    40   32   39 1
    41   33   34 2
    42   33   38 1
    43   34   35 1
    44   35   36 2
    45   35   40 1
    46   36   37 1
    47   40   41 2
    48   40   44 1
    49   41   42 1
    50   42   43 1
    51   43   44 2
    52    2   45 1
    53    3   46 1
    54    4   47 1
    55    5   48 1
    56    6   49 1
    57    8   50 1
    58    9   51 1
    59   10   52 1
    60   11   53 1
    61   13   54 1
    62   13   55 1
    63   14   56 1
    64   14   57 1
    65   15   58 1
    66   15   59 1
    67   16   60 1
    68   16   61 1
    69   17   62 1
    70   18   63 1
    71   18   64 1
    72   19   65 1
    73   22   66 1
    74   25   67 1
    75   26   68 1
    76   27   69 1
    77   29   70 1
    78   34   71 1
    79   36   72 1
    80   37   73 1
    81   42   74 1
@<TRIPOS>PROPERTY_DATA
  Total_Score	| 10.6220
  Crash		| -1.0556
  Polar		| 1.4400
  FragIndex	| 1
  FragRMSD	| 1.055

