@<TRIPOS>MOLECULE
BindingDB_15163
 71 77 0 0 0
SMALL
NO_CHARGES


@<TRIPOS>ATOM
1    C         7.7505   -1.7621   12.7085  C     
2    C         6.8769   -1.9208   13.8172  C     
3    C         8.7182   -0.7206   12.7694  C     
4    C         8.8128    0.1183   13.8946  C     
5    C         7.9628   -0.0756   14.9921  C     
6    C         6.9884   -1.0899   14.9519  C     
7    C         7.9966   -4.7430   12.4862  C     
8    C         9.7622   -6.0200   13.5978  C     
9    C         9.3585   -5.1299   12.5905  C     
10   C         7.0625   -5.2801   13.3953  C     
11   C         7.4784   -6.1521   14.4222  C     
12   C         8.8298   -6.5371   14.5251  C     
13   C         9.2451   -7.5560   15.5336  C     
14   C         9.0957   -9.8422   16.4967  C     
15   C         8.4163   -9.5306   14.1411  C     
16   C         7.6542  -10.8865   14.1696  C     
17   C         8.3462  -11.9087   15.1257  C     
18   C         8.4086  -11.2345   16.5340  C     
19   N         8.5190   -8.8773   15.4949  N     
20   C         6.6686  -13.7423   14.6491  C     
21   N         7.7820  -13.2506   15.2020  N     
22   N         6.5274  -15.0243   14.9026  N     
23   O         5.8300  -13.1587   13.9824  O     
24   C         8.3896  -14.3139   15.8199  C     
25   C         9.9240  -15.7296   17.0821  C     
26   C         9.0885  -16.8503   16.8638  C     
27   C         7.9047  -16.7033   16.1030  C     
28   C         7.5721  -15.4305   15.6128  C     
29   C         9.5915  -14.4685   16.5528  C     
30   C         7.5969   -3.9057   11.4618  C     
31   C         7.6070   -2.5157   11.5409  C     
32   C         7.1804   -2.3777    9.2094  C     
33   C         7.1825   -3.7894    9.1293  C     
34   C         6.9876   -4.4206    7.8836  C     
35   C         6.7721   -3.6497    6.7125  C     
36   C         6.7523   -2.2334    6.8222  C     
37   C         6.9630   -1.6006    8.0616  C     
38   N         7.4072   -4.4837   10.2780  N     
39   N         7.3976   -1.8203   10.4275  N     
40   C         6.5937   -4.2786    5.4531  C     
41   O         6.6684   -5.6198    5.3028  O     
42   O         6.3695   -3.5672    4.3213  O     
43   H         6.1330   -2.6258   13.8018  H     
44   H         9.3601   -0.5693   11.9901  H     
45   H         9.5178    0.8584   13.9180  H     
46   H         8.0389    0.5258   15.8126  H     
47   H         6.3558   -1.2205   15.7432  H     
48   H        10.7504   -6.2927   13.6469  H     
49   H        10.0490   -4.8041   11.9069  H     
50   H         6.0643   -5.0405   13.3170  H     
51   H         6.7810   -6.5269   15.0708  H     
52   H        10.3136   -7.7372   15.4515  H     
53   H         9.0864   -7.1222   16.5212  H     
54   H         9.0123   -9.4077   17.4970  H     
55   H        10.1636   -9.9907   16.2911  H     
56   H         9.4153   -9.6838   13.7186  H     
57   H         7.8696   -8.8710   13.4537  H     
58   H         6.6305  -10.6996   14.4993  H     
59   H         7.6108  -11.2877   13.1550  H     
60   H         9.3684  -12.0390   14.7503  H     
61   H         8.9532  -11.8829   17.2293  H     
62   H         7.3888  -11.1155   16.9138  H     
63   H         7.5634   -8.6789   15.8037  H     
64   H         5.7876  -15.5802   14.6095  H     
65   H        10.7754  -15.8397   17.6389  H     
66   H         9.3511  -17.7648   17.2351  H     
67   H         7.3015  -17.5085   15.9353  H     
68   H        10.2091  -13.6565   16.6966  H     
69   H         7.0093   -5.4475    7.8430  H     
70   H         6.6094   -1.6466    5.9986  H     
71   H         6.9659   -0.5815    8.1225  H     
@<TRIPOS>BOND
     1    1    2 1
     2    1    3 2
     3    1   31 1
     4    2    6 2
     5    3    4 1
     6    4    5 2
     7    5    6 1
     8    7    9 1
     9    7   10 2
    10    7   30 1
    11    8    9 2
    12    8   12 1
    13   10   11 1
    14   11   12 2
    15   12   13 1
    16   13   19 1
    17   14   18 1
    18   14   19 1
    19   15   16 1
    20   15   19 1
    21   16   17 1
    22   17   18 1
    23   17   21 1
    24   20   21 1
    25   20   22 1
    26   20   23 2
    27   21   24 1
    28   22   28 1
    29   24   28 2
    30   24   29 1
    31   25   26 1
    32   25   29 2
    33   26   27 2
    34   27   28 1
    35   30   31 1
    36   30   38 2
    37   31   39 2
    38   32   33 1
    39   32   37 2
    40   32   39 1
    41   33   34 2
    42   33   38 1
    43   34   35 1
    44   35   36 2
    45   35   40 1
    46   36   37 1
    47   40   41 2
    48   40   42 1
    49    2   43 1
    50    3   44 1
    51    4   45 1
    52    5   46 1
    53    6   47 1
    54    8   48 1
    55    9   49 1
    56   10   50 1
    57   11   51 1
    58   13   52 1
    59   13   53 1
    60   14   54 1
    61   14   55 1
    62   15   56 1
    63   15   57 1
    64   16   58 1
    65   16   59 1
    66   17   60 1
    67   18   61 1
    68   18   62 1
    69   19   63 1
    70   22   64 1
    71   25   65 1
    72   26   66 1
    73   27   67 1
    74   29   68 1
    75   34   69 1
    76   36   70 1
    77   37   71 1
@<TRIPOS>PROPERTY_DATA
  Total_Score	| 10.9489
  Crash		| -1.3396
  Polar		| 3.3439
  FragIndex	| 1
  FragRMSD	| 0.479

