@<TRIPOS>MOLECULE
BindingDB_15169
 72 79 0 0 0
SMALL
NO_CHARGES


@<TRIPOS>ATOM
1    C         7.8897   -1.8784   12.7255  C     
2    C         8.8406   -0.8338   12.8361  C     
3    C         6.9980   -2.0990   13.8006  C     
4    C         7.0568   -1.3092   14.9637  C     
5    C         8.0007   -0.2700   15.0545  C     
6    C         8.8896   -0.0295   13.9921  C     
7    C         8.2492   -4.8780   12.4775  C     
8    C        10.0149   -6.0223   13.7320  C     
9    C         9.6213   -5.1209   12.7219  C     
10   C         7.2871   -5.5483   13.2579  C     
11   C         7.6892   -6.4044   14.3041  C     
12   C         9.0573   -6.6882   14.5397  C     
13   C         9.5161   -7.5706   15.6563  C     
14   C         8.1042   -9.5940   14.9854  C     
15   C         9.0364   -9.4095   17.3007  C     
16   C         9.9215  -10.6646   17.0281  C     
17   C         9.2120  -11.6379   16.0403  C     
18   C         8.9858  -10.8419   14.7162  C     
19   N         8.5853   -8.6716   16.0757  N     
20   C         9.1643  -13.9839   15.3153  C     
21   N         9.8351  -12.9291   15.7893  N     
22   N         9.9511  -15.0294   15.1684  N     
23   O         7.9649  -14.0490   15.0537  O     
24   C        11.1219  -13.3552   15.9672  C     
25   C        13.5177  -13.4476   16.4203  C     
26   C        13.5550  -14.7829   15.9642  C     
27   C        12.3618  -15.4282   15.5513  C     
28   C        11.1725  -14.6803   15.5430  C     
29   C        12.2866  -12.7330   16.4706  C     
30   C         7.8522   -4.0282   11.4245  C     
31   C         7.7539   -2.6140   11.5241  C     
32   N         7.6071   -4.6063   10.2215  N     
33   N         7.4635   -1.9118   10.3931  N     
34   C         7.2879   -3.9082    9.1046  C     
35   C         7.2363   -2.4898    9.1826  C     
36   C         7.0428   -4.5642    7.8753  C     
37   C         6.9594   -1.7216    8.0324  C     
38   C         6.7571   -2.3920    6.8097  C     
39   C         6.7920   -3.7831    6.7372  C     
40   C         6.4732   -3.0113    4.7516  C     
41   N         6.6104   -4.1493    5.4571  N     
42   N         6.5489   -1.9452    5.5643  N     
43   H         9.4976   -0.6454   12.0727  H     
44   H         6.2670   -2.8132   13.7303  H     
45   H         6.4022   -1.4749   15.7285  H     
46   H         8.0328    0.3136   15.8938  H     
47   H         9.5735    0.7282   14.0668  H     
48   H        11.0155   -6.1758   13.8945  H     
49   H        10.3394   -4.6392   12.1735  H     
50   H         6.2864   -5.4229   13.0775  H     
51   H         6.9566   -6.8270   14.8725  H     
52   H        10.4892   -8.0100   15.4285  H     
53   H         9.6597   -6.8996   16.5053  H     
54   H         7.9636   -9.0730   14.0331  H     
55   H         7.1043   -9.9334   15.2862  H     
56   H         8.1354   -9.7271   17.8377  H     
57   H         9.5807   -8.7498   17.9863  H     
58   H        10.8975  -10.3735   16.5968  H     
59   H        10.0703  -11.1708   17.9965  H     
60   H         8.2252  -11.8542   16.4744  H     
61   H         8.4596  -11.4599   13.9843  H     
62   H         9.9376  -10.5384   14.2734  H     
63   H         7.7484   -8.1954   16.4091  H     
64   H         9.6797  -15.9108   14.8677  H     
65   H        14.3756  -12.9949   16.7348  H     
66   H        14.4362  -15.2912   15.9531  H     
67   H        12.3788  -16.4069   15.2578  H     
68   H        12.2484  -11.8131   16.9057  H     
69   H         7.0708   -5.5842    7.8053  H     
70   H         6.9227   -0.7033    8.0709  H     
71   H         6.3438   -2.9656    3.7354  H     
72   H         6.5097   -1.0173    5.2852  H     
@<TRIPOS>BOND
     1    1    2 1
     2    1    3 2
     3    1   31 1
     4    2    6 2
     5    3    4 1
     6    4    5 2
     7    5    6 1
     8    7    9 1
     9    7   10 2
    10    7   30 1
    11    8    9 2
    12    8   12 1
    13   10   11 1
    14   11   12 2
    15   12   13 1
    16   13   19 1
    17   14   18 1
    18   14   19 1
    19   15   16 1
    20   15   19 1
    21   16   17 1
    22   17   18 1
    23   17   21 1
    24   20   21 1
    25   20   22 1
    26   20   23 2
    27   21   24 1
    28   22   28 1
    29   24   28 2
    30   24   29 1
    31   25   26 1
    32   25   29 2
    33   26   27 2
    34   27   28 1
    35   30   31 1
    36   30   32 2
    37   31   33 2
    38   32   34 1
    39   33   35 1
    40   34   35 2
    41   34   36 1
    42   35   37 1
    43   36   39 2
    44   37   38 2
    45   38   39 1
    46   38   42 1
    47   39   41 1
    48   40   41 2
    49   40   42 1
    50    2   43 1
    51    3   44 1
    52    4   45 1
    53    5   46 1
    54    6   47 1
    55    8   48 1
    56    9   49 1
    57   10   50 1
    58   11   51 1
    59   13   52 1
    60   13   53 1
    61   14   54 1
    62   14   55 1
    63   15   56 1
    64   15   57 1
    65   16   58 1
    66   16   59 1
    67   17   60 1
    68   18   61 1
    69   18   62 1
    70   19   63 1
    71   22   64 1
    72   25   65 1
    73   26   66 1
    74   27   67 1
    75   29   68 1
    76   36   69 1
    77   37   70 1
    78   40   71 1
    79   42   72 1
@<TRIPOS>PROPERTY_DATA
  Total_Score	| 11.7698
  Crash		| -1.1398
  Polar		| 2.8728
  FragIndex	| 1
  FragRMSD	| 0.902

