@<TRIPOS>MOLECULE
BindingDB_50181141
 46 49 0 0 0
SMALL
NO_CHARGES


@<TRIPOS>ATOM
1    C        22.9842   15.4537  105.6201  C     
2    C        21.7281   16.0348  105.4026  C     
3    C        20.6266   15.6577  106.1973  C     
4    C        20.7404   14.6959  107.2487  C     
5    C        22.0340   14.1231  107.4547  C     
6    C        23.1339   14.4922  106.6360  C     
7    C        19.6216   14.4144  108.0602  C     
8    C        18.4926   15.3121  108.2182  C     
9    N        17.6093   14.6827  109.1432  N     
10   C        18.1516   13.4224  109.5717  C     
11   C        19.4095   13.3521  108.8508  C     
12   C        18.3693   13.2978  111.0361  C     
13   C        19.2416   14.1791  111.7353  C     
14   C        19.3635   14.1103  113.1334  C     
15   C        18.5796   13.1938  113.8727  C     
16   C        17.6563   12.3613  113.2026  C     
17   C        17.6063   12.3709  111.7963  C     
18   C        16.4172   15.1650  109.5408  C     
19   C        15.8106   16.4428  109.1183  C     
20   O        15.7360   14.4956  110.3155  O     
21   F        22.3203   13.2982  108.4370  F     
22   F        21.5560   16.9284  104.4605  F     
23   O        16.7862   11.6108  113.9250  O     
24   C        15.9458   17.5230  110.2299  C     
25   O        14.4210   16.2426  108.8153  O     
26   C        17.2404   18.3368  110.3048  C     
27   C        15.9411   19.0082  109.8397  C     
28   H        23.7805   15.7196  105.0473  H     
29   H        19.7348   16.1040  105.9824  H     
30   H        24.0565   14.0769  106.7874  H     
31   H        18.8274   16.2772  108.6120  H     
32   H        17.9705   15.4344  107.2610  H     
33   H        17.5211   12.6209  109.1768  H     
34   H        20.0225   12.5575  108.9081  H     
35   H        19.7672   14.9043  111.2430  H     
36   H        19.9974   14.7566  113.6260  H     
37   H        18.6669   13.1536  114.8837  H     
38   H        16.9650   11.7288  111.3166  H     
39   H        16.2713   16.8097  108.2024  H     
40   H        16.0069   11.4334  113.3438  H     
41   H        15.5195   17.3040  111.2188  H     
42   H        14.0441   17.1544  108.6498  H     
43   H        17.5736   18.6069  111.3122  H     
44   H        17.9876   18.2228  109.5126  H     
45   H        15.8660   19.2267  108.7765  H     
46   H        15.4566   19.6733  110.5547  H     
@<TRIPOS>BOND
     1    1    2 2
     2    1    6 1
     3    2    3 1
     4    2   22 1
     5    3    4 2
     6    4    5 1
     7    4    7 1
     8    5    6 2
     9    5   21 1
    10    7    8 1
    11    7   11 2
    12    8    9 1
    13    9   10 1
    14    9   18 am
    15   10   11 1
    16   10   12 1
    17   12   13 2
    18   12   17 1
    19   13   14 1
    20   14   15 2
    21   15   16 1
    22   16   17 2
    23   16   23 1
    24   18   19 1
    25   18   20 2
    26   19   24 1
    27   19   25 1
    28   24   26 1
    29   24   27 1
    30   26   27 1
    31    1   28 1
    32    3   29 1
    33    6   30 1
    34    8   31 1
    35    8   32 1
    36   10   33 1
    37   11   34 1
    38   13   35 1
    39   14   36 1
    40   15   37 1
    41   17   38 1
    42   19   39 1
    43   23   40 1
    44   24   41 1
    45   25   42 1
    46   26   43 1
    47   26   44 1
    48   27   45 1
    49   27   46 1
@<TRIPOS>PROPERTY_DATA
  Total_Score	| 7.1951
  Crash		| -1.1236
  Polar		| 0.9073
  FragIndex	| 1
  FragRMSD	| 0.210

