@<TRIPOS>MOLECULE
BindingDB_26454
 55 57 0 0 0
SMALL
NO_CHARGES


@<TRIPOS>ATOM
1    C         4.2241  -24.7781  -19.0086  C     
2    C         5.1977  -25.3200  -19.9830  C     
3    O         6.1139  -24.5103  -20.5515  O     
4    O         5.2415  -26.6236  -20.3302  O     
5    C         2.9853  -25.6946  -18.7751  C     
6    C         1.9275  -25.5900  -19.9079  C     
7    C         1.0558  -26.7740  -19.9715  C     
8    O         0.2287  -27.0886  -18.9494  O     
9    O         1.0899  -27.5754  -21.0575  O     
10   N         4.9162  -24.5913  -17.7736  N     
11   S         5.0054  -23.1118  -16.9695  S     
12   O         6.1573  -22.1997  -17.5777  O     
13   O         5.4692  -23.4610  -15.4897  O     
14   C         3.4672  -22.3118  -16.7998  C     
15   C         2.0848  -20.2953  -16.9621  C     
16   C         1.9293  -18.9240  -17.1975  C     
17   C         0.7118  -18.3527  -17.1070  C     
18   C        -0.4083  -19.0957  -16.8240  C     
19   C        -0.3056  -20.4135  -16.5454  C     
20   C         0.9343  -21.0593  -16.6074  C     
21   C         1.0714  -22.4362  -16.3303  C     
22   C         2.3311  -23.0532  -16.4171  C     
23   C         3.3418  -20.9316  -17.0629  C     
24   O        -1.6109  -18.4965  -16.7615  O     
25   C        -2.3235  -18.4078  -18.0179  C     
26   C        -1.7566  -17.3732  -18.9287  C     
27   C        -1.4206  -17.6920  -20.2655  C     
28   C        -0.8176  -16.7382  -21.1060  C     
29   C        -0.5417  -15.4412  -20.6245  C     
30   C        -0.8823  -15.1098  -19.2969  C     
31   C         0.0396  -14.5615  -21.3901  C     
32   N         0.5538  -13.7858  -22.0637  N     
33   C        -1.4955  -16.0619  -18.4559  C     
34   O        -1.7500  -15.7046  -17.1595  O     
35   C        -3.1109  -15.3042  -16.9357  C     
36   H         3.8664  -23.8183  -19.3950  H     
37   H         3.3181  -26.7319  -18.6628  H     
38   H         2.4973  -25.4108  -17.8392  H     
39   H         1.3039  -24.7093  -19.7420  H     
40   H         2.4245  -25.4676  -20.8738  H     
41   H         5.3326  -25.3628  -17.3570  H     
42   H         2.7189  -18.3575  -17.4098  H     
43   H         0.6256  -17.3730  -17.2479  H     
44   H        -1.1234  -20.9281  -16.3095  H     
45   H         0.2586  -22.9985  -16.0648  H     
46   H         2.4099  -24.0508  -16.2046  H     
47   H         4.1656  -20.3870  -17.3323  H     
48   H        -2.3794  -19.3901  -18.4997  H     
49   H        -3.3506  -18.1302  -17.7780  H     
50   H        -1.5926  -18.6307  -20.6321  H     
51   H        -0.5737  -17.0063  -22.0650  H     
52   H        -0.6796  -14.1751  -18.9239  H     
53   H        -3.4801  -14.6216  -17.7107  H     
54   H        -3.1459  -14.8019  -15.9692  H     
55   H        -3.7682  -16.1741  -16.8874  H     
@<TRIPOS>BOND
     1    1    2 1
     2    1    5 1
     3    1   10 1
     4    2    3 2
     5    2    4 1
     6    5    6 1
     7    6    7 1
     8    7    8 2
     9    7    9 1
    10   10   11 1
    11   11   12 2
    12   11   13 2
    13   11   14 1
    14   14   22 2
    15   14   23 1
    16   15   16 1
    17   15   20 1
    18   15   23 2
    19   16   17 2
    20   17   18 1
    21   18   19 2
    22   18   24 1
    23   19   20 1
    24   20   21 2
    25   21   22 1
    26   24   25 1
    27   25   26 1
    28   26   27 1
    29   26   33 2
    30   27   28 2
    31   28   29 1
    32   29   30 2
    33   29   31 1
    34   30   33 1
    35   31   32 3
    36   33   34 1
    37   34   35 1
    38    1   36 1
    39    5   37 1
    40    5   38 1
    41    6   39 1
    42    6   40 1
    43   10   41 1
    44   16   42 1
    45   17   43 1
    46   19   44 1
    47   21   45 1
    48   22   46 1
    49   23   47 1
    50   25   48 1
    51   25   49 1
    52   27   50 1
    53   28   51 1
    54   30   52 1
    55   35   53 1
    56   35   54 1
    57   35   55 1
@<TRIPOS>PROPERTY_DATA
  Total_Score	| 12.3273
  Crash		| -1.0308
  Polar		| 7.7487
  FragIndex	| 1
  FragRMSD	| 0.603

