@<TRIPOS>MOLECULE
BindingDB_26444
 49 50 0 0 0
SMALL
NO_CHARGES


@<TRIPOS>ATOM
1    C         4.2797  -24.8578  -18.9189  C     
2    C         5.3190  -25.4123  -19.8097  C     
3    O         5.9131  -26.5938  -19.5329  O     
4    O         5.6926  -24.7644  -20.9353  O     
5    C         3.0544  -25.8143  -18.7785  C     
6    C         1.9998  -25.6169  -19.9019  C     
7    C         1.0665  -26.7538  -19.9850  C     
8    O         1.0701  -27.5506  -21.0738  O     
9    O         0.2141  -27.0318  -18.9724  O     
10   N         4.8667  -24.6242  -17.6382  N     
11   S         4.9388  -23.1008  -16.9217  S     
12   O         6.0829  -22.2410  -17.6094  O     
13   O         5.4229  -23.3588  -15.4296  O     
14   C         3.3947  -22.2973  -16.8013  C     
15   C         2.0382  -20.2553  -16.9281  C     
16   C         1.9047  -18.8680  -17.0603  C     
17   C         0.6838  -18.2926  -17.0529  C     
18   C        -0.4571  -19.0481  -16.9451  C     
19   C        -0.3813  -20.3859  -16.7669  C     
20   C         0.8572  -21.0312  -16.7427  C     
21   C         0.9680  -22.4245  -16.5388  C     
22   C         2.2274  -23.0487  -16.5616  C     
23   C         3.2969  -20.9008  -16.9709  C     
24   C        -2.3322  -18.1796  -18.1319  C     
25   O        -1.6635  -18.4565  -16.8747  O     
26   C        -1.8521  -16.8649  -18.7999  C     
27   C        -2.1759  -15.5238  -18.0597  C     
28   C        -3.0167  -15.6276  -16.7636  C     
29   H         3.9340  -23.9056  -19.3402  H     
30   H         3.3937  -26.8563  -18.7669  H     
31   H         2.5580  -25.6304  -17.8189  H     
32   H         1.4210  -24.7121  -19.6996  H     
33   H         2.5070  -25.4909  -20.8640  H     
34   H         5.2339  -25.3812  -17.1544  H     
35   H         2.7132  -18.2970  -17.1247  H     
36   H         0.6074  -17.3030  -17.1205  H     
37   H        -1.2203  -20.9075  -16.6579  H     
38   H         0.1337  -22.9908  -16.3697  H     
39   H         2.2781  -24.0604  -16.4137  H     
40   H         4.1457  -20.3507  -17.1280  H     
41   H        -2.2162  -19.0109  -18.8488  H     
42   H        -3.4066  -18.0651  -17.9206  H     
43   H        -0.7686  -16.9328  -18.9443  H     
44   H        -2.2924  -16.8160  -19.7991  H     
45   H        -1.2378  -15.0180  -17.8161  H     
46   H        -2.7175  -14.8622  -18.7462  H     
47   H        -3.9283  -16.1996  -16.9503  H     
48   H        -3.2801  -14.6209  -16.4122  H     
49   H        -2.4466  -16.1184  -15.9713  H     
@<TRIPOS>BOND
     1    1    2 1
     2    1    5 1
     3    1   10 1
     4    2    3 2
     5    2    4 1
     6    5    6 1
     7    6    7 1
     8    7    8 2
     9    7    9 1
    10   10   11 1
    11   11   12 2
    12   11   13 2
    13   11   14 1
    14   14   22 2
    15   14   23 1
    16   15   16 1
    17   15   20 1
    18   15   23 2
    19   16   17 2
    20   17   18 1
    21   18   19 2
    22   18   25 1
    23   19   20 1
    24   20   21 2
    25   21   22 1
    26   24   25 1
    27   24   26 1
    28   26   27 1
    29   27   28 1
    30    1   29 1
    31    5   30 1
    32    5   31 1
    33    6   32 1
    34    6   33 1
    35   10   34 1
    36   16   35 1
    37   17   36 1
    38   19   37 1
    39   21   38 1
    40   22   39 1
    41   23   40 1
    42   24   41 1
    43   24   42 1
    44   26   43 1
    45   26   44 1
    46   27   45 1
    47   27   46 1
    48   28   47 1
    49   28   48 1
    50   28   49 1
@<TRIPOS>PROPERTY_DATA
  Total_Score	| 11.1099
  Crash		| -1.0930
  Polar		| 7.7615
  FragIndex	| 1
  FragRMSD	| 0.889

