@<TRIPOS>MOLECULE
BindingDB_26448
 42 43 0 0 0
SMALL
NO_CHARGES


@<TRIPOS>ATOM
1    C         4.2139  -24.8033  -18.8803  C     
2    C         5.1903  -25.3283  -19.8607  C     
3    O         5.6549  -26.5945  -19.7797  O     
4    O         5.8029  -24.5018  -20.7349  O     
5    C         2.9618  -25.7202  -18.7267  C     
6    C         1.9511  -25.5682  -19.8965  C     
7    C         1.0209  -26.7064  -20.0002  C     
8    O         1.0626  -27.5279  -21.0715  O     
9    O         0.1817  -27.0117  -18.9867  O     
10   N         4.8658  -24.6452  -17.6217  N     
11   S         5.0387  -23.1521  -16.8565  S     
12   O         6.1445  -22.2771  -17.5940  O     
13   O         5.6307  -23.4703  -15.4147  O     
14   C         3.5459  -22.2990  -16.5709  C     
15   C         2.1787  -20.2707  -16.7907  C     
16   C         1.9650  -18.9727  -17.2735  C     
17   C         0.8190  -18.3199  -16.9923  C     
18   C        -0.1761  -18.9062  -16.2516  C     
19   C         0.0078  -20.1316  -15.7086  C     
20   C         1.1651  -20.8685  -15.9849  C     
21   C         1.3519  -22.1791  -15.4941  C     
22   C         2.5316  -22.8872  -15.7859  C     
23   C         3.3588  -20.9947  -17.0763  C     
24   C        -2.5440  -18.7124  -16.4615  C     
25   O        -1.2838  -18.1924  -15.9877  O     
26   C        -3.1625  -17.7537  -17.3839  C     
27   O        -3.6344  -18.1625  -18.5802  O     
28   O        -3.4754  -16.5074  -16.9672  O     
29   H         3.8754  -23.8254  -19.2319  H     
30   H         3.2822  -26.7614  -18.6351  H     
31   H         2.4357  -25.4683  -17.7993  H     
32   H         1.3642  -24.6575  -19.7525  H     
33   H         2.4908  -25.4687  -20.8435  H     
34   H         5.2465  -25.4273  -17.1896  H     
35   H         2.6611  -18.5236  -17.8258  H     
36   H         0.7036  -17.3889  -17.3139  H     
37   H        -0.6918  -20.5088  -15.1081  H     
38   H         0.6270  -22.6256  -14.9244  H     
39   H         2.6499  -23.8298  -15.4027  H     
40   H         4.0912  -20.5638  -17.6468  H     
41   H        -2.4729  -19.6956  -16.9436  H     
42   H        -3.1991  -18.8154  -15.5951  H     
@<TRIPOS>BOND
     1    1    2 1
     2    1    5 1
     3    1   10 1
     4    2    3 2
     5    2    4 1
     6    5    6 1
     7    6    7 1
     8    7    8 2
     9    7    9 1
    10   10   11 1
    11   11   12 2
    12   11   13 2
    13   11   14 1
    14   14   22 2
    15   14   23 1
    16   15   16 1
    17   15   20 1
    18   15   23 2
    19   16   17 2
    20   17   18 1
    21   18   19 2
    22   18   25 1
    23   19   20 1
    24   20   21 2
    25   21   22 1
    26   24   25 1
    27   24   26 1
    28   26   27 2
    29   26   28 1
    30    1   29 1
    31    5   30 1
    32    5   31 1
    33    6   32 1
    34    6   33 1
    35   10   34 1
    36   16   35 1
    37   17   36 1
    38   19   37 1
    39   21   38 1
    40   22   39 1
    41   23   40 1
    42   24   41 1
    43   24   42 1
@<TRIPOS>PROPERTY_DATA
  Total_Score	| 11.3634
  Crash		| -0.6342
  Polar		| 10.8758
  FragIndex	| 1
  FragRMSD	| 0.872

