@<TRIPOS>MOLECULE
BindingDB_26446
 55 56 0 0 0
SMALL
NO_CHARGES


@<TRIPOS>ATOM
1    C         4.2329  -24.7734  -19.0594  C     
2    C         5.1497  -25.3062  -20.0955  C     
3    O         6.0653  -24.4947  -20.6681  O     
4    O         5.2973  -26.6320  -20.3101  O     
5    C         3.0026  -25.6940  -18.7893  C     
6    C         1.8538  -25.4652  -19.8178  C     
7    C         1.0191  -26.6632  -19.9813  C     
8    O         1.0885  -27.3773  -21.1284  O     
9    O         0.2477  -27.1332  -18.9702  O     
10   N         4.9859  -24.6067  -17.8571  N     
11   S         5.0311  -23.1642  -16.9789  S     
12   O         6.2183  -22.2328  -17.4741  O     
13   O         5.4201  -23.6039  -15.5050  O     
14   C         3.4926  -22.3614  -16.8179  C     
15   C         2.1338  -20.3228  -16.9451  C     
16   C         1.9936  -18.9417  -17.1403  C     
17   C         0.7720  -18.3771  -17.1256  C     
18   C        -0.3611  -19.1229  -16.9338  C     
19   C        -0.2802  -20.4517  -16.6947  C     
20   C         0.9640  -21.0941  -16.6914  C     
21   C         1.0777  -22.4826  -16.4825  C     
22   C         2.3362  -23.1053  -16.5282  C     
23   C         3.3921  -20.9657  -17.0078  C     
24   C        -2.1101  -17.7490  -16.1468  C     
25   O        -1.5578  -18.5748  -17.1847  O     
26   C        -3.1635  -16.7810  -16.7407  C     
27   C        -2.6013  -15.5351  -17.4840  C     
28   C        -1.6662  -15.8466  -18.6862  C     
29   C        -1.5861  -14.6760  -19.6984  C     
30   C        -1.0553  -15.1336  -21.0818  C     
31   H         3.8748  -23.7966  -19.4113  H     
32   H         3.3052  -26.7518  -18.8046  H     
33   H         2.5981  -25.4753  -17.7908  H     
34   H         1.2074  -24.6446  -19.4707  H     
35   H         2.2771  -25.1719  -20.7948  H     
36   H         5.4457  -25.3850  -17.4891  H     
37   H         2.7973  -18.3831  -17.2927  H     
38   H         0.6829  -17.4001  -17.2525  H     
39   H        -1.1136  -20.9813  -16.5938  H     
40   H         0.2562  -23.0621  -16.2950  H     
41   H         2.3961  -24.1129  -16.3805  H     
42   H         4.2342  -20.4091  -17.2052  H     
43   H        -2.5838  -18.3942  -15.3990  H     
44   H        -1.3377  -17.1660  -15.6398  H     
45   H        -3.8149  -17.3471  -17.4135  H     
46   H        -3.7793  -16.4277  -15.9064  H     
47   H        -3.4695  -14.9644  -17.8415  H     
48   H        -2.0740  -14.9046  -16.7632  H     
49   H        -0.6602  -16.0542  -18.3092  H     
50   H        -2.0391  -16.7348  -19.2058  H     
51   H        -2.5818  -14.2305  -19.8417  H     
52   H        -0.9132  -13.9017  -19.3050  H     
53   H        -0.0637  -15.5949  -20.9782  H     
54   H        -0.9727  -14.2717  -21.7516  H     
55   H        -1.7491  -15.8614  -21.5223  H     
@<TRIPOS>BOND
     1    1    2 1
     2    1    5 1
     3    1   10 1
     4    2    3 2
     5    2    4 1
     6    5    6 1
     7    6    7 1
     8    7    8 2
     9    7    9 1
    10   10   11 1
    11   11   12 2
    12   11   13 2
    13   11   14 1
    14   14   22 2
    15   14   23 1
    16   15   16 1
    17   15   20 1
    18   15   23 2
    19   16   17 2
    20   17   18 1
    21   18   19 2
    22   18   25 1
    23   19   20 1
    24   20   21 2
    25   21   22 1
    26   24   25 1
    27   24   26 1
    28   26   27 1
    29   27   28 1
    30   28   29 1
    31   29   30 1
    32    1   31 1
    33    5   32 1
    34    5   33 1
    35    6   34 1
    36    6   35 1
    37   10   36 1
    38   16   37 1
    39   17   38 1
    40   19   39 1
    41   21   40 1
    42   22   41 1
    43   23   42 1
    44   24   43 1
    45   24   44 1
    46   26   45 1
    47   26   46 1
    48   27   47 1
    49   27   48 1
    50   28   49 1
    51   28   50 1
    52   29   51 1
    53   29   52 1
    54   30   53 1
    55   30   54 1
    56   30   55 1
@<TRIPOS>PROPERTY_DATA
  Total_Score	| 11.2598
  Crash		| -1.2317
  Polar		| 7.6452
  FragIndex	| 1
  FragRMSD	| 1.138

