@<TRIPOS>MOLECULE
BindingDB_26453
 51 53 0 0 0
SMALL
NO_CHARGES


@<TRIPOS>ATOM
1    C         4.2454  -24.7795  -18.9626  C     
2    C         5.2526  -25.3337  -19.8979  C     
3    O         5.6363  -26.6271  -19.8197  O     
4    O         5.8653  -24.5470  -20.8102  O     
5    C         3.0285  -25.7449  -18.7979  C     
6    C         1.9491  -25.5312  -19.8936  C     
7    C         1.0523  -26.6943  -20.0200  C     
8    O         1.1496  -27.5091  -21.0928  O     
9    O         0.1728  -27.0061  -19.0417  O     
10   N         4.8889  -24.5535  -17.7062  N     
11   S         4.9530  -23.0490  -16.9390  S     
12   O         6.0910  -22.1163  -17.5469  O     
13   O         5.3978  -23.3465  -15.4418  O     
14   C         3.4008  -22.2669  -16.7973  C     
15   C         1.9677  -20.2784  -16.9579  C     
16   C         1.7822  -18.9104  -17.1700  C     
17   C         0.5432  -18.3863  -17.1434  C     
18   C        -0.5881  -19.1658  -16.9461  C     
19   C        -0.4390  -20.4874  -16.6911  C     
20   C         0.8277  -21.0813  -16.6856  C     
21   C         0.9902  -22.4632  -16.4373  C     
22   C         2.2672  -23.0425  -16.4785  C     
23   C         3.2470  -20.8760  -17.0223  C     
24   O        -1.8860  -18.7575  -17.0478  O     
25   C        -2.3059  -17.3817  -17.1621  C     
26   C        -1.7782  -16.6177  -18.3246  C     
27   C        -1.6676  -15.2122  -18.2241  C     
28   C        -1.1340  -14.4517  -19.2817  C     
29   C        -0.7039  -15.0866  -20.4679  C     
30   C        -0.8514  -16.4847  -20.5962  C     
31   C        -1.3967  -17.2327  -19.5396  C     
32   C        -0.1699  -14.3876  -21.4316  C     
33   N         0.3117  -13.7767  -22.2822  N     
34   H         3.8917  -23.8206  -19.3637  H     
35   H         3.3635  -26.7906  -18.8109  H     
36   H         2.5551  -25.5756  -17.8282  H     
37   H         1.3401  -24.6558  -19.6410  H     
38   H         2.4402  -25.3411  -20.8567  H     
39   H         5.2781  -25.3107  -17.2438  H     
40   H         2.5571  -18.3131  -17.3044  H     
41   H         0.4467  -17.4050  -17.2617  H     
42   H        -1.2463  -21.0535  -16.5440  H     
43   H         0.1868  -23.0627  -16.2339  H     
44   H         2.3625  -24.0409  -16.3014  H     
45   H         4.0709  -20.3093  -17.2533  H     
46   H        -3.3923  -17.3873  -17.2355  H     
47   H        -2.0499  -16.8740  -16.2275  H     
48   H        -1.9582  -14.7345  -17.3687  H     
49   H        -1.0572  -13.4376  -19.1733  H     
50   H        -0.5660  -16.9745  -21.4494  H     
51   H        -1.4944  -18.2400  -19.6719  H     
@<TRIPOS>BOND
     1    1    2 1
     2    1    5 1
     3    1   10 1
     4    2    3 2
     5    2    4 1
     6    5    6 1
     7    6    7 1
     8    7    8 2
     9    7    9 1
    10   10   11 1
    11   11   12 2
    12   11   13 2
    13   11   14 1
    14   14   22 2
    15   14   23 1
    16   15   16 1
    17   15   20 1
    18   15   23 2
    19   16   17 2
    20   17   18 1
    21   18   19 2
    22   18   24 1
    23   19   20 1
    24   20   21 2
    25   21   22 1
    26   24   25 1
    27   25   26 1
    28   26   27 1
    29   26   31 2
    30   27   28 2
    31   28   29 1
    32   29   30 2
    33   29   32 1
    34   30   31 1
    35   32   33 3
    36    1   34 1
    37    5   35 1
    38    5   36 1
    39    6   37 1
    40    6   38 1
    41   10   39 1
    42   16   40 1
    43   17   41 1
    44   19   42 1
    45   21   43 1
    46   22   44 1
    47   23   45 1
    48   25   46 1
    49   25   47 1
    50   27   48 1
    51   28   49 1
    52   30   50 1
    53   31   51 1
@<TRIPOS>PROPERTY_DATA
  Total_Score	| 11.2675
  Crash		| -0.6350
  Polar		| 7.8014
  FragIndex	| 1
  FragRMSD	| 0.709

