@<TRIPOS>MOLECULE
BindingDB_26455
 51 53 0 0 0
SMALL
NO_CHARGES


@<TRIPOS>ATOM
1    C         4.1990  -24.7984  -19.0045  C     
2    C         5.2074  -25.3228  -19.9571  C     
3    O         5.9543  -24.4680  -20.6926  O     
4    O         5.6500  -26.5983  -19.8455  O     
5    C         2.9699  -25.7456  -18.8338  C     
6    C         1.8620  -25.5207  -19.9011  C     
7    C         0.9028  -26.6429  -19.9256  C     
8    O         0.9182  -27.5197  -20.9541  O     
9    O         0.1292  -26.9211  -18.8468  O     
10   N         4.8489  -24.6067  -17.7474  N     
11   S         4.9391  -23.1073  -16.9720  S     
12   O         6.0814  -22.2284  -17.6428  O     
13   O         5.4247  -23.4218  -15.4909  O     
14   C         3.3998  -22.2929  -16.8358  C     
15   C         2.0348  -20.2572  -17.0036  C     
16   C         1.9089  -18.8710  -17.1640  C     
17   C         0.6954  -18.2881  -17.1002  C     
18   C        -0.4494  -19.0274  -16.9314  C     
19   C        -0.3756  -20.3630  -16.7295  C     
20   C         0.8626  -21.0206  -16.7464  C     
21   C         0.9802  -22.4065  -16.4832  C     
22   C         2.2400  -23.0314  -16.5058  C     
23   C         3.2936  -20.9056  -17.0667  C     
24   O        -1.6328  -18.3983  -16.8023  O     
25   C        -2.4121  -18.2253  -18.0106  C     
26   C        -1.8333  -17.2143  -18.9404  C     
27   C        -1.4060  -17.5834  -20.2366  C     
28   C        -0.7788  -16.6526  -21.0853  C     
29   C        -0.5728  -15.3259  -20.6556  C     
30   C        -1.0376  -14.9307  -19.3797  C     
31   C         0.0591  -14.4752  -21.4132  C     
32   N         0.6258  -13.7304  -22.0840  N     
33   C        -1.6762  -15.8632  -18.5378  C     
34   F        -2.0982  -15.4546  -17.3716  F     
35   H         3.8522  -23.8252  -19.3843  H     
36   H         3.3031  -26.7943  -18.8716  H     
37   H         2.5182  -25.5657  -17.8435  H     
38   H         1.3101  -24.6005  -19.6781  H     
39   H         2.3168  -25.4129  -20.8959  H     
40   H         5.2455  -25.3775  -17.3065  H     
41   H         2.7182  -18.3069  -17.2781  H     
42   H         0.6314  -17.3044  -17.1667  H     
43   H        -1.2084  -20.8817  -16.5656  H     
44   H         0.1576  -22.9679  -16.2571  H     
45   H         2.3080  -24.0345  -16.2988  H     
46   H         4.1400  -20.3580  -17.2791  H     
47   H        -2.5772  -19.1872  -18.4952  H     
48   H        -3.3961  -17.8626  -17.6963  H     
49   H        -1.5273  -18.5432  -20.5725  H     
50   H        -0.4605  -16.9549  -22.0130  H     
51   H        -0.9029  -13.9702  -19.0488  H     
@<TRIPOS>BOND
     1    1    2 1
     2    1    5 1
     3    1   10 1
     4    2    3 2
     5    2    4 1
     6    5    6 1
     7    6    7 1
     8    7    8 2
     9    7    9 1
    10   10   11 1
    11   11   12 2
    12   11   13 2
    13   11   14 1
    14   14   22 2
    15   14   23 1
    16   15   16 1
    17   15   20 1
    18   15   23 2
    19   16   17 2
    20   17   18 1
    21   18   19 2
    22   18   24 1
    23   19   20 1
    24   20   21 2
    25   21   22 1
    26   24   25 1
    27   25   26 1
    28   26   27 1
    29   26   33 2
    30   27   28 2
    31   28   29 1
    32   29   30 2
    33   29   31 1
    34   30   33 1
    35   31   32 3
    36   33   34 1
    37    1   35 1
    38    5   36 1
    39    5   37 1
    40    6   38 1
    41    6   39 1
    42   10   40 1
    43   16   41 1
    44   17   42 1
    45   19   43 1
    46   21   44 1
    47   22   45 1
    48   23   46 1
    49   25   47 1
    50   25   48 1
    51   27   49 1
    52   28   50 1
    53   30   51 1
@<TRIPOS>PROPERTY_DATA
  Total_Score	| 11.2021
  Crash		| -0.5533
  Polar		| 7.6235
  FragIndex	| 1
  FragRMSD	| 0.868

