@<TRIPOS>MOLECULE
BindingDB_26451
 50 52 0 0 0
SMALL
NO_CHARGES


@<TRIPOS>ATOM
1    C         4.2234  -24.7970  -18.9816  C     
2    C         5.2309  -25.3396  -19.9178  C     
3    O         5.6219  -26.6360  -19.8486  O     
4    O         5.9238  -24.5215  -20.7509  O     
5    C         2.9991  -25.7510  -18.8139  C     
6    C         1.9336  -25.5780  -19.9346  C     
7    C         1.0112  -26.7253  -19.9964  C     
8    O         0.1754  -27.0046  -18.9656  O     
9    O         1.0659  -27.5875  -21.0410  O     
10   N         4.8628  -24.6048  -17.7157  N     
11   S         4.9787  -23.1035  -16.9629  S     
12   O         6.1162  -22.2192  -17.6356  O     
13   O         5.4727  -23.4177  -15.4848  O     
14   C         3.4357  -22.2997  -16.8142  C     
15   C         2.0584  -20.2738  -16.9582  C     
16   C         1.9223  -18.8923  -17.1150  C     
17   C         0.7088  -18.3154  -17.0182  C     
18   C        -0.4362  -19.0607  -16.8537  C     
19   C        -0.3474  -20.3958  -16.6555  C     
20   C         0.8957  -21.0470  -16.6875  C     
21   C         1.0230  -22.4317  -16.4324  C     
22   C         2.2878  -23.0492  -16.4817  C     
23   C         3.3179  -20.9113  -17.0377  C     
24   O        -1.6197  -18.4345  -16.6947  O     
25   C        -2.4202  -18.2426  -17.8841  C     
26   C        -1.8803  -17.2045  -18.8012  C     
27   C        -1.6575  -15.8875  -18.3310  C     
28   C        -1.0766  -14.9136  -19.1652  C     
29   C        -0.7417  -15.2339  -20.4955  C     
30   C        -1.0081  -16.5214  -20.9908  C     
31   C        -1.5708  -17.5008  -20.1494  C     
32   H         3.8743  -23.8275  -19.3695  H     
33   H         3.3409  -26.7906  -18.7943  H     
34   H         2.5033  -25.5394  -17.8571  H     
35   H         1.3446  -24.6744  -19.7399  H     
36   H         2.4319  -25.4599  -20.9085  H     
37   H         5.2734  -25.3713  -17.2812  H     
38   H         2.7237  -18.3244  -17.2389  H     
39   H         0.6383  -17.3275  -17.0593  H     
40   H        -1.1793  -20.9226  -16.4968  H     
41   H         0.1981  -22.9914  -16.2026  H     
42   H         2.3601  -24.0538  -16.2979  H     
43   H         4.1516  -20.3621  -17.2626  H     
44   H        -2.5730  -19.1999  -18.4031  H     
45   H        -3.4021  -17.9086  -17.5528  H     
46   H        -1.9055  -15.6339  -17.3718  H     
47   H        -0.8956  -13.9734  -18.8073  H     
48   H        -0.3087  -14.5312  -21.0977  H     
49   H        -0.7867  -16.7498  -21.9643  H     
50   H        -1.7465  -18.4326  -20.5285  H     
@<TRIPOS>BOND
     1    1    2 1
     2    1    5 1
     3    1   10 1
     4    2    3 2
     5    2    4 1
     6    5    6 1
     7    6    7 1
     8    7    8 2
     9    7    9 1
    10   10   11 1
    11   11   12 2
    12   11   13 2
    13   11   14 1
    14   14   22 2
    15   14   23 1
    16   15   16 1
    17   15   20 1
    18   15   23 2
    19   16   17 2
    20   17   18 1
    21   18   19 2
    22   18   24 1
    23   19   20 1
    24   20   21 2
    25   21   22 1
    26   24   25 1
    27   25   26 1
    28   26   27 1
    29   26   31 2
    30   27   28 2
    31   28   29 1
    32   29   30 2
    33   30   31 1
    34    1   32 1
    35    5   33 1
    36    5   34 1
    37    6   35 1
    38    6   36 1
    39   10   37 1
    40   16   38 1
    41   17   39 1
    42   19   40 1
    43   21   41 1
    44   22   42 1
    45   23   43 1
    46   25   44 1
    47   25   45 1
    48   27   46 1
    49   28   47 1
    50   29   48 1
    51   30   49 1
    52   31   50 1
@<TRIPOS>PROPERTY_DATA
  Total_Score	| 10.7842
  Crash		| -0.5132
  Polar		| 7.7566
  FragIndex	| 1
  FragRMSD	| 0.177

