@<TRIPOS>MOLECULE
BindingDB_26464
 49 50 0 0 0
SMALL
NO_CHARGES


@<TRIPOS>ATOM
1    C         4.2595  -24.7151  -18.9335  C     
2    C         5.2315  -25.2932  -19.8895  C     
3    O         5.5564  -26.6081  -19.8615  O     
4    O         5.8738  -24.5012  -20.7851  O     
5    C         3.0157  -25.6402  -18.7417  C     
6    C         1.9865  -25.5253  -19.9022  C     
7    C         1.1001  -26.6979  -20.0043  C     
8    O         1.1941  -27.5243  -21.0671  O     
9    O         0.1764  -26.9690  -19.0535  O     
10   N         4.9270  -24.5286  -17.6863  N     
11   C         3.4928  -22.2751  -16.6886  C     
12   C         1.8054  -20.5967  -17.3067  C     
13   C         1.3866  -19.4596  -18.0133  C     
14   C         0.0942  -19.0539  -17.9633  C     
15   C        -0.8238  -19.7548  -17.2147  C     
16   C        -0.4675  -20.8262  -16.4832  C     
17   C         0.8521  -21.2736  -16.4915  C     
18   C         1.2387  -22.4144  -15.7573  C     
19   C         2.5500  -22.9122  -15.8563  C     
20   C         3.1260  -21.1005  -17.3928  C     
21   S         5.0439  -23.0314  -16.9086  S     
22   O         6.1342  -22.0993  -17.5991  O     
23   O         5.6060  -23.3555  -15.4589  O     
24   O        -0.3266  -17.9839  -18.6630  O     
25   C        -0.7296  -16.8495  -17.8647  C     
26   C        -1.4032  -15.7352  -18.7074  C     
27   C        -0.4611  -14.6248  -19.2497  C     
28   C        -0.1294  -14.7362  -20.7585  C     
29   H         3.9160  -23.7518  -19.3245  H     
30   H         3.3480  -26.6821  -18.6409  H     
31   H         2.5035  -25.3705  -17.8140  H     
32   H         1.3653  -24.6362  -19.7417  H     
33   H         2.5148  -25.3922  -20.8576  H     
34   H         5.2701  -25.3190  -17.2317  H     
35   H         2.0223  -18.9654  -18.5938  H     
36   H        -1.7779  -19.4776  -17.2236  H     
37   H        -1.1553  -21.3025  -15.9495  H     
38   H         0.5634  -22.9224  -15.1816  H     
39   H         2.8000  -23.7611  -15.3377  H     
40   H         3.8087  -20.6542  -18.0127  H     
41   H        -1.4622  -17.1675  -17.1143  H     
42   H         0.1534  -16.4549  -17.3525  H     
43   H        -1.9595  -16.1872  -19.5291  H     
44   H        -2.1355  -15.2448  -18.0581  H     
45   H        -0.9519  -13.6548  -19.0895  H     
46   H         0.4700  -14.6125  -18.6666  H     
47   H         0.3291  -15.7015  -20.9827  H     
48   H         0.5690  -13.9371  -21.0323  H     
49   H        -1.0430  -14.6231  -21.3495  H     
@<TRIPOS>BOND
     1    1    2 1
     2    1    5 1
     3    1   10 1
     4    2    3 2
     5    2    4 1
     6    5    6 1
     7    6    7 1
     8    7    8 2
     9    7    9 1
    10   10   21 1
    11   11   19 2
    12   11   20 1
    13   11   21 1
    14   12   13 1
    15   12   17 1
    16   12   20 2
    17   13   14 2
    18   14   15 1
    19   14   24 1
    20   15   16 2
    21   16   17 1
    22   17   18 2
    23   18   19 1
    24   21   22 2
    25   21   23 2
    26   24   25 1
    27   25   26 1
    28   26   27 1
    29   27   28 1
    30    1   29 1
    31    5   30 1
    32    5   31 1
    33    6   32 1
    34    6   33 1
    35   10   34 1
    36   13   35 1
    37   15   36 1
    38   16   37 1
    39   18   38 1
    40   19   39 1
    41   20   40 1
    42   25   41 1
    43   25   42 1
    44   26   43 1
    45   26   44 1
    46   27   45 1
    47   27   46 1
    48   28   47 1
    49   28   48 1
    50   28   49 1
@<TRIPOS>PROPERTY_DATA
  Total_Score	| 9.6321
  Crash		| -1.2326
  Polar		| 7.6783
  FragIndex	| 1
  FragRMSD	| 0.877

