@<TRIPOS>MOLECULE
BindingDB_26456
 51 53 0 0 0
SMALL
NO_CHARGES


@<TRIPOS>ATOM
1    C         4.2345  -24.7533  -18.9290  C     
2    C         5.1858  -25.3252  -19.9104  C     
3    O         5.5518  -26.6251  -19.8717  O     
4    O         5.8430  -24.5301  -20.7819  O     
5    C         2.9579  -25.6274  -18.7277  C     
6    C         1.9243  -25.4876  -19.8813  C     
7    C         1.0162  -26.6437  -19.9830  C     
8    O         0.1768  -26.9615  -18.9718  O     
9    O         1.0690  -27.4598  -21.0595  O     
10   N         4.9154  -24.5930  -17.6837  N     
11   S         5.0265  -23.1084  -16.8855  S     
12   O         6.0570  -22.1603  -17.6409  O     
13   O         5.6503  -23.4223  -15.4567  O     
14   C         3.4682  -22.3777  -16.6110  C     
15   C         1.8185  -20.6301  -17.0906  C     
16   C         1.3964  -19.4726  -17.7598  C     
17   C         0.1605  -18.9606  -17.5547  C     
18   C        -0.6740  -19.5227  -16.6195  C     
19   C        -0.3353  -20.6540  -15.9695  C     
20   C         0.9161  -21.2455  -16.1779  C     
21   C         1.2977  -22.4206  -15.4946  C     
22   C         2.5674  -22.9782  -15.7075  C     
23   C         3.0913  -21.2064  -17.3025  C     
24   O        -0.1862  -17.8517  -18.2271  O     
25   C        -1.3521  -17.9220  -19.0764  C     
26   C        -1.4935  -16.6404  -19.8059  C     
27   C        -1.8993  -15.3858  -21.8688  C     
28   C        -1.7986  -14.1693  -21.1587  C     
29   C        -1.5675  -14.1865  -19.7682  C     
30   C        -1.4386  -15.4158  -19.0961  C     
31   C        -1.7379  -16.6097  -21.1989  C     
32   C        -1.8999  -13.0321  -21.7733  C     
33   N        -1.9895  -12.0177  -22.3105  N     
34   H         3.9233  -23.7706  -19.2978  H     
35   H         3.2602  -26.6717  -18.6017  H     
36   H         2.4540  -25.3324  -17.8009  H     
37   H         1.3252  -24.5898  -19.7135  H     
38   H         2.4398  -25.3655  -20.8369  H     
39   H         5.2227  -25.3871  -17.2163  H     
40   H         2.0044  -19.0353  -18.4166  H     
41   H        -1.5505  -19.0968  -16.4267  H     
42   H        -0.9761  -21.0741  -15.3287  H     
43   H         0.6574  -22.8676  -14.8335  H     
44   H         2.8268  -23.8234  -15.1932  H     
45   H         3.7416  -20.7744  -17.9623  H     
46   H        -1.2806  -18.7618  -19.7766  H     
47   H        -2.2541  -18.0454  -18.4790  H     
48   H        -2.0788  -15.3928  -22.8756  H     
49   H        -1.4689  -13.3169  -19.2351  H     
50   H        -1.2961  -15.4092  -18.0774  H     
51   H        -1.8251  -17.4796  -21.7236  H     
@<TRIPOS>BOND
     1    1    2 1
     2    1    5 1
     3    1   10 1
     4    2    3 2
     5    2    4 1
     6    5    6 1
     7    6    7 1
     8    7    8 2
     9    7    9 1
    10   10   11 1
    11   11   12 2
    12   11   13 2
    13   11   14 1
    14   14   22 2
    15   14   23 1
    16   15   16 1
    17   15   20 1
    18   15   23 2
    19   16   17 2
    20   17   18 1
    21   17   24 1
    22   18   19 2
    23   19   20 1
    24   20   21 2
    25   21   22 1
    26   24   25 1
    27   25   26 1
    28   26   30 2
    29   26   31 1
    30   27   28 1
    31   27   31 2
    32   28   29 2
    33   28   32 1
    34   29   30 1
    35   32   33 3
    36    1   34 1
    37    5   35 1
    38    5   36 1
    39    6   37 1
    40    6   38 1
    41   10   39 1
    42   16   40 1
    43   18   41 1
    44   19   42 1
    45   21   43 1
    46   22   44 1
    47   23   45 1
    48   25   46 1
    49   25   47 1
    50   27   48 1
    51   29   49 1
    52   30   50 1
    53   31   51 1
@<TRIPOS>PROPERTY_DATA
  Total_Score	| 10.7357
  Crash		| -0.6644
  Polar		| 8.6472
  FragIndex	| 1
  FragRMSD	| 0.502

