@<TRIPOS>MOLECULE
BindingDB_26445
 52 53 0 0 0
SMALL
NO_CHARGES


@<TRIPOS>ATOM
1    C         4.2966  -24.7687  -18.9181  C     
2    C         5.3594  -25.2281  -19.8376  C     
3    O         5.1727  -25.1808  -21.1779  O     
4    O         6.3602  -26.0178  -19.4011  O     
5    C         3.1266  -25.7990  -18.8189  C     
6    C         2.0184  -25.5757  -19.8892  C     
7    C         1.0924  -26.7174  -19.9951  C     
8    O         1.1136  -27.5072  -21.0883  O     
9    O         0.1774  -26.9640  -19.0267  O     
10   N         4.8897  -24.5562  -17.6350  N     
11   S         4.9942  -23.0385  -16.9050  S     
12   O         6.1448  -22.1689  -17.5754  O     
13   O         5.4676  -23.3219  -15.4165  O     
14   C         3.4523  -22.2453  -16.7828  C     
15   C         2.0595  -20.2445  -16.9620  C     
16   C         1.9047  -18.8703  -17.1216  C     
17   C         0.6708  -18.3180  -17.0834  C     
18   C        -0.4793  -19.0840  -16.9817  C     
19   C        -0.3566  -20.4104  -16.7745  C     
20   C         0.8947  -21.0335  -16.7353  C     
21   C         1.0344  -22.4129  -16.4828  C     
22   C         2.3045  -23.0088  -16.4981  C     
23   C         3.3276  -20.8571  -17.0062  C     
24   C        -2.1351  -17.2637  -17.2630  C     
25   O        -1.7539  -18.6468  -17.1455  O     
26   C        -1.6959  -16.6192  -18.6089  C     
27   C        -1.7355  -15.0628  -18.5678  C     
28   C        -0.5165  -14.3679  -19.2350  C     
29   C        -0.2687  -14.7762  -20.7084  C     
30   H         3.8928  -23.8250  -19.2998  H     
31   H         3.5218  -26.8215  -18.9053  H     
32   H         2.6586  -25.7266  -17.8327  H     
33   H         1.4375  -24.6862  -19.6284  H     
34   H         2.4880  -25.4009  -20.8662  H     
35   H         5.2654  -25.3213  -17.1689  H     
36   H         2.6930  -18.2721  -17.2174  H     
37   H         0.6116  -17.3171  -17.1149  H     
38   H        -1.1738  -20.9678  -16.6806  H     
39   H         0.2157  -22.9937  -16.2856  H     
40   H         2.3846  -24.0048  -16.3024  H     
41   H         4.1621  -20.2951  -17.1888  H     
42   H        -3.2281  -17.2228  -17.1977  H     
43   H        -1.7468  -16.7136  -16.3997  H     
44   H        -0.6807  -16.9530  -18.8375  H     
45   H        -2.3528  -16.9801  -19.4029  H     
46   H        -2.6559  -14.7138  -19.0466  H     
47   H        -1.7671  -14.7172  -17.5254  H     
48   H        -0.6786  -13.2898  -19.1989  H     
49   H         0.3916  -14.5817  -18.6514  H     
50   H        -0.0330  -15.8405  -20.7794  H     
51   H         0.5685  -14.2066  -21.1114  H     
52   H        -1.1607  -14.5712  -21.3136  H     
@<TRIPOS>BOND
     1    1    2 1
     2    1    5 1
     3    1   10 1
     4    2    3 2
     5    2    4 1
     6    5    6 1
     7    6    7 1
     8    7    8 2
     9    7    9 1
    10   10   11 1
    11   11   12 2
    12   11   13 2
    13   11   14 1
    14   14   22 2
    15   14   23 1
    16   15   16 1
    17   15   20 1
    18   15   23 2
    19   16   17 2
    20   17   18 1
    21   18   19 2
    22   18   25 1
    23   19   20 1
    24   20   21 2
    25   21   22 1
    26   24   25 1
    27   24   26 1
    28   26   27 1
    29   27   28 1
    30   28   29 1
    31    1   30 1
    32    5   31 1
    33    5   32 1
    34    6   33 1
    35    6   34 1
    36   10   35 1
    37   16   36 1
    38   17   37 1
    39   19   38 1
    40   21   39 1
    41   22   40 1
    42   23   41 1
    43   24   42 1
    44   24   43 1
    45   26   44 1
    46   26   45 1
    47   27   46 1
    48   27   47 1
    49   28   48 1
    50   28   49 1
    51   29   50 1
    52   29   51 1
    53   29   52 1
@<TRIPOS>PROPERTY_DATA
  Total_Score	| 11.4453
  Crash		| -0.9847
  Polar		| 7.7878
  FragIndex	| 1
  FragRMSD	| 0.929

