@<TRIPOS>MOLECULE
BindingDB_26442
 40 41 0 0 0
SMALL
NO_CHARGES


@<TRIPOS>ATOM
1    C         4.2045  -24.7466  -19.0417  C     
2    C         5.1700  -25.3035  -20.0262  C     
3    O         6.0080  -24.4760  -20.6897  O     
4    O         5.4658  -26.6278  -20.0210  O     
5    C         2.9548  -25.6579  -18.8456  C     
6    C         1.9420  -25.5569  -20.0207  C     
7    C         1.0197  -26.7018  -20.0511  C     
8    O         1.0065  -27.5274  -21.1130  O     
9    O         0.1882  -26.9602  -19.0138  O     
10   N         4.8706  -24.6036  -17.7893  N     
11   S         5.0478  -23.1198  -17.0088  S     
12   O         6.2191  -22.2874  -17.6963  O     
13   O         5.5485  -23.5162  -15.5495  O     
14   C         3.5331  -22.2935  -16.8017  C     
15   C         2.1634  -20.2614  -16.9166  C     
16   C         2.0099  -18.8817  -17.1352  C     
17   C         0.7891  -18.3032  -17.0102  C     
18   C        -0.3391  -19.0424  -16.7372  C     
19   C        -0.2183  -20.3543  -16.4421  C     
20   C         1.0209  -21.0114  -16.5145  C     
21   C         1.1724  -22.3703  -16.1930  C     
22   C         2.4122  -23.0049  -16.3414  C     
23   C         3.4155  -20.9101  -17.0654  C     
24   O        -1.5717  -18.5204  -16.5860  O     
25   C        -2.0794  -17.6691  -17.6468  C     
26   H         3.8649  -23.7736  -19.4084  H     
27   H         3.2823  -26.6985  -18.7375  H     
28   H         2.4368  -25.3692  -17.9252  H     
29   H         1.3503  -24.6430  -19.9092  H     
30   H         2.4753  -25.4991  -20.9703  H     
31   H         5.2325  -25.4011  -17.3773  H     
32   H         2.7969  -18.3107  -17.3409  H     
33   H         0.6929  -17.3139  -17.1146  H     
34   H        -1.0258  -20.8791  -16.2133  H     
35   H         0.3805  -22.9023  -15.8431  H     
36   H         2.4930  -23.9975  -16.1308  H     
37   H         4.2389  -20.3803  -17.3780  H     
38   H        -1.4755  -16.7521  -17.7259  H     
39   H        -3.0851  -17.4092  -17.3933  H     
40   H        -2.0825  -18.1836  -18.6220  H     
@<TRIPOS>BOND
     1    1    2 1
     2    1    5 1
     3    1   10 1
     4    2    3 2
     5    2    4 1
     6    5    6 1
     7    6    7 1
     8    7    8 2
     9    7    9 1
    10   10   11 1
    11   11   12 2
    12   11   13 2
    13   11   14 1
    14   14   22 2
    15   14   23 1
    16   15   16 1
    17   15   20 1
    18   15   23 2
    19   16   17 2
    20   17   18 1
    21   18   19 2
    22   18   24 1
    23   19   20 1
    24   20   21 2
    25   21   22 1
    26   24   25 1
    27    1   26 1
    28    5   27 1
    29    5   28 1
    30    6   29 1
    31    6   30 1
    32   10   31 1
    33   16   32 1
    34   17   33 1
    35   19   34 1
    36   21   35 1
    37   22   36 1
    38   23   37 1
    39   25   38 1
    40   25   39 1
    41   25   40 1
@<TRIPOS>PROPERTY_DATA
  Total_Score	| 8.7314
  Crash		| -0.6019
  Polar		| 7.6383
  FragIndex	| 1
  FragRMSD	| 0.954

