@<TRIPOS>MOLECULE
BindingDB_26443
 46 47 0 0 0
SMALL
NO_CHARGES


@<TRIPOS>ATOM
1    C         4.2096  -24.7675  -18.9493  C     
2    C         5.1561  -25.3008  -19.9579  C     
3    O         5.5943  -26.5794  -19.8782  O     
4    O         5.8229  -24.4588  -20.7835  O     
5    C         2.9779  -25.7059  -18.7349  C     
6    C         1.8558  -25.4681  -19.7810  C     
7    C         0.9667  -26.6385  -19.9181  C     
8    O         0.1573  -27.0158  -18.9016  O     
9    O         1.0031  -27.3812  -21.0464  O     
10   N         4.9180  -24.6080  -17.7218  N     
11   S         5.0344  -23.1353  -16.9066  S     
12   O         6.1773  -22.2307  -17.5509  O     
13   O         5.5304  -23.4974  -15.4424  O     
14   C         3.4977  -22.3169  -16.7481  C     
15   C         2.1230  -20.2902  -16.9178  C     
16   C         1.9851  -18.9073  -17.0695  C     
17   C         0.7619  -18.3375  -17.0350  C     
18   C        -0.3811  -19.0926  -16.9129  C     
19   C        -0.2886  -20.4209  -16.6821  C     
20   C         0.9561  -21.0635  -16.6668  C     
21   C         1.0827  -22.4442  -16.3874  C     
22   C         2.3451  -23.0597  -16.4119  C     
23   C         3.3871  -20.9278  -16.9769  C     
24   C        -2.1984  -17.9714  -18.0063  C     
25   O        -1.5934  -18.5147  -16.8082  O     
26   C        -1.9146  -16.4519  -18.1179  C     
27   C        -2.7188  -15.6202  -17.0935  C     
28   H         3.8540  -23.7909  -19.3007  H     
29   H         3.3021  -26.7540  -18.7647  H     
30   H         2.5501  -25.5239  -17.7384  H     
31   H         1.2477  -24.6099  -19.4735  H     
32   H         2.3031  -25.2402  -20.7561  H     
33   H         5.3779  -25.3768  -17.3508  H     
34   H         2.7926  -18.3337  -17.1472  H     
35   H         0.6906  -17.3512  -17.0706  H     
36   H        -1.1158  -20.9520  -16.5350  H     
37   H         0.2571  -23.0031  -16.1594  H     
38   H         2.4169  -24.0586  -16.2028  H     
39   H         4.2241  -20.3788  -17.1933  H     
40   H        -1.8655  -18.4796  -18.9151  H     
41   H        -3.2814  -18.1153  -17.9191  H     
42   H        -0.8505  -16.2683  -17.9682  H     
43   H        -2.1667  -16.1159  -19.1250  H     
44   H        -3.7869  -15.8275  -17.1946  H     
45   H        -2.5563  -14.5519  -17.2633  H     
46   H        -2.4057  -15.8630  -16.0762  H     
@<TRIPOS>BOND
     1    1    2 1
     2    1    5 1
     3    1   10 1
     4    2    3 2
     5    2    4 1
     6    5    6 1
     7    6    7 1
     8    7    8 2
     9    7    9 1
    10   10   11 1
    11   11   12 2
    12   11   13 2
    13   11   14 1
    14   14   22 2
    15   14   23 1
    16   15   16 1
    17   15   20 1
    18   15   23 2
    19   16   17 2
    20   17   18 1
    21   18   19 2
    22   18   25 1
    23   19   20 1
    24   20   21 2
    25   21   22 1
    26   24   25 1
    27   24   26 1
    28   26   27 1
    29    1   28 1
    30    5   29 1
    31    5   30 1
    32    6   31 1
    33    6   32 1
    34   10   33 1
    35   16   34 1
    36   17   35 1
    37   19   36 1
    38   21   37 1
    39   22   38 1
    40   23   39 1
    41   24   40 1
    42   24   41 1
    43   26   42 1
    44   26   43 1
    45   27   44 1
    46   27   45 1
    47   27   46 1
@<TRIPOS>PROPERTY_DATA
  Total_Score	| 10.2670
  Crash		| -0.7992
  Polar		| 7.6730
  FragIndex	| 1
  FragRMSD	| 0.395

