@<TRIPOS>MOLECULE
BindingDB_26449
 48 49 0 0 0
SMALL
NO_CHARGES


@<TRIPOS>ATOM
1    C         4.2141  -24.8085  -18.9218  C     
2    C         5.2254  -25.3495  -19.8481  C     
3    O         5.5905  -26.6541  -19.8013  O     
4    O         5.9100  -24.5324  -20.6804  O     
5    C         2.9811  -25.7521  -18.7778  C     
6    C         1.8627  -25.4626  -19.8241  C     
7    C         0.9610  -26.6109  -19.9958  C     
8    O         0.0712  -26.9549  -19.0303  O     
9    O         1.0609  -27.3846  -21.1030  O     
10   N         4.8263  -24.6164  -17.6462  N     
11   S         4.9419  -23.0983  -16.9188  S     
12   O         6.0985  -22.2525  -17.6101  O     
13   O         5.3955  -23.3759  -15.4188  O     
14   C         3.4145  -22.2701  -16.8201  C     
15   C         2.1032  -20.2077  -16.9682  C     
16   C         2.0034  -18.8219  -17.1133  C     
17   C         0.7939  -18.2277  -17.1231  C     
18   C        -0.3623  -18.9523  -17.0099  C     
19   C        -0.3188  -20.2890  -16.8095  C     
20   C         0.9057  -20.9593  -16.7758  C     
21   C         0.9865  -22.3576  -16.5843  C     
22   C         2.2311  -23.0064  -16.6072  C     
23   C         3.3479  -20.8719  -16.9913  C     
24   C        -2.2111  -18.1315  -18.2378  C     
25   O        -1.5420  -18.3111  -16.9634  O     
26   C        -1.7373  -16.8797  -19.0346  C     
27   C        -2.0246  -15.4885  -18.3782  C     
28   C        -2.9081  -15.5128  -17.1909  C     
29   O        -2.4573  -15.0704  -15.9877  O     
30   O        -4.1390  -16.0591  -17.2581  O     
31   H         3.8563  -23.8494  -19.3141  H     
32   H         3.3004  -26.8018  -18.8571  H     
33   H         2.5380  -25.6239  -17.7808  H     
34   H         1.2682  -24.6052  -19.4809  H     
35   H         2.3142  -25.1985  -20.7935  H     
36   H         5.2327  -25.3849  -17.2055  H     
37   H         2.8152  -18.2598  -17.1783  H     
38   H         0.7418  -17.2380  -17.1870  H     
39   H        -1.1692  -20.7866  -16.6795  H     
40   H         0.1418  -22.9094  -16.4320  H     
41   H         2.2593  -24.0182  -16.4656  H     
42   H         4.2145  -20.3431  -17.1389  H     
43   H        -2.1042  -19.0195  -18.8901  H     
44   H        -3.2893  -18.0084  -18.0321  H     
45   H        -0.6588  -16.9511  -19.2163  H     
46   H        -2.2145  -16.8870  -20.0228  H     
47   H        -1.0698  -15.0280  -18.1038  H     
48   H        -2.4932  -14.8291  -19.1217  H     
@<TRIPOS>BOND
     1    1    2 1
     2    1    5 1
     3    1   10 1
     4    2    3 2
     5    2    4 1
     6    5    6 1
     7    6    7 1
     8    7    8 2
     9    7    9 1
    10   10   11 1
    11   11   12 2
    12   11   13 2
    13   11   14 1
    14   14   22 2
    15   14   23 1
    16   15   16 1
    17   15   20 1
    18   15   23 2
    19   16   17 2
    20   17   18 1
    21   18   19 2
    22   18   25 1
    23   19   20 1
    24   20   21 2
    25   21   22 1
    26   24   25 1
    27   24   26 1
    28   26   27 1
    29   27   28 1
    30   28   29 2
    31   28   30 1
    32    1   31 1
    33    5   32 1
    34    5   33 1
    35    6   34 1
    36    6   35 1
    37   10   36 1
    38   16   37 1
    39   17   38 1
    40   19   39 1
    41   21   40 1
    42   22   41 1
    43   23   42 1
    44   24   43 1
    45   24   44 1
    46   26   45 1
    47   26   46 1
    48   27   47 1
    49   27   48 1
@<TRIPOS>PROPERTY_DATA
  Total_Score	| 11.1212
  Crash		| -1.3362
  Polar		| 9.0609
  FragIndex	| 1
  FragRMSD	| 0.570

