@<TRIPOS>MOLECULE
BindingDB_26460
 49 50 0 0 0
SMALL
NO_CHARGES


@<TRIPOS>ATOM
1    C         4.6360  -25.1439  -18.8300  C     
2    C         5.1044  -24.2637  -19.9325  C     
3    O         4.6216  -23.0048  -20.0638  O     
4    C         3.1169  -25.5129  -18.9389  C     
5    C         2.8763  -27.0103  -19.2709  C     
6    C         1.4862  -27.2769  -19.7042  C     
7    O         0.4552  -27.1802  -18.8343  O     
8    N         4.9836  -24.6798  -17.5173  N     
9    S         4.9396  -23.0967  -16.9356  S     
10   O         6.1121  -22.2122  -17.5644  O     
11   O         5.4052  -23.2487  -15.4315  O     
12   C         3.3952  -22.2997  -16.8355  C     
13   C         2.0367  -20.2628  -16.9848  C     
14   C         1.9003  -18.8734  -17.1289  C     
15   C         0.6844  -18.2955  -17.0836  C     
16   C        -0.4610  -19.0487  -16.9437  C     
17   C        -0.3760  -20.3743  -16.7151  C     
18   C         0.8638  -21.0264  -16.7218  C     
19   C         0.9786  -22.4090  -16.4657  C     
20   C         2.2380  -23.0346  -16.5074  C     
21   C         3.2897  -20.9107  -17.0596  C     
22   C        -2.3258  -18.1871  -18.1201  C     
23   O        -1.6589  -18.4472  -16.8624  O     
24   C        -1.8233  -16.8999  -18.8348  C     
25   C        -2.0845  -15.5395  -18.1224  C     
26   C        -2.8895  -15.5996  -16.7997  C     
27   O         5.9755  -24.7111  -20.8605  O     
28   O         1.2489  -27.7371  -20.9533  O     
29   H         5.2258  -26.0605  -18.9208  H     
30   H         2.6195  -25.3116  -17.9887  H     
31   H         2.6300  -24.8932  -19.6958  H     
32   H         3.5686  -27.3349  -20.0544  H     
33   H         3.0645  -27.6083  -18.3752  H     
34   H         5.0977  -25.3635  -16.8334  H     
35   H         2.7110  -18.3009  -17.2119  H     
36   H         0.6201  -17.3051  -17.1266  H     
37   H        -1.2105  -20.8977  -16.5599  H     
38   H         0.1530  -22.9627  -16.2346  H     
39   H         2.2989  -24.0332  -16.2975  H     
40   H         4.1299  -20.3639  -17.2704  H     
41   H        -2.2399  -19.0324  -18.8151  H     
42   H        -3.3870  -18.0567  -17.9030  H     
43   H        -0.7458  -16.9951  -19.0048  H     
44   H        -2.2872  -16.8620  -19.8261  H     
45   H        -1.1271  -15.0479  -17.9135  H     
46   H        -2.6295  -14.8823  -18.8154  H     
47   H        -3.8136  -16.1644  -16.9410  H     
48   H        -3.1284  -14.5916  -16.4647  H     
49   H        -2.2948  -16.0877  -16.0237  H     
@<TRIPOS>BOND
     1    1    2 1
     2    1    4 1
     3    1    8 1
     4    2    3 2
     5    2   27 1
     6    4    5 1
     7    5    6 1
     8    6    7 2
     9    6   28 1
    10    8    9 1
    11    9   10 2
    12    9   11 2
    13    9   12 1
    14   12   20 2
    15   12   21 1
    16   13   14 1
    17   13   18 1
    18   13   21 2
    19   14   15 2
    20   15   16 1
    21   16   17 2
    22   16   23 1
    23   17   18 1
    24   18   19 2
    25   19   20 1
    26   22   23 1
    27   22   24 1
    28   24   25 1
    29   25   26 1
    30    1   29 1
    31    4   30 1
    32    4   31 1
    33    5   32 1
    34    5   33 1
    35    8   34 1
    36   14   35 1
    37   15   36 1
    38   17   37 1
    39   19   38 1
    40   20   39 1
    41   21   40 1
    42   22   41 1
    43   22   42 1
    44   24   43 1
    45   24   44 1
    46   25   45 1
    47   25   46 1
    48   26   47 1
    49   26   48 1
    50   26   49 1
@<TRIPOS>PROPERTY_DATA
  Total_Score	| 9.5627
  Crash		| -1.0422
  Polar		| 6.7014
  FragIndex	| 1
  FragRMSD	| 1.030

