@<TRIPOS>MOLECULE
BindingDB_26452
 56 58 0 0 0
SMALL
NO_CHARGES


@<TRIPOS>ATOM
1    C         4.2488  -24.8127  -18.9533  C     
2    C         5.2186  -25.3667  -19.9219  C     
3    O         5.6143  -26.6554  -19.8626  O     
4    O         5.8664  -24.5657  -20.7929  O     
5    C         3.0040  -25.7382  -18.7813  C     
6    C         1.9484  -25.5473  -19.9068  C     
7    C         1.0112  -26.6807  -20.0095  C     
8    O         0.1593  -26.9733  -19.0007  O     
9    O         1.0851  -27.5243  -21.0620  O     
10   N         4.9192  -24.6125  -17.7061  N     
11   S         5.0115  -23.1111  -16.9354  S     
12   O         6.1136  -22.1921  -17.6209  O     
13   O         5.5400  -23.3899  -15.4636  O     
14   C         3.4765  -22.3131  -16.7404  C     
15   C         2.1081  -20.2833  -16.8557  C     
16   C         1.9608  -18.9081  -17.0559  C     
17   C         0.7520  -18.3240  -16.9125  C     
18   C        -0.3724  -19.0640  -16.6346  C     
19   C        -0.2732  -20.3888  -16.3924  C     
20   C         0.9571  -21.0436  -16.4978  C     
21   C         1.0837  -22.4266  -16.2529  C     
22   C         2.3406  -23.0474  -16.3430  C     
23   C         3.3569  -20.9294  -16.9877  C     
24   O        -1.5790  -18.4781  -16.5388  O     
25   C        -2.2144  -18.1096  -17.7798  C     
26   C        -1.8513  -16.6540  -18.1903  C     
27   C        -1.5315  -16.4659  -19.7040  C     
28   C        -1.5246  -15.0468  -20.1724  C     
29   C        -0.9279  -14.0256  -19.3932  C     
30   C        -0.9643  -12.6826  -19.8195  C     
31   C        -1.5464  -12.3542  -21.0545  C     
32   C        -2.0867  -13.3651  -21.8663  C     
33   C        -2.0722  -14.7017  -21.4292  C     
34   H         3.9033  -23.8480  -19.3345  H     
35   H         3.3226  -26.7841  -18.7363  H     
36   H         2.5145  -25.5217  -17.8284  H     
37   H         1.3766  -24.6378  -19.7064  H     
38   H         2.4511  -25.4199  -20.8680  H     
39   H         5.3430  -25.3730  -17.2782  H     
40   H         2.7530  -18.3503  -17.2923  H     
41   H         0.6827  -17.3365  -17.0137  H     
42   H        -1.0873  -20.8989  -16.1484  H     
43   H         0.2660  -22.9862  -16.0019  H     
44   H         2.4226  -24.0392  -16.1110  H     
45   H         4.1812  -20.3822  -17.2460  H     
46   H        -2.0148  -18.8237  -18.5836  H     
47   H        -3.2893  -18.1471  -17.6014  H     
48   H        -2.6751  -15.9920  -17.9207  H     
49   H        -0.9896  -16.3198  -17.6120  H     
50   H        -0.5513  -16.8931  -19.9144  H     
51   H        -2.2710  -17.0389  -20.2751  H     
52   H        -0.4621  -14.2469  -18.5084  H     
53   H        -0.5646  -11.9477  -19.2283  H     
54   H        -1.5671  -11.3826  -21.3691  H     
55   H        -2.4976  -13.1335  -22.7717  H     
56   H        -2.4477  -15.4264  -22.0446  H     
@<TRIPOS>BOND
     1    1    2 1
     2    1    5 1
     3    1   10 1
     4    2    3 2
     5    2    4 1
     6    5    6 1
     7    6    7 1
     8    7    8 2
     9    7    9 1
    10   10   11 1
    11   11   12 2
    12   11   13 2
    13   11   14 1
    14   14   22 2
    15   14   23 1
    16   15   16 1
    17   15   20 1
    18   15   23 2
    19   16   17 2
    20   17   18 1
    21   18   19 2
    22   18   24 1
    23   19   20 1
    24   20   21 2
    25   21   22 1
    26   24   25 1
    27   25   26 1
    28   26   27 1
    29   27   28 1
    30   28   29 1
    31   28   33 2
    32   29   30 2
    33   30   31 1
    34   31   32 2
    35   32   33 1
    36    1   34 1
    37    5   35 1
    38    5   36 1
    39    6   37 1
    40    6   38 1
    41   10   39 1
    42   16   40 1
    43   17   41 1
    44   19   42 1
    45   21   43 1
    46   22   44 1
    47   23   45 1
    48   25   46 1
    49   25   47 1
    50   26   48 1
    51   26   49 1
    52   27   50 1
    53   27   51 1
    54   29   52 1
    55   30   53 1
    56   31   54 1
    57   32   55 1
    58   33   56 1
@<TRIPOS>PROPERTY_DATA
  Total_Score	| 12.4914
  Crash		| -1.0257
  Polar		| 7.7909
  FragIndex	| 1
  FragRMSD	| 0.816

