@<TRIPOS>MOLECULE
BindingDB_50334362
 42 43 0 0 0
SMALL
NO_CHARGES


@<TRIPOS>ATOM
1    C        -4.9285    2.3659   14.7897  C     
2    C        -4.7021    3.3396   13.7933  C     
3    C        -5.3641    4.5953   13.8356  C     
4    C        -6.2080    4.8714   14.9371  C     
5    C        -6.4263    3.8984   15.9342  C     
6    C        -5.7945    2.6382   15.8710  C     
7    S        -6.0305    1.4485   17.1225  S     
8    N        -6.9910    1.8899   18.4196  N     
9    O        -6.6812    0.1483   16.4758  O     
10   O        -4.6219    0.9773   17.6848  O     
11   N        -5.2642    5.5595   12.8607  N     
12   C        -5.1230    5.3613   11.5449  C     
13   N        -5.2676    6.2937   10.6153  N     
14   O        -4.9850    4.2400   11.0739  O     
15   C        -5.5846    7.6043   10.7332  C     
16   C        -4.7788    8.5504   11.3915  C     
17   C        -5.0767    9.9278   11.2957  C     
18   C        -6.2236   10.4024   10.6008  C     
19   C        -7.0433    9.4158    9.9902  C     
20   C        -6.7195    8.0476   10.0370  C     
21   C        -6.6347   11.8644   10.5526  C     
22   C        -5.5273   12.9074   10.9326  C     
23   C        -7.2436   12.2975    9.1693  C     
24   H        -4.4444    1.4657   14.7356  H     
25   H        -4.0377    3.1207   13.0399  H     
26   H        -6.6911    5.7681   15.0060  H     
27   H        -7.0551    4.1209   16.7213  H     
28   H        -7.6662    1.2650   18.7361  H     
29   H        -6.7674    2.6986   18.9245  H     
30   H        -5.4661    6.4684   13.1228  H     
31   H        -5.3043    5.9599    9.7008  H     
32   H        -3.9369    8.2427   11.8844  H     
33   H        -4.4472   10.5705   11.7738  H     
34   H        -7.8880    9.6761    9.4812  H     
35   H        -7.3218    7.3757    9.5516  H     
36   H        -7.4343   11.9666   11.2963  H     
37   H        -5.1412   12.7288   11.9417  H     
38   H        -5.9297   13.9315   10.9352  H     
39   H        -4.6940   12.8443   10.2184  H     
40   H        -6.5518   12.0572    8.3545  H     
41   H        -7.4666   13.3723    9.1561  H     
42   H        -8.1971   11.7967    8.9852  H     
@<TRIPOS>BOND
     1    1    2 2
     2    1    6 1
     3    2    3 1
     4    3    4 2
     5    3   11 1
     6    4    5 1
     7    5    6 2
     8    6    7 1
     9    7    8 am
    10    7    9 2
    11    7   10 2
    12   11   12 am
    13   12   13 am
    14   12   14 2
    15   13   15 1
    16   15   16 2
    17   15   20 1
    18   16   17 1
    19   17   18 2
    20   18   19 1
    21   18   21 1
    22   19   20 2
    23   21   22 1
    24   21   23 1
    25    1   24 1
    26    2   25 1
    27    4   26 1
    28    5   27 1
    29    8   28 1
    30    8   29 1
    31   11   30 1
    32   13   31 1
    33   16   32 1
    34   17   33 1
    35   19   34 1
    36   20   35 1
    37   21   36 1
    38   22   37 1
    39   22   38 1
    40   22   39 1
    41   23   40 1
    42   23   41 1
    43   23   42 1
@<TRIPOS>PROPERTY_DATA
  Total_Score	| 5.7060
  Crash		| -1.7557
  Polar		| 4.2444
  FragIndex	| 1
  FragRMSD	| 1.478

