@<TRIPOS>MOLECULE
BindingDB_50334353
 39 40 0 0 0
SMALL
NO_CHARGES


@<TRIPOS>ATOM
1    C        -6.7689    3.7054   15.6529  C     
2    C        -6.5086    4.7543   14.7536  C     
3    C        -5.2469    4.8776   14.1225  C     
4    C        -4.2552    3.8993   14.4047  C     
5    C        -4.5127    2.8479   15.3129  C     
6    C        -5.7766    2.7394   15.9400  C     
7    S        -6.1417    1.3720   16.9601  S     
8    N        -7.6671    1.4420   17.6658  N     
9    O        -6.0872    0.0689   16.0520  O     
10   O        -5.0287    1.2872   18.0926  O     
11   N        -5.1283    5.9293   13.2516  N     
12   C        -4.0442    6.5772   12.8475  C     
13   N        -4.0790    7.6442   12.0659  N     
14   O        -2.9383    6.3275   13.2939  O     
15   C        -5.1273    8.1827   11.3718  C     
16   C        -5.2008    9.5875   11.3002  C     
17   C        -6.1932   10.2278   10.5245  C     
18   C        -7.0860    9.4340    9.7732  C     
19   C        -7.0197    8.0203    9.8015  C     
20   C        -6.0434    7.4067   10.6216  C     
21   C        -6.2717   11.7049   10.5129  C     
22   C        -7.9275    7.2148    8.9509  C     
23   H        -7.6910    3.6487   16.0877  H     
24   H        -7.2531    5.4376   14.5562  H     
25   H        -3.3404    3.9198   13.9413  H     
26   H        -3.7859    2.1510   15.4908  H     
27   H        -7.9036    0.7861   18.3523  H     
28   H        -8.3323    2.0925   17.3575  H     
29   H        -5.9620    6.3322   12.9812  H     
30   H        -3.2413    8.1325   12.0015  H     
31   H        -4.5265   10.1541   11.8205  H     
32   H        -7.8000    9.8782    9.1843  H     
33   H        -5.9555    6.3882   10.6243  H     
34   H        -6.4364   12.0639   11.5329  H     
35   H        -7.0900   12.0744    9.8843  H     
36   H        -5.3334   12.1256   10.1386  H     
37   H        -8.9638    7.4561    9.1932  H     
38   H        -7.7789    6.1392    9.0955  H     
39   H        -7.7460    7.4452    7.8983  H     
@<TRIPOS>BOND
     1    1    2 2
     2    1    6 1
     3    2    3 1
     4    3    4 2
     5    3   11 1
     6    4    5 1
     7    5    6 2
     8    6    7 1
     9    7    8 am
    10    7    9 2
    11    7   10 2
    12   11   12 am
    13   12   13 am
    14   12   14 2
    15   13   15 1
    16   15   16 2
    17   15   20 1
    18   16   17 1
    19   17   18 2
    20   17   21 1
    21   18   19 1
    22   19   20 2
    23   19   22 1
    24    1   23 1
    25    2   24 1
    26    4   25 1
    27    5   26 1
    28    8   27 1
    29    8   28 1
    30   11   29 1
    31   13   30 1
    32   16   31 1
    33   18   32 1
    34   20   33 1
    35   21   34 1
    36   21   35 1
    37   21   36 1
    38   22   37 1
    39   22   38 1
    40   22   39 1
@<TRIPOS>PROPERTY_DATA
  Total_Score	| 6.3315
  Crash		| -1.5901
  Polar		| 3.1824
  FragIndex	| 1
  FragRMSD	| 1.462

