@<TRIPOS>MOLECULE
BindingDB_50334354
 33 34 0 0 0
SMALL
NO_CHARGES


@<TRIPOS>ATOM
1    C        -5.7476    2.6607   16.0302  C     
2    N        -6.8463    1.6999   18.5080  N     
3    O        -6.6296    0.1276   16.4414  O     
4    S        -5.9121    1.3481   17.1593  S     
5    C        -6.8229    3.5447   15.8020  C     
6    O        -4.5207    0.7778   17.6732  O     
7    C        -6.6765    4.6231   14.9092  C     
8    C        -5.4527    4.8561   14.2382  C     
9    C        -4.3896    3.9427   14.4531  C     
10   C        -4.5316    2.8617   15.3407  C     
11   N        -5.3881    5.9460   13.4064  N     
12   C        -4.3295    6.6833   13.0779  C     
13   O        -3.2442    6.5031   13.6111  O     
14   N        -4.3704    7.7269   12.2604  N     
15   C        -5.3746    8.1818   11.4548  C     
16   C        -6.2705    7.3316   10.7664  C     
17   C        -7.2224    7.8659    9.8767  C     
18   C        -7.2976    9.2566    9.6669  C     
19   F        -8.1822    9.7430    8.8374  F     
20   C        -6.4174   10.1140   10.3488  C     
21   C        -5.4508    9.5749   11.2222  C     
22   H        -7.6690    1.2140   18.6686  H     
23   H        -6.5757    2.4136   19.1090  H     
24   H        -7.7120    3.4102   16.2884  H     
25   H        -7.4687    5.2483   14.7536  H     
26   H        -3.5087    4.0428   13.9390  H     
27   H        -3.7451    2.2209   15.4815  H     
28   H        -6.2398    6.3022   13.1075  H     
29   H        -3.5671    8.2644   12.2449  H     
30   H        -6.2036    6.3182   10.8672  H     
31   H        -7.8530    7.2420    9.3717  H     
32   H        -6.4624   11.1259   10.2004  H     
33   H        -4.7944   10.2101   11.6905  H     
@<TRIPOS>BOND
     1    1    4 1
     2    1    5 1
     3    1   10 2
     4    2    4 am
     5    3    4 2
     6    4    6 2
     7    5    7 2
     8    7    8 1
     9    8    9 2
    10    8   11 1
    11    9   10 1
    12   11   12 am
    13   12   13 2
    14   12   14 am
    15   14   15 1
    16   15   16 2
    17   15   21 1
    18   16   17 1
    19   17   18 2
    20   18   19 1
    21   18   20 1
    22   20   21 2
    23    2   22 1
    24    2   23 1
    25    5   24 1
    26    7   25 1
    27    9   26 1
    28   10   27 1
    29   11   28 1
    30   14   29 1
    31   16   30 1
    32   17   31 1
    33   20   32 1
    34   21   33 1
@<TRIPOS>PROPERTY_DATA
  Total_Score	| 5.5160
  Crash		| -1.4889
  Polar		| 3.3880
  FragIndex	| 1
  FragRMSD	| 1.419

