@<TRIPOS>MOLECULE
BindingDB_50334345
 34 35 0 0 0
SMALL
NO_CHARGES


@<TRIPOS>ATOM
1    C        -6.6598    3.9320   16.6609  C     
2    C        -6.7777    5.0601   15.8315  C     
3    C        -6.3558    5.0182   14.4827  C     
4    C        -5.7750    3.8261   13.9827  C     
5    C        -5.6503    2.6939   14.8152  C     
6    C        -6.0970    2.7439   16.1554  C     
7    S        -5.9560    1.3517   17.1823  S     
8    N        -6.7843    1.4406   18.6399  N     
9    O        -6.5234    0.0505   16.4579  O     
10   O        -4.4247    1.0147   17.4775  O     
11   N        -6.6122    6.1246   13.7340  N     
12   C        -5.9168    6.6886   12.7555  C     
13   N        -6.4889    7.7493   12.2093  N     
14   O        -4.8327    6.2576   12.3868  O     
15   C        -6.0257    8.5933   11.2515  C     
16   C        -4.7514    9.2021   11.2883  C     
17   C        -4.3385   10.0737   10.2633  C     
18   C        -5.2028   10.3545    9.1748  C     
19   C        -6.4852    9.7674    9.1475  C     
20   C        -6.8999    8.9122   10.1822  C     
21   C        -4.8236   11.1524    8.2256  C     
22   N        -4.4553   11.8450    7.3784  N     
23   H        -6.9844    3.9973   17.6317  H     
24   H        -7.1731    5.9198   16.2180  H     
25   H        -5.4877    3.7577   13.0028  H     
26   H        -5.2464    1.8380   14.4309  H     
27   H        -7.6970    1.1045   18.6900  H     
28   H        -6.4342    1.9893   19.3639  H     
29   H        -7.4076    6.6147   13.9951  H     
30   H        -7.4006    7.9186   12.5013  H     
31   H        -4.1174    9.0238   12.0693  H     
32   H        -3.4103   10.4946   10.3177  H     
33   H        -7.1330    9.9615    8.3807  H     
34   H        -7.8353    8.5031   10.1451  H     
@<TRIPOS>BOND
     1    1    2 2
     2    1    6 1
     3    2    3 1
     4    3    4 2
     5    3   11 1
     6    4    5 1
     7    5    6 2
     8    6    7 1
     9    7    8 am
    10    7    9 2
    11    7   10 2
    12   11   12 am
    13   12   13 am
    14   12   14 2
    15   13   15 1
    16   15   16 2
    17   15   20 1
    18   16   17 1
    19   17   18 2
    20   18   19 1
    21   18   21 1
    22   19   20 2
    23   21   22 3
    24    1   23 1
    25    2   24 1
    26    4   25 1
    27    5   26 1
    28    8   27 1
    29    8   28 1
    30   11   29 1
    31   13   30 1
    32   16   31 1
    33   17   32 1
    34   19   33 1
    35   20   34 1
@<TRIPOS>PROPERTY_DATA
  Total_Score	| 6.2578
  Crash		| -1.7104
  Polar		| 3.3565
  FragIndex	| 1
  FragRMSD	| 1.378

