@<TRIPOS>MOLECULE
BindingDB_50334363
 45 46 0 0 0
SMALL
NO_CHARGES


@<TRIPOS>ATOM
1    C        -6.8277    3.7919   16.0695  C     
2    C        -6.6674    4.9096   15.2290  C     
3    C        -5.6027    4.9734   14.3041  C     
4    C        -4.6882    3.8908   14.2427  C     
5    C        -4.8465    2.7700   15.0797  C     
6    C        -5.9239    2.7088   15.9900  C     
7    S        -6.1714    1.2821   16.9550  S     
8    N        -7.6961    1.1744   17.6468  N     
9    O        -5.8995   -0.0498   16.1343  O     
10   O        -5.1306    1.2993   18.1562  O     
11   N        -5.5516    6.0538   13.4659  N     
12   C        -4.4727    6.7034   13.0455  C     
13   N        -4.4933    7.7204   12.1963  N     
14   O        -3.3738    6.4583   13.5221  O     
15   C        -5.4868    8.1803   11.3762  C     
16   C        -5.4515    9.5465   11.0179  C     
17   C        -6.3598   10.0736   10.0798  C     
18   C        -7.3166    9.2397    9.4539  C     
19   C        -7.3653    7.8779    9.8303  C     
20   C        -6.4573    7.3508   10.7664  C     
21   C        -8.2631    9.7633    8.4274  C     
22   C        -8.2781    8.9937    7.0730  C     
23   C        -7.3194    9.5207    5.9680  C     
24   C        -5.8838    8.9450    6.0084  C     
25   H        -7.6165    3.7684   16.7238  H     
26   H        -7.3305    5.6896   15.3023  H     
27   H        -3.9234    3.8923   13.5587  H     
28   H        -4.1829    1.9914   15.0006  H     
29   H        -7.7630    1.0380   18.5981  H     
30   H        -8.4701    1.4938   17.1431  H     
31   H        -6.4062    6.4446   13.2205  H     
32   H        -3.6568    8.2089   12.1328  H     
33   H        -4.7510   10.1694   11.4314  H     
34   H        -6.2998   11.0674    9.8357  H     
35   H        -8.0515    7.2490    9.4043  H     
36   H        -6.4809    6.3470   10.9602  H     
37   H        -9.2674    9.7110    8.8565  H     
38   H        -8.0703   10.8192    8.2226  H     
39   H        -8.0857    7.9304    7.2357  H     
40   H        -9.2956    9.0669    6.6755  H     
41   H        -7.7460    9.2595    4.9964  H     
42   H        -7.2693   10.6102    6.0158  H     
43   H        -5.3558    9.2835    6.8953  H     
44   H        -5.3268    9.2878    5.1314  H     
45   H        -5.9097    7.8537    6.0033  H     
@<TRIPOS>BOND
     1    1    2 2
     2    1    6 1
     3    2    3 1
     4    3    4 2
     5    3   11 1
     6    4    5 1
     7    5    6 2
     8    6    7 1
     9    7    8 am
    10    7    9 2
    11    7   10 2
    12   11   12 am
    13   12   13 am
    14   12   14 2
    15   13   15 1
    16   15   16 2
    17   15   20 1
    18   16   17 1
    19   17   18 2
    20   18   19 1
    21   18   21 1
    22   19   20 2
    23   21   22 1
    24   22   23 1
    25   23   24 1
    26    1   25 1
    27    2   26 1
    28    4   27 1
    29    5   28 1
    30    8   29 1
    31    8   30 1
    32   11   31 1
    33   13   32 1
    34   16   33 1
    35   17   34 1
    36   19   35 1
    37   20   36 1
    38   21   37 1
    39   21   38 1
    40   22   39 1
    41   22   40 1
    42   23   41 1
    43   23   42 1
    44   24   43 1
    45   24   44 1
    46   24   45 1
@<TRIPOS>PROPERTY_DATA
  Total_Score	| 6.7702
  Crash		| -1.5290
  Polar		| 2.9827
  FragIndex	| 1
  FragRMSD	| 1.421

