@<TRIPOS>MOLECULE
BindingDB_50334355
 33 34 0 0 0
SMALL
NO_CHARGES


@<TRIPOS>ATOM
1    C        -4.8962    2.3706   14.8316  C     
2    C        -4.6853    3.3469   13.8404  C     
3    C        -5.4238    4.5557   13.8386  C     
4    C        -6.3256    4.7776   14.8902  C     
5    C        -6.5403    3.7988   15.8916  C     
6    C        -5.8144    2.5928   15.8734  C     
7    S        -5.9929    1.3888   17.1096  S     
8    N        -6.9618    1.7824   18.4170  N     
9    O        -6.6410    0.0924   16.4611  O     
10   O        -4.5828    0.9009   17.6602  O     
11   N        -5.2939    5.5268   12.8773  N     
12   C        -5.1267    5.3424   11.5625  C     
13   N        -5.1711    6.2732   10.6332  N     
14   O        -5.0348    4.2069   11.0996  O     
15   C        -5.4588    7.5913   10.7744  C     
16   C        -4.6006    8.5146   11.4093  C     
17   C        -4.8868    9.8946   11.3684  C     
18   C        -6.0314   10.3698   10.7014  C     
19   C        -6.8931    9.4558   10.0700  C     
20   C        -6.5990    8.0760   10.0822  C     
21   Br       -6.3961   12.1931   10.6432  Br    
22   H        -4.3423    1.5013   14.7982  H     
23   H        -3.9721    3.1768   13.1455  H     
24   H        -6.8606    5.6466   14.9499  H     
25   H        -7.2198    3.9743   16.6453  H     
26   H        -7.7115    1.2035   18.6691  H     
27   H        -6.8231    2.6291   18.8836  H     
28   H        -5.4676    6.4451   13.1456  H     
29   H        -5.1626    5.9537    9.7202  H     
30   H        -3.7524    8.1818   11.8616  H     
31   H        -4.2432   10.5567   11.8205  H     
32   H        -7.7296    9.8020    9.5800  H     
33   H        -7.2218    7.4391    9.5900  H     
@<TRIPOS>BOND
     1    1    2 2
     2    1    6 1
     3    2    3 1
     4    3    4 2
     5    3   11 1
     6    4    5 1
     7    5    6 2
     8    6    7 1
     9    7    8 am
    10    7    9 2
    11    7   10 2
    12   11   12 am
    13   12   13 am
    14   12   14 2
    15   13   15 1
    16   15   16 2
    17   15   20 1
    18   16   17 1
    19   17   18 2
    20   18   19 1
    21   18   21 1
    22   19   20 2
    23    1   22 1
    24    2   23 1
    25    4   24 1
    26    5   25 1
    27    8   26 1
    28    8   27 1
    29   11   28 1
    30   13   29 1
    31   16   30 1
    32   17   31 1
    33   19   32 1
    34   20   33 1
@<TRIPOS>PROPERTY_DATA
  Total_Score	| 5.5014
  Crash		| -1.4228
  Polar		| 4.2473
  FragIndex	| 1
  FragRMSD	| 1.470

