@<TRIPOS>MOLECULE
BindingDB_50334356
 33 34 0 0 0
SMALL
NO_CHARGES


@<TRIPOS>ATOM
1    C        -6.6843    3.7147   15.8919  C     
2    C        -6.5312    4.7401   14.9362  C     
3    C        -5.4751    4.6886   13.9972  C     
4    C        -4.5077    3.6560   14.1259  C     
5    C        -4.6580    2.6367   15.0793  C     
6    C        -5.7603    2.6497   15.9619  C     
7    S        -5.9350    1.3768   17.1426  S     
8    N        -6.8342    1.7182   18.5237  N     
9    O        -6.5928    0.0862   16.4922  O     
10   O        -4.5078    0.8833   17.6384  O     
11   N        -5.4353    5.6442   13.0074  N     
12   C        -5.2710    5.4171   11.7022  C     
13   N        -5.4193    6.3261   10.7570  N     
14   O        -5.1369    4.2882   11.2419  O     
15   C        -5.6003    7.6734   10.8254  C     
16   C        -4.7039    8.5099   11.5227  C     
17   C        -4.8187    9.9198   11.4178  C     
18   C        -5.8447   10.4938   10.6463  C     
19   C        -6.7537    9.6697    9.9724  C     
20   C        -6.6170    8.2644   10.0372  C     
21   I        -5.9883   12.5389   10.4877  I     
22   H        -7.4757    3.7488   16.5488  H     
23   H        -7.2332    5.4839   14.8845  H     
24   H        -3.6842    3.6286   13.5238  H     
25   H        -3.9586    1.8837   15.1249  H     
26   H        -7.6144    1.1702   18.7402  H     
27   H        -6.6231    2.5052   19.0682  H     
28   H        -5.7066    6.5294   13.2429  H     
29   H        -5.5049    5.9624    9.8584  H     
30   H        -3.9496    8.1090   12.0769  H     
31   H        -4.1372   10.5159   11.8829  H     
32   H        -7.4847   10.0876    9.3952  H     
33   H        -7.2746    7.6882    9.5111  H     
@<TRIPOS>BOND
     1    1    2 2
     2    1    6 1
     3    2    3 1
     4    3    4 2
     5    3   11 1
     6    4    5 1
     7    5    6 2
     8    6    7 1
     9    7    8 am
    10    7    9 2
    11    7   10 2
    12   11   12 am
    13   12   13 am
    14   12   14 2
    15   13   15 1
    16   15   16 2
    17   15   20 1
    18   16   17 1
    19   17   18 2
    20   18   19 1
    21   18   21 1
    22   19   20 2
    23    1   22 1
    24    2   23 1
    25    4   24 1
    26    5   25 1
    27    8   26 1
    28    8   27 1
    29   11   28 1
    30   13   29 1
    31   16   30 1
    32   17   31 1
    33   19   32 1
    34   20   33 1
@<TRIPOS>PROPERTY_DATA
  Total_Score	| 5.6144
  Crash		| -1.4294
  Polar		| 4.0391
  FragIndex	| 1
  FragRMSD	| 1.406

