@<TRIPOS>MOLECULE
BindingDB_54376
 33 34 0 0 0
SMALL
NO_CHARGES


@<TRIPOS>ATOM
1    Cl       -8.5770    9.7304    8.3559  Cl    
2    S        -6.2010    1.3710   17.1302  S     
3    O        -4.7584    0.9346   17.6521  O     
4    O        -6.7421    0.0687   16.4046  O     
5    O        -3.6131    6.5213   13.7210  O     
6    N        -5.7618    6.0155   13.4426  N     
7    N        -4.6506    7.7090   12.2651  N     
8    N        -7.1386    1.5342   18.5085  N     
9    C        -6.1051    2.7173   16.0400  C     
10   C        -5.8408    4.9181   14.2604  C     
11   C        -5.6390    2.5211   14.7232  C     
12   C        -6.4154    4.0209   16.4683  C     
13   C        -5.5169    3.6057   13.8417  C     
14   C        -6.2736    5.1129   15.5887  C     
15   C        -5.6192    8.1344   11.4081  C     
16   C        -4.6711    6.7100   13.1327  C     
17   C        -5.6940    9.5182   11.1285  C     
18   C        -6.4742    7.2480   10.7074  C     
19   C        -6.6130   10.0135   10.1831  C     
20   C        -7.3973    7.7418    9.7550  C     
21   C        -7.4679    9.1324    9.4926  C     
22   H        -6.6072    6.3789   13.1300  H     
23   H        -3.8568    8.2578   12.2801  H     
24   H        -8.0509    1.1890   18.5229  H     
25   H        -6.7731    1.9447   19.3126  H     
26   H        -5.4195    1.5817   14.3812  H     
27   H        -6.7369    4.1892   17.4235  H     
28   H        -5.2101    3.4352   12.8805  H     
29   H        -6.4987    6.0558   15.9173  H     
30   H        -5.0588   10.1653   11.6011  H     
31   H        -6.4088    6.2315   10.8563  H     
32   H        -6.6553   11.0206   10.0143  H     
33   H        -8.0031    7.0987    9.2377  H     
@<TRIPOS>BOND
     1    1   21 1
     2    2    3 2
     3    2    4 2
     4    2    8 am
     5    2    9 1
     6    5   16 2
     7    6   10 1
     8    6   16 am
     9    7   15 1
    10    7   16 am
    11    9   11 2
    12    9   12 1
    13   10   13 2
    14   10   14 1
    15   11   13 1
    16   12   14 2
    17   15   17 2
    18   15   18 1
    19   17   19 1
    20   18   20 2
    21   19   21 2
    22   20   21 1
    23    6   22 1
    24    7   23 1
    25    8   24 1
    26    8   25 1
    27   11   26 1
    28   12   27 1
    29   13   28 1
    30   14   29 1
    31   17   30 1
    32   18   31 1
    33   19   32 1
    34   20   33 1
@<TRIPOS>PROPERTY_DATA
  Total_Score	| 6.3306
  Crash		| -1.8600
  Polar		| 3.6219
  FragIndex	| 1
  FragRMSD	| 1.494

