@<TRIPOS>MOLECULE
BindingDB_50334347
 44 46 0 0 0
SMALL
NO_CHARGES


@<TRIPOS>ATOM
1    C        -6.6878    3.8876   16.2662  C     
2    C        -6.5607    4.9686   15.3770  C     
3    C        -5.6659    4.9110   14.2904  C     
4    C        -4.9161    3.7239   14.0913  C     
5    C        -5.0422    2.6407   14.9813  C     
6    C        -5.9254    2.7178   16.0755  C     
7    S        -6.0516    1.3830   17.1763  S     
8    N        -6.9515    1.6270   18.5657  N     
9    O        -6.6809    0.1158   16.4478  O     
10   O        -4.6140    0.8754   17.6364  O     
11   N        -5.6177    5.9908   13.4460  N     
12   C        -4.5382    6.6705   13.0852  C     
13   N        -4.5496    7.6956   12.2510  N     
14   O        -3.4572    6.4605   13.6251  O     
15   C        -5.5374    8.1155   11.4057  C     
16   C        -6.3753    7.2427   10.6629  C     
17   C        -7.3256    7.7518    9.7483  C     
18   C        -7.4588    9.1443    9.5573  C     
19   C        -6.6126   10.0161   10.2670  C     
20   C        -5.6583    9.5053   11.1696  C     
21   O        -8.3944    9.6450    8.7072  O     
22   C        -8.2111    9.6761    7.3319  C     
23   C        -9.3323   10.1161    6.5962  C     
24   C        -9.2745   10.2417    5.1949  C     
25   C        -8.0980    9.9174    4.5024  C     
26   C        -6.9704    9.4599    5.2095  C     
27   C        -7.0278    9.3399    6.6184  C     
28   H        -7.3268    3.9675   17.0706  H     
29   H        -7.0994    5.8261   15.5492  H     
30   H        -4.2849    3.6399   13.2990  H     
31   H        -4.4771    1.8035   14.8202  H     
32   H        -7.8133    1.1936   18.6723  H     
33   H        -6.6385    2.2598   19.2408  H     
34   H        -6.4665    6.3614   13.1650  H     
35   H        -3.7390    8.2258   12.2280  H     
36   H        -6.3032    6.2345   10.7813  H     
37   H        -7.9119    7.1040    9.2250  H     
38   H        -6.6909   11.0252   10.1218  H     
39   H        -5.0623   10.1687   11.6844  H     
40   H       -10.1976   10.3644    7.0789  H     
41   H       -10.0922   10.5758    4.6725  H     
42   H        -8.0515   10.0064    3.4898  H     
43   H        -6.1101    9.2206    4.7152  H     
44   H        -6.1841    9.0253    7.0911  H     
@<TRIPOS>BOND
     1    1    2 2
     2    1    6 1
     3    2    3 1
     4    3    4 2
     5    3   11 1
     6    4    5 1
     7    5    6 2
     8    6    7 1
     9    7    8 am
    10    7    9 2
    11    7   10 2
    12   11   12 am
    13   12   13 am
    14   12   14 2
    15   13   15 1
    16   15   16 2
    17   15   20 1
    18   16   17 1
    19   17   18 2
    20   18   19 1
    21   18   21 1
    22   19   20 2
    23   21   22 1
    24   22   23 2
    25   22   27 1
    26   23   24 1
    27   24   25 2
    28   25   26 1
    29   26   27 2
    30    1   28 1
    31    2   29 1
    32    4   30 1
    33    5   31 1
    34    8   32 1
    35    8   33 1
    36   11   34 1
    37   13   35 1
    38   16   36 1
    39   17   37 1
    40   19   38 1
    41   20   39 1
    42   23   40 1
    43   24   41 1
    44   25   42 1
    45   26   43 1
    46   27   44 1
@<TRIPOS>PROPERTY_DATA
  Total_Score	| 7.3202
  Crash		| -1.3355
  Polar		| 3.5266
  FragIndex	| 1
  FragRMSD	| 1.445

