@<TRIPOS>MOLECULE
BindingDB_50334360
 38 39 0 0 0
SMALL
NO_CHARGES


@<TRIPOS>ATOM
1    C        -6.7173    3.5793   15.9157  C     
2    C        -6.4170    4.6904   15.1071  C     
3    C        -5.1581    4.7996   14.4713  C     
4    C        -4.1902    3.8006   14.7138  C     
5    C        -4.4906    2.6819   15.5142  C     
6    C        -5.7626    2.5603   16.1090  C     
7    S        -6.1609    1.1497   17.0446  S     
8    N        -7.7296    1.0936   17.6385  N     
9    O        -5.8838   -0.1893   16.2386  O     
10   O        -5.2135    1.0934   18.3165  O     
11   N        -4.7964    5.8456   13.6667  N     
12   C        -5.5545    6.5876   12.8725  C     
13   N        -4.9466    7.5997   12.2688  N     
14   O        -6.7519    6.3669   12.7315  O     
15   C        -5.4593    8.5508   11.4278  C     
16   C        -4.7810    9.7856   11.3774  C     
17   C        -5.2377   10.8309   10.5561  C     
18   C        -6.3793   10.6778    9.7260  C     
19   C        -7.0402    9.4216    9.7659  C     
20   C        -6.5908    8.3792   10.5973  C     
21   C        -6.8426   11.7135    8.8914  C     
22   O        -7.5579   11.4478    7.9303  O     
23   C        -6.5388   13.1213    9.0949  C     
24   H        -7.6379    3.5214   16.3588  H     
25   H        -7.1199    5.4247   15.0058  H     
26   H        -3.2644    3.8690   14.2867  H     
27   H        -3.7795    1.9570   15.6499  H     
28   H        -7.8674    1.1442   18.5968  H     
29   H        -8.4726    1.2737   17.0344  H     
30   H        -3.8448    6.0403   13.6380  H     
31   H        -4.0143    7.7239   12.5147  H     
32   H        -3.9509    9.9445   11.9582  H     
33   H        -4.7076   11.7042   10.5702  H     
34   H        -7.8719    9.2498    9.1934  H     
35   H        -7.0874    7.4884   10.5692  H     
36   H        -6.8768   13.4302   10.0887  H     
37   H        -7.0362   13.7573    8.3566  H     
38   H        -5.4627   13.2946    9.0111  H     
@<TRIPOS>BOND
     1    1    2 2
     2    1    6 1
     3    2    3 1
     4    3    4 2
     5    3   11 1
     6    4    5 1
     7    5    6 2
     8    6    7 1
     9    7    8 am
    10    7    9 2
    11    7   10 2
    12   11   12 am
    13   12   13 am
    14   12   14 2
    15   13   15 1
    16   15   16 2
    17   15   20 1
    18   16   17 1
    19   17   18 2
    20   18   19 1
    21   18   21 1
    22   19   20 2
    23   21   22 2
    24   21   23 1
    25    1   24 1
    26    2   25 1
    27    4   26 1
    28    5   27 1
    29    8   28 1
    30    8   29 1
    31   11   30 1
    32   13   31 1
    33   16   32 1
    34   17   33 1
    35   19   34 1
    36   20   35 1
    37   23   36 1
    38   23   37 1
    39   23   38 1
@<TRIPOS>PROPERTY_DATA
  Total_Score	| 6.0815
  Crash		| -1.0061
  Polar		| 3.6847
  FragIndex	| 1
  FragRMSD	| 0.906

