@<TRIPOS>MOLECULE
BindingDB_50334361
 42 43 0 0 0
SMALL
NO_CHARGES


@<TRIPOS>ATOM
1    C        -5.8374    2.7316   15.9633  C     
2    N        -7.6629    1.5370   17.8174  N     
3    O        -6.2459    0.0061   16.2411  O     
4    S        -6.1922    1.3948   17.0159  S     
5    C        -6.6700    3.8692   15.9069  C     
6    O        -5.0451    1.3062   18.1097  O     
7    C        -6.4219    4.8869   14.9642  C     
8    C        -5.3560    4.7749   14.0476  C     
9    C        -4.4762    3.6703   14.1701  C     
10   C        -4.7174    2.6528   15.1129  C     
11   N        -5.2580    5.7201   13.0571  N     
12   C        -4.9534    5.4937   11.7819  C     
13   O        -4.7467    4.3592   11.3713  O     
14   N        -4.9796    6.3923   10.8099  N     
15   C        -5.2677    7.7250   10.8462  C     
16   C        -6.2676    8.2630    9.9786  C     
17   C        -6.4209    9.6758    9.9330  C     
18   C        -5.6142   10.5260   10.7009  C     
19   C        -4.6161    9.9891   11.5225  C     
20   C        -4.4473    8.5929   11.6050  C     
21   C        -7.1339    7.3844    9.1080  C     
22   C        -8.6147    7.8601    9.0383  C     
23   C        -6.5167    7.2071    7.6941  C     
24   H        -7.7633    1.1756   18.7109  H     
25   H        -8.4181    1.9593   17.3629  H     
26   H        -7.4734    3.9559   16.5336  H     
27   H        -7.0632    5.6832   14.9148  H     
28   H        -3.6573    3.5916   13.5668  H     
29   H        -4.0914    1.8460   15.1528  H     
30   H        -5.5774    6.6074   13.2771  H     
31   H        -4.8587    6.0311    9.9174  H     
32   H        -7.1196   10.1109    9.3264  H     
33   H        -5.7452   11.5361   10.6514  H     
34   H        -4.0036   10.6114   12.0575  H     
35   H        -3.6894    8.2264   12.1843  H     
36   H        -7.1968    6.3789    9.5315  H     
37   H        -8.9878    8.0478   10.0497  H     
38   H        -9.2331    7.0889    8.5820  H     
39   H        -8.7151    8.7802    8.4534  H     
40   H        -6.4841    8.1600    7.1594  H     
41   H        -7.1087    6.4997    7.1089  H     
42   H        -5.4970    6.8157    7.7782  H     
@<TRIPOS>BOND
     1    1    4 1
     2    1    5 2
     3    1   10 1
     4    2    4 am
     5    3    4 2
     6    4    6 2
     7    5    7 1
     8    7    8 2
     9    8    9 1
    10    8   11 1
    11    9   10 2
    12   11   12 am
    13   12   13 2
    14   12   14 am
    15   14   15 1
    16   15   16 1
    17   15   20 2
    18   16   17 2
    19   16   21 1
    20   17   18 1
    21   18   19 2
    22   19   20 1
    23   21   22 1
    24   21   23 1
    25    2   24 1
    26    2   25 1
    27    5   26 1
    28    7   27 1
    29    9   28 1
    30   10   29 1
    31   11   30 1
    32   14   31 1
    33   17   32 1
    34   18   33 1
    35   19   34 1
    36   20   35 1
    37   21   36 1
    38   22   37 1
    39   22   38 1
    40   22   39 1
    41   23   40 1
    42   23   41 1
    43   23   42 1
@<TRIPOS>PROPERTY_DATA
  Total_Score	| 5.4643
  Crash		| -2.0713
  Polar		| 3.4556
  FragIndex	| 1
  FragRMSD	| 1.425

