@<TRIPOS>MOLECULE
BindingDB_16654
 33 34 0 0 0
SMALL
NO_CHARGES


@<TRIPOS>ATOM
1    C        -5.7513    2.6347   15.9921  C     
2    C        -6.7564    3.5801   15.7043  C     
3    C        -6.5407    4.5674   14.7194  C     
4    C        -5.3234    4.6288   13.9983  C     
5    C        -4.3048    3.7046   14.3508  C     
6    C        -4.5214    2.7081   15.3162  C     
7    S        -5.9641    1.3992   17.2024  S     
8    O        -6.6538    0.1354   16.5333  O     
9    O        -4.5788    0.8494   17.7548  O     
10   N        -6.9182    1.7931   18.5253  N     
11   N        -5.1770    5.6200   13.0525  N     
12   O        -3.5984    4.7356   11.7442  O     
13   C        -4.3274    5.6730   12.0292  C     
14   N        -4.2004    6.7129   11.2132  N     
15   C        -4.9828    7.8229   11.1593  C     
16   C        -6.3039    7.7330   10.6695  C     
17   C        -4.4316    9.1024   11.4141  C     
18   C        -5.2060   10.2629   11.2204  C     
19   C        -6.5207   10.1663   10.7420  C     
20   C        -7.0694    8.8993   10.4503  C     
21   H        -7.6493    3.5460   16.2022  H     
22   H        -7.2877    5.2404   14.5235  H     
23   H        -3.3799    3.7537   13.9301  H     
24   H        -3.7662    2.0474   15.5144  H     
25   H        -7.6741    1.2340   18.7549  H     
26   H        -6.6624    2.5403   19.0998  H     
27   H        -5.7786    6.3754   13.1209  H     
28   H        -3.4787    6.6715   10.5699  H     
29   H        -6.7048    6.8247   10.4287  H     
30   H        -3.4669    9.1798   11.7338  H     
31   H        -4.7996   11.1785   11.4270  H     
32   H        -7.0662   11.0134   10.5850  H     
33   H        -8.0095    8.8313   10.0778  H     
@<TRIPOS>BOND
     1    1    2 1
     2    1    6 2
     3    1    7 1
     4    2    3 2
     5    3    4 1
     6    4    5 2
     7    4   11 1
     8    5    6 1
     9    7    8 2
    10    7    9 2
    11    7   10 am
    12   11   13 am
    13   12   13 2
    14   13   14 am
    15   14   15 1
    16   15   16 1
    17   15   17 2
    18   16   20 2
    19   17   18 1
    20   18   19 2
    21   19   20 1
    22    2   21 1
    23    3   22 1
    24    5   23 1
    25    6   24 1
    26   10   25 1
    27   10   26 1
    28   11   27 1
    29   14   28 1
    30   16   29 1
    31   17   30 1
    32   18   31 1
    33   19   32 1
    34   20   33 1
@<TRIPOS>PROPERTY_DATA
  Total_Score	| 4.8901
  Crash		| -1.6225
  Polar		| 3.5140
  FragIndex	| 1
  FragRMSD	| 1.420

