@<TRIPOS>MOLECULE
BindingDB_50334357
 36 37 0 0 0
SMALL
NO_CHARGES


@<TRIPOS>ATOM
1    S        -5.9489    1.3096   17.1615  S     
2    F        -8.4241   10.8517    8.3179  F     
3    F        -7.9779    8.9886    7.2055  F     
4    F        -9.5861    9.0172    8.7433  F     
5    O        -4.5652    0.7901   17.7466  O     
6    O        -6.5897    0.0266   16.4778  O     
7    O        -3.2879    6.6018   13.6494  O     
8    N        -5.3886    5.9159   13.4233  N     
9    N        -4.4461    7.7175   12.2514  N     
10   N        -6.9254    1.6405   18.4842  N     
11   C        -5.7469    2.6287   16.0474  C     
12   C        -7.3382    9.0392    9.4660  C     
13   C        -8.3235    9.4828    8.4426  C     
14   C        -5.4345    4.8339   14.2670  C     
15   C        -5.4414    8.0948   11.4012  C     
16   C        -6.8563    3.4355   15.6996  C     
17   C        -4.4872    2.9094   15.4770  C     
18   C        -7.1624    7.6524    9.7103  C     
19   C        -6.5368    9.9423   10.2061  C     
20   C        -6.6978    4.5195   14.8144  C     
21   C        -4.3272    4.0002   14.6009  C     
22   C        -4.3674    6.6976   13.0925  C     
23   C        -6.2367    7.1900   10.6636  C     
24   C        -5.6011    9.4777   11.1480  C     
25   H        -6.2454    6.2310   13.0976  H     
26   H        -3.6697    8.2977   12.2484  H     
27   H        -7.8640    1.3793   18.4659  H     
28   H        -6.5285    2.0027   19.2986  H     
29   H        -7.7761    3.2439   16.1027  H     
30   H        -3.6719    2.3318   15.7009  H     
31   H        -7.7135    6.9668    9.1876  H     
32   H        -6.6191   10.9488   10.0577  H     
33   H        -7.5126    5.0946   14.5732  H     
34   H        -3.3982    4.1694   14.2011  H     
35   H        -6.1107    6.1835   10.7742  H     
36   H        -5.0170   10.1594   11.6361  H     
@<TRIPOS>BOND
     1    1    5 2
     2    1    6 2
     3    1   10 am
     4    1   11 1
     5    2   13 1
     6    3   13 1
     7    4   13 1
     8    7   22 2
     9    8   14 1
    10    8   22 am
    11    9   15 1
    12    9   22 am
    13   11   16 2
    14   11   17 1
    15   12   13 1
    16   12   18 2
    17   12   19 1
    18   14   20 2
    19   14   21 1
    20   15   23 2
    21   15   24 1
    22   16   20 1
    23   17   21 2
    24   18   23 1
    25   19   24 2
    26    8   25 1
    27    9   26 1
    28   10   27 1
    29   10   28 1
    30   16   29 1
    31   17   30 1
    32   18   31 1
    33   19   32 1
    34   20   33 1
    35   21   34 1
    36   23   35 1
    37   24   36 1
@<TRIPOS>PROPERTY_DATA
  Total_Score	| 5.7702
  Crash		| -1.8568
  Polar		| 3.5715
  FragIndex	| 1
  FragRMSD	| 1.449

