@<TRIPOS>MOLECULE
BindingDB_24848
 43 47 0 0 0
SMALL
NO_CHARGES


@<TRIPOS>ATOM
1    C         3.8233    4.2714   17.1489  C     
2    C         2.8589    6.1488   15.9589  C     
3    C         2.7502    3.4806   16.6428  C     
4    C         1.7796    4.0882   15.8290  C     
5    C         2.3289    2.1464   16.7421  C     
6    C         1.1682    2.0050   15.9938  C     
7    N         3.8048    5.5774   16.7470  N     
8    N         1.8288    5.4010   15.5002  N     
9    N         0.8493    3.1965   15.4654  N     
10   C         5.0157    2.4811   18.3810  C     
11   N         4.8570    3.8458   17.9658  N     
12   C         6.3413    2.3255   19.2021  C     
13   C         5.9372    0.2107   20.6905  C     
14   C         6.1716    1.7470   20.6564  C     
15   C         7.3809    1.4305   18.4561  C     
16   C         6.9724   -0.0662   18.4600  C     
17   N         6.8934   -0.5506   19.8534  N     
18   C         6.7763    3.7413   19.2043  C     
19   C         8.2542    5.6255   19.6931  C     
20   C         7.3779    6.4797   19.0060  C     
21   C         6.2074    5.9627   18.4157  C     
22   C         5.8986    4.5761   18.4896  C     
23   C         7.9551    4.2541   19.7947  C     
24   F         9.3374    6.1038   20.2410  F     
25   H         2.9192    7.1434   15.7308  H     
26   H         2.7637    1.3798   17.2522  H     
27   H         0.6319    1.1451   15.8713  H     
28   H         0.0703    3.3816   14.9155  H     
29   H         4.1558    2.1964   18.9884  H     
30   H         5.0399    1.8516   17.4877  H     
31   H         6.0166   -0.1529   21.7196  H     
32   H         4.9304   -0.0079   20.3400  H     
33   H         7.0692    1.9505   21.2429  H     
34   H         5.3400    2.2381   21.1686  H     
35   H         7.5129    1.7684   17.4276  H     
36   H         8.3457    1.5152   18.9569  H     
37   H         6.0142   -0.2345   17.9548  H     
38   H         7.7214   -0.6490   17.9198  H     
39   H         7.8213   -0.4864   20.2740  H     
40   H         6.6092   -1.5328   19.8327  H     
41   H         7.5847    7.4778   18.9359  H     
42   H         5.5968    6.6243   17.9420  H     
43   H         8.5926    3.6310   20.2966  H     
@<TRIPOS>BOND
     1    1    3 1
     2    1    7 2
     3    1   11 1
     4    2    7 1
     5    2    8 2
     6    3    4 2
     7    3    5 1
     8    4    8 1
     9    4    9 1
    10    5    6 2
    11    6    9 1
    12   10   11 1
    13   10   12 1
    14   11   22 1
    15   12   14 1
    16   12   15 1
    17   12   18 1
    18   13   14 1
    19   13   17 1
    20   15   16 1
    21   16   17 1
    22   18   22 2
    23   18   23 1
    24   19   20 1
    25   19   23 2
    26   19   24 1
    27   20   21 2
    28   21   22 1
    29    2   25 1
    30    5   26 1
    31    6   27 1
    32    9   28 1
    33   10   29 1
    34   10   30 1
    35   13   31 1
    36   13   32 1
    37   14   33 1
    38   14   34 1
    39   15   35 1
    40   15   36 1
    41   16   37 1
    42   16   38 1
    43   17   39 1
    44   17   40 1
    45   20   41 1
    46   21   42 1
    47   23   43 1
@<TRIPOS>PROPERTY_DATA
  Total_Score	| 3.0366
  Crash		| -6.2948
  Polar		| 2.0906
  FragIndex	| 1
  FragRMSD	| 0.481

