@<TRIPOS>MOLECULE
BindingDB_24849
 46 50 0 0 0
SMALL
NO_CHARGES


@<TRIPOS>ATOM
1    C         3.8469    4.1610   17.2959  C     
2    C         2.7155    6.0490   16.2572  C     
3    C         2.7936    3.3372   16.7695  C     
4    C         1.7710    3.9370   16.0076  C     
5    C         2.4582    1.9823   16.7933  C     
6    C         1.2911    1.8195   16.0440  C     
7    N         3.7161    5.4841   16.9853  N     
8    N         1.7246    5.2659   15.7600  N     
9    N         0.8947    3.0153   15.5863  N     
10   C         5.1037    2.4326   18.5854  C     
11   N         4.9444    3.7598   18.0441  N     
12   C         6.4534    2.3367   19.3905  C     
13   C         5.9040    0.7363   21.4098  C     
14   C         6.3215    2.1614   20.9505  C     
15   C         7.3598    1.1626   18.8777  C     
16   C         6.8412   -0.2324   19.3337  C     
17   N         6.7167   -0.3729   20.8207  N     
18   C         6.9819    3.6857   19.0863  C     
19   C         8.5694    5.5381   19.2141  C     
20   C         7.6735    6.3444   18.4961  C     
21   C         6.4447    5.8191   18.0634  C     
22   C         6.0756    4.4834   18.3614  C     
23   C         8.2338    4.2038   19.4999  C     
24   C         8.0035   -0.6118   21.5330  C     
25   H         2.7035    7.0579   16.0804  H     
26   H         2.9511    1.2215   17.2573  H     
27   H         0.7993    0.9353   15.8853  H     
28   H         0.1034    3.1860   15.0481  H     
29   H         4.2631    2.2149   19.2424  H     
30   H         5.0866    1.7122   17.7606  H     
31   H         5.9513    0.6964   22.5040  H     
32   H         4.8639    0.5708   21.1411  H     
33   H         7.2803    2.3834   21.4284  H     
34   H         5.5975    2.8701   21.3445  H     
35   H         7.4345    1.1764   17.7875  H     
36   H         8.3659    1.2896   19.2753  H     
37   H         5.8534   -0.4090   18.8957  H     
38   H         7.4938   -1.0129   18.9368  H     
39   H         6.1963   -1.2400   20.9783  H     
40   H         9.4693    5.9206   19.5192  H     
41   H         7.9172    7.3182   18.2889  H     
42   H         5.8458    6.4460   17.5309  H     
43   H         8.8902    3.6283   20.0248  H     
44   H         8.5058   -1.4813   21.1082  H     
45   H         7.8141   -0.8351   22.5856  H     
46   H         8.6653    0.2525   21.4785  H     
@<TRIPOS>BOND
     1    1    3 1
     2    1    7 2
     3    1   11 1
     4    2    7 1
     5    2    8 2
     6    3    4 2
     7    3    5 1
     8    4    8 1
     9    4    9 1
    10    5    6 2
    11    6    9 1
    12   10   11 1
    13   10   12 1
    14   11   22 1
    15   12   14 1
    16   12   15 1
    17   12   18 1
    18   13   14 1
    19   13   17 1
    20   15   16 1
    21   16   17 1
    22   17   24 1
    23   18   22 2
    24   18   23 1
    25   19   20 1
    26   19   23 2
    27   20   21 2
    28   21   22 1
    29    2   25 1
    30    5   26 1
    31    6   27 1
    32    9   28 1
    33   10   29 1
    34   10   30 1
    35   13   31 1
    36   13   32 1
    37   14   33 1
    38   14   34 1
    39   15   35 1
    40   15   36 1
    41   16   37 1
    42   16   38 1
    43   17   39 1
    44   19   40 1
    45   20   41 1
    46   21   42 1
    47   23   43 1
    48   24   44 1
    49   24   45 1
    50   24   46 1
@<TRIPOS>PROPERTY_DATA
  Total_Score	| 4.0332
  Crash		| -5.7548
  Polar		| 2.5757
  FragIndex	| 1
  FragRMSD	| 0.487

