@<TRIPOS>MOLECULE
BindingDB_24847
 43 47 0 0 0
SMALL
NO_CHARGES


@<TRIPOS>ATOM
1    C         3.8657    4.2309   17.3579  C     
2    C         2.7465    6.1069   16.2900  C     
3    C         2.8245    3.3982   16.8149  C     
4    C         1.8147    3.9902   16.0330  C     
5    C         2.4904    2.0415   16.8400  C     
6    C         1.3407    1.8684   16.0712  C     
7    N         3.7348    5.5498   17.0393  N     
8    N         1.7687    5.3171   15.7786  N     
9    N         0.9472    3.0612   15.6016  N     
10   C         5.1493    2.4937   18.5994  C     
11   N         4.9595    3.8306   18.1138  N     
12   C         6.5041    2.3957   19.3936  C     
13   C         6.0425    0.6881   21.3510  C     
14   C         6.3852    2.1498   20.9467  C     
15   C         7.4264    1.2688   18.8195  C     
16   C         6.9088   -0.1508   19.1919  C     
17   N         6.8937   -0.3069   20.6622  N     
18   C         7.0049    3.7654   19.1407  C     
19   C         8.5645    5.6414   19.3234  C     
20   C         7.6361    6.4575   18.6524  C     
21   C         6.4052    5.9259   18.2254  C     
22   C         6.0727    4.5710   18.4619  C     
23   C         8.2497    4.2888   19.5616  C     
24   Cl       10.0385    6.2892   19.8483  Cl    
25   H         2.7328    7.1158   16.1088  H     
26   H         2.9706    1.2800   17.3185  H     
27   H         0.8566    0.9859   15.9053  H     
28   H         0.1643    3.2302   15.0493  H     
29   H         4.3168    2.2207   19.2508  H     
30   H         5.1553    1.8150   17.7420  H     
31   H         6.1896    0.5709   22.4272  H     
32   H         4.9967    0.4778   21.1346  H     
33   H         7.3405    2.3889   21.4257  H     
34   H         5.6377    2.8082   21.3812  H     
35   H         7.5186    1.3450   17.7359  H     
36   H         8.4243    1.3776   19.2441  H     
37   H         5.9077   -0.3217   18.7883  H     
38   H         7.5679   -0.9108   18.7689  H     
39   H         7.8534   -0.2025   21.0007  H     
40   H         6.5739   -1.2522   20.9040  H     
41   H         7.8525    7.4427   18.4745  H     
42   H         5.7779    6.5645   17.7498  H     
43   H         8.9223    3.6996   20.0565  H     
@<TRIPOS>BOND
     1    1    3 1
     2    1    7 2
     3    1   11 1
     4    2    7 1
     5    2    8 2
     6    3    4 2
     7    3    5 1
     8    4    8 1
     9    4    9 1
    10    5    6 2
    11    6    9 1
    12   10   11 1
    13   10   12 1
    14   11   22 1
    15   12   14 1
    16   12   15 1
    17   12   18 1
    18   13   14 1
    19   13   17 1
    20   15   16 1
    21   16   17 1
    22   18   22 2
    23   18   23 1
    24   19   20 1
    25   19   23 2
    26   19   24 1
    27   20   21 2
    28   21   22 1
    29    2   25 1
    30    5   26 1
    31    6   27 1
    32    9   28 1
    33   10   29 1
    34   10   30 1
    35   13   31 1
    36   13   32 1
    37   14   33 1
    38   14   34 1
    39   15   35 1
    40   15   36 1
    41   16   37 1
    42   16   38 1
    43   17   39 1
    44   17   40 1
    45   20   41 1
    46   21   42 1
    47   23   43 1
@<TRIPOS>PROPERTY_DATA
  Total_Score	| 4.4142
  Crash		| -4.9348
  Polar		| 2.9248
  FragIndex	| 1
  FragRMSD	| 0.487

