@<TRIPOS>MOLECULE
BindingDB_24840
 32 35 0 0 0
SMALL
NO_CHARGES


@<TRIPOS>ATOM
1    C         7.6494    4.7952   19.8726  C     
2    C         8.0543    6.0580   19.4112  C     
3    C         7.4123    6.6384   18.3006  C     
4    C         6.3619    5.9613   17.6552  C     
5    C         5.8945    4.7011   18.1260  C     
6    C         6.5959    4.0941   19.2260  C     
7    C         6.3574    2.7717   19.6794  C     
8    C         6.2555    0.9945   20.9039  C     
9    N         6.4694    2.3145   20.9455  N     
10   N         6.1140    1.6940   18.8998  N     
11   N         6.0274    0.6262   19.6345  N     
12   N         4.8111    4.0573   17.5689  N     
13   C         3.7324    4.5169   16.8665  C     
14   C         2.4276    6.2967   15.9492  C     
15   C         2.7561    3.6063   16.3894  C     
16   C         2.5846    2.2154   16.4024  C     
17   C         1.6294    4.1117   15.7144  C     
18   C         1.3688    1.9365   15.7919  C     
19   N         0.8198    3.1005   15.3867  N     
20   N         3.5373    5.8538   16.6276  N     
21   N         1.4745    5.4433   15.4979  N     
22   Cl        3.6316    1.0108   16.9599  Cl    
23   H         8.1705    4.3756   20.6521  H     
24   H         8.8308    6.5525   19.8688  H     
25   H         7.7250    7.5561   17.9513  H     
26   H         5.9388    6.4139   16.8412  H     
27   H         6.2673    0.3723   21.7041  H     
28   H         6.6397    2.8465   21.7470  H     
29   H         4.7890    3.1018   17.7338  H     
30   H         2.2953    7.2887   15.7946  H     
31   H         0.9329    1.0228   15.6393  H     
32   H        -0.0388    3.1922   14.9398  H     
@<TRIPOS>BOND
     1    1    2 1
     2    1    6 2
     3    2    3 2
     4    3    4 1
     5    4    5 2
     6    5    6 1
     7    5   12 1
     8    6    7 1
     9    7    9 1
    10    7   10 2
    11    8    9 1
    12    8   11 2
    13   10   11 1
    14   12   13 1
    15   13   15 1
    16   13   20 2
    17   14   20 1
    18   14   21 2
    19   15   16 1
    20   15   17 2
    21   16   18 2
    22   16   22 1
    23   17   19 1
    24   17   21 1
    25   18   19 1
    26    1   23 1
    27    2   24 1
    28    3   25 1
    29    4   26 1
    30    8   27 1
    31    9   28 1
    32   12   29 1
    33   14   30 1
    34   18   31 1
    35   19   32 1
@<TRIPOS>PROPERTY_DATA
  Total_Score	| 7.5859
  Crash		| -0.5442
  Polar		| 2.8781
  FragIndex	| 1
  FragRMSD	| 0.306

