@<TRIPOS>MOLECULE
BindingDB_24841
 35 38 0 0 0
SMALL
NO_CHARGES


@<TRIPOS>ATOM
1    C         7.8182    4.6622   19.7576  C     
2    C         8.1770    5.9840   19.4435  C     
3    C         7.4286    6.7023   18.4955  C     
4    C         6.3142    6.1034   17.8861  C     
5    C         5.9167    4.7765   18.2008  C     
6    C         6.7012    4.0460   19.1426  C     
7    C         6.4337    2.7004   19.4730  C     
8    C         6.2058    0.8425   20.5406  C     
9    N         6.4615    2.1449   20.6942  N     
10   N         6.1784    1.7148   18.5884  N     
11   N         6.0459    0.5945   19.2261  N     
12   N         4.7936    4.1649   17.6736  N     
13   C         3.7670    4.6102   16.9038  C     
14   C         2.5683    6.3108   15.7038  C     
15   C         2.7548    3.6983   16.5345  C     
16   C         2.5289    2.3452   16.7839  C     
17   C         1.6832    4.1393   15.7529  C     
18   C         1.3415    2.0090   16.1336  C     
19   N         0.8529    3.1084   15.5246  N     
20   N         3.6188    5.8932   16.4634  N     
21   N         1.5916    5.4324   15.3616  N     
22   C         6.1363   -0.1601   21.6096  C     
23   H         8.3995    4.1511   20.4327  H     
24   H         8.9888    6.4236   19.8851  H     
25   H         7.6946    7.6576   18.2559  H     
26   H         5.8125    6.6612   17.1983  H     
27   H         6.6008    2.6047   21.5431  H     
28   H         4.6975    3.2349   17.9276  H     
29   H         2.5113    7.2811   15.4117  H     
30   H         3.1089    1.7124   17.3389  H     
31   H         0.8956    1.0894   16.1346  H     
32   H         0.0253    3.1551   15.0136  H     
33   H         7.0192   -0.0838   22.2497  H     
34   H         6.0948   -1.1645   21.1829  H     
35   H         5.2349    0.0086   22.2006  H     
@<TRIPOS>BOND
     1    1    2 1
     2    1    6 2
     3    2    3 2
     4    3    4 1
     5    4    5 2
     6    5    6 1
     7    5   12 1
     8    6    7 1
     9    7    9 1
    10    7   10 2
    11    8    9 1
    12    8   11 2
    13    8   22 1
    14   10   11 1
    15   12   13 1
    16   13   15 1
    17   13   20 2
    18   14   20 1
    19   14   21 2
    20   15   16 1
    21   15   17 2
    22   16   18 2
    23   17   19 1
    24   17   21 1
    25   18   19 1
    26    1   23 1
    27    2   24 1
    28    3   25 1
    29    4   26 1
    30    9   27 1
    31   12   28 1
    32   14   29 1
    33   16   30 1
    34   18   31 1
    35   19   32 1
    36   22   33 1
    37   22   34 1
    38   22   35 1
@<TRIPOS>PROPERTY_DATA
  Total_Score	| 8.0304
  Crash		| -0.7939
  Polar		| 2.6083
  FragIndex	| 1
  FragRMSD	| 0.374

