@<TRIPOS>MOLECULE
BindingDB_24843
 35 38 0 0 0
SMALL
NO_CHARGES


@<TRIPOS>ATOM
1    C         7.6012    4.5542   20.0992  C     
2    C         8.0271    5.8537   19.7940  C     
3    C         7.4395    6.5456   18.7286  C     
4    C         6.4012    5.9489   17.9892  C     
5    C         5.9322    4.6455   18.2961  C     
6    C         6.5828    3.9270   19.3433  C     
7    C         6.3148    2.5676   19.6324  C     
8    C         6.1464    0.6773   20.6471  C     
9    N         6.2984    1.9901   20.8433  N     
10   N         6.1722    1.5912   18.7125  N     
11   N         6.0698    0.4521   19.3217  N     
12   N         4.8701    4.0481   17.6539  N     
13   C         3.8263    4.5716   16.9599  C     
14   C         2.5788    6.3962   16.0251  C     
15   C         2.8193    3.6988   16.4940  C     
16   C         2.6158    2.3250   16.5687  C     
17   C         1.7256    4.2246   15.8042  C     
18   C         1.4108    2.0632   15.9210  C     
19   N         0.8975    3.2215   15.4690  N     
20   N         3.6501    5.9021   16.7071  N     
21   N         1.6103    5.5544   15.5748  N     
22   C         6.1244   -0.3421   21.6974  C     
23   Cl        8.0015    8.0932   18.3526  Cl    
24   H         8.0777    4.0592   20.8583  H     
25   H         8.7891    6.2727   20.3313  H     
26   H         6.0181    6.4704   17.2039  H     
27   H         6.4018    2.4331   21.7057  H     
28   H         4.8040    3.0914   17.7865  H     
29   H         2.5000    7.3983   15.8540  H     
30   H         3.2206    1.6353   17.0197  H     
31   H         0.9799    1.1432   15.8174  H     
32   H         0.0593    3.3208   14.9873  H     
33   H         6.9818   -0.2069   22.3624  H     
34   H         6.1823   -1.3363   21.2573  H     
35   H         5.1972   -0.2544   22.2691  H     
@<TRIPOS>BOND
     1    1    2 1
     2    1    6 2
     3    2    3 2
     4    3    4 1
     5    3   23 1
     6    4    5 2
     7    5    6 1
     8    5   12 1
     9    6    7 1
    10    7    9 1
    11    7   10 2
    12    8    9 1
    13    8   11 2
    14    8   22 1
    15   10   11 1
    16   12   13 1
    17   13   15 1
    18   13   20 2
    19   14   20 1
    20   14   21 2
    21   15   16 1
    22   15   17 2
    23   16   18 2
    24   17   19 1
    25   17   21 1
    26   18   19 1
    27    1   24 1
    28    2   25 1
    29    4   26 1
    30    9   27 1
    31   12   28 1
    32   14   29 1
    33   16   30 1
    34   18   31 1
    35   19   32 1
    36   22   33 1
    37   22   34 1
    38   22   35 1
@<TRIPOS>PROPERTY_DATA
  Total_Score	| 6.1834
  Crash		| -3.0798
  Polar		| 2.9753
  FragIndex	| 1
  FragRMSD	| 0.483

