@<TRIPOS>MOLECULE
BindingDB_24837
 32 35 0 0 0
SMALL
NO_CHARGES


@<TRIPOS>ATOM
1    C         7.7501    4.5613   19.9595  C     
2    C         8.1318    5.8749   19.6571  C     
3    C         7.4007    6.6170   18.7144  C     
4    C         6.2859    6.0432   18.0833  C     
5    C         5.8679    4.7153   18.3746  C     
6    C         6.6342    3.9646   19.3191  C     
7    C         6.3493    2.6200   19.6466  C     
8    C         6.0310    0.7790   20.7232  C     
9    N         6.3401    2.0731   20.8723  N     
10   N         6.0674    1.6427   18.7576  N     
11   N         5.8726    0.5317   19.4131  N     
12   N         4.7467    4.1193   17.8285  N     
13   C         3.7633    4.5615   16.9994  C     
14   C         2.6717    6.2594   15.6994  C     
15   C         2.7422    3.6663   16.6100  C     
16   C         2.4713    2.3250   16.8633  C     
17   C         1.7182    4.1199   15.7766  C     
18   C         1.3048    2.0127   16.1668  C     
19   N         0.8650    3.1141   15.5329  N     
20   N         3.6781    5.8331   16.5121  N     
21   N         1.6706    5.4076   15.3524  N     
22   H         8.3160    4.0290   20.6300  H     
23   H         8.9453    6.2875   20.1164  H     
24   H         7.6821    7.5755   18.4978  H     
25   H         5.7944    6.6197   17.4081  H     
26   H         5.9138    0.0971   21.4745  H     
27   H         6.4666    2.5304   21.7225  H     
28   H         4.6133    3.2046   18.1118  H     
29   H         2.6682    7.2200   15.3603  H     
30   H         3.0167    1.6843   17.4456  H     
31   H         0.8402    1.1017   16.1544  H     
32   H         0.0654    3.1761   14.9833  H     
@<TRIPOS>BOND
     1    1    2 1
     2    1    6 2
     3    2    3 2
     4    3    4 1
     5    4    5 2
     6    5    6 1
     7    5   12 1
     8    6    7 1
     9    7    9 1
    10    7   10 2
    11    8    9 1
    12    8   11 2
    13   10   11 1
    14   12   13 1
    15   13   15 1
    16   13   20 2
    17   14   20 1
    18   14   21 2
    19   15   16 1
    20   15   17 2
    21   16   18 2
    22   17   19 1
    23   17   21 1
    24   18   19 1
    25    1   22 1
    26    2   23 1
    27    3   24 1
    28    4   25 1
    29    8   26 1
    30    9   27 1
    31   12   28 1
    32   14   29 1
    33   16   30 1
    34   18   31 1
    35   19   32 1
@<TRIPOS>PROPERTY_DATA
  Total_Score	| 7.5480
  Crash		| -0.5295
  Polar		| 2.8467
  FragIndex	| 1
  FragRMSD	| 0.405

