@<TRIPOS>MOLECULE
BindingDB_24850
 47 51 0 0 0
SMALL
NO_CHARGES


@<TRIPOS>ATOM
1    C         3.8792    4.2594   17.1229  C     
2    C         2.8430    6.1096   15.9307  C     
3    C         2.8014    3.4519   16.6617  C     
4    C         1.8001    4.0284   15.8587  C     
5    C         2.4042    2.1115   16.7917  C     
6    C         1.2396    1.9351   16.0569  C     
7    N         3.8219    5.5640   16.7023  N     
8    N         1.8211    5.3348   15.5015  N     
9    N         0.8886    3.1113   15.5145  N     
10   C         5.0657    2.5425   18.4832  C     
11   N         4.9451    3.8649   17.9227  N     
12   C         6.3888    2.4374   19.3215  C     
13   C         5.8731    0.6326   21.1561  C     
14   C         6.2074    2.1181   20.8544  C     
15   C         7.3735    1.3604   18.7469  C     
16   C         6.8874   -0.0839   19.0612  C     
17   N         6.8098   -0.2649   20.5039  N     
18   C         6.8855    3.8171   19.1328  C     
19   C         8.3943    5.7034   19.4668  C     
20   C         7.5577    6.5027   18.6729  C     
21   C         6.3953    5.9581   18.0971  C     
22   C         6.0317    4.6047   18.3360  C     
23   C         8.0671    4.3518   19.6860  C     
24   F         9.4763    6.2070   19.9993  F     
25   C         7.5557   -1.1782   21.1578  C     
26   C         7.5684   -1.3681   22.5977  C     
27   O         8.2776   -1.9508   20.5363  O     
28   H         2.8859    7.0961   15.6655  H     
29   H         2.8623    1.3712   17.3148  H     
30   H         0.7235    1.0602   15.9528  H     
31   H         0.1011    3.2698   14.9711  H     
32   H         4.2000    2.3427   19.1162  H     
33   H         5.0827    1.8266   17.6592  H     
34   H         5.8325    0.5159   22.2414  H     
35   H         4.8691    0.4112   20.7904  H     
36   H         7.1395    2.3344   21.3873  H     
37   H         5.4300    2.7412   21.2939  H     
38   H         7.4934    1.4756   17.6665  H     
39   H         8.3567    1.4853   19.2038  H     
40   H         5.8907   -0.2475   18.6334  H     
41   H         7.5501   -0.7910   18.5559  H     
42   H         7.7935    7.4861   18.5115  H     
43   H         5.8372    6.5751   17.5125  H     
44   H         8.6835    3.7716   20.2568  H     
45   H         7.8673   -0.4395   23.0888  H     
46   H         8.2667   -2.1469   22.9139  H     
47   H         6.5731   -1.6683   22.9255  H     
@<TRIPOS>BOND
     1    1    3 1
     2    1    7 2
     3    1   11 1
     4    2    7 1
     5    2    8 2
     6    3    4 2
     7    3    5 1
     8    4    8 1
     9    4    9 1
    10    5    6 2
    11    6    9 1
    12   10   11 1
    13   10   12 1
    14   11   22 1
    15   12   14 1
    16   12   15 1
    17   12   18 1
    18   13   14 1
    19   13   17 1
    20   15   16 1
    21   16   17 1
    22   17   25 am
    23   18   22 2
    24   18   23 1
    25   19   20 1
    26   19   23 2
    27   19   24 1
    28   20   21 2
    29   21   22 1
    30   25   26 1
    31   25   27 2
    32    2   28 1
    33    5   29 1
    34    6   30 1
    35    9   31 1
    36   10   32 1
    37   10   33 1
    38   13   34 1
    39   13   35 1
    40   14   36 1
    41   14   37 1
    42   15   38 1
    43   15   39 1
    44   16   40 1
    45   16   41 1
    46   20   42 1
    47   21   43 1
    48   23   44 1
    49   26   45 1
    50   26   46 1
    51   26   47 1
@<TRIPOS>PROPERTY_DATA
  Total_Score	| 0.3896
  Crash		| -8.2079
  Polar		| 1.9994
  FragIndex	| 1
  FragRMSD	| 0.403

