@<TRIPOS>MOLECULE
BindingDB_24842
 35 38 0 0 0
SMALL
NO_CHARGES


@<TRIPOS>ATOM
1    C         7.8878    4.6765   19.5203  C     
2    C         8.2832    5.9627   19.1221  C     
3    C         7.5586    6.6355   18.1020  C     
4    C         6.4560    6.0055   17.5060  C     
5    C         6.0146    4.7186   17.9242  C     
6    C         6.7823    4.0326   18.9028  C     
7    C         6.4657    2.7162   19.3005  C     
8    C         6.2347    0.8958   20.4130  C     
9    N         6.6274    2.1696   20.5186  N     
10   N         6.0409    1.7498   18.4525  N     
11   N         5.9060    0.6413   19.1306  N     
12   N         4.8747    4.0794   17.4488  N     
13   C         3.7866    4.5262   16.7786  C     
14   C         2.5226    6.2435   15.6726  C     
15   C         2.7459    3.6161   16.4718  C     
16   C         2.5029    2.2679   16.7405  C     
17   C         1.6323    4.0683   15.7626  C     
18   C         1.2830    1.9420   16.1501  C     
19   N         0.7783    3.0464   15.5732  N     
20   N         3.6218    5.8217   16.3503  N     
21   N         1.5199    5.3748   15.3798  N     
22   C         6.2490   -0.0921   21.4959  C     
23   Cl        9.6628    6.6835   19.8179  Cl    
24   H         8.4226    4.1862   20.2519  H     
25   H         7.8820    7.5423   17.7696  H     
26   H         5.9988    6.4960   16.7395  H     
27   H         6.9484    2.6129   21.3214  H     
28   H         4.8089    3.1493   17.7076  H     
29   H         2.4373    7.2249   15.4035  H     
30   H         3.0994    1.6107   17.2609  H     
31   H         0.8205    1.0278   16.1679  H     
32   H        -0.0677    3.1031   15.0940  H     
33   H         7.1966   -0.0094   22.0240  H     
34   H         6.1458   -1.0918   21.0814  H     
35   H         5.4206    0.1063   22.1725  H     
@<TRIPOS>BOND
     1    1    2 1
     2    1    6 2
     3    2    3 2
     4    2   23 1
     5    3    4 1
     6    4    5 2
     7    5    6 1
     8    5   12 1
     9    6    7 1
    10    7    9 1
    11    7   10 2
    12    8    9 1
    13    8   11 2
    14    8   22 1
    15   10   11 1
    16   12   13 1
    17   13   15 1
    18   13   20 2
    19   14   20 1
    20   14   21 2
    21   15   16 1
    22   15   17 2
    23   16   18 2
    24   17   19 1
    25   17   21 1
    26   18   19 1
    27    1   24 1
    28    3   25 1
    29    4   26 1
    30    9   27 1
    31   12   28 1
    32   14   29 1
    33   16   30 1
    34   18   31 1
    35   19   32 1
    36   22   33 1
    37   22   34 1
    38   22   35 1
@<TRIPOS>PROPERTY_DATA
  Total_Score	| 7.8268
  Crash		| -0.8561
  Polar		| 2.3427
  FragIndex	| 1
  FragRMSD	| 0.337

