@<TRIPOS>MOLECULE
BindingDB_24839
 35 38 0 0 0
SMALL
NO_CHARGES


@<TRIPOS>ATOM
1    C         7.7850    4.6877   19.8309  C     
2    C         8.2107    5.9633   19.4442  C     
3    C         7.5262    6.6376   18.4138  C     
4    C         6.4499    6.0135   17.7586  C     
5    C         5.9889    4.7143   18.1294  C     
6    C         6.6867    4.0407   19.1988  C     
7    C         6.3723    2.7185   19.6302  C     
8    C         6.0828    0.9522   20.8438  C     
9    N         6.3787    2.2547   20.8919  N     
10   N         6.0859    1.6748   18.8291  N     
11   N         5.9055    0.6141   19.5610  N     
12   N         4.9172    4.0847   17.5060  N     
13   C         3.8275    4.5484   16.8296  C     
14   C         2.5227    6.3738   15.9514  C     
15   C         2.8282    3.6567   16.3661  C     
16   C         2.6357    2.2696   16.3643  C     
17   C         1.6873    4.1983   15.7513  C     
18   C         1.3926    2.0366   15.7615  C     
19   N         0.8451    3.2138   15.4198  N     
20   N         3.6204    5.8741   16.5933  N     
21   N         1.5414    5.5300   15.5457  N     
22   C         3.5240    1.2114   16.8441  C     
23   H         8.3301    4.2148   20.5639  H     
24   H         9.0059    6.4054   19.9148  H     
25   H         7.8420    7.5639   18.1040  H     
26   H         6.0254    6.5553   16.9999  H     
27   H         5.9635    0.3177   21.6380  H     
28   H         6.5336    2.7614   21.7055  H     
29   H         4.9052    3.1246   17.6105  H     
30   H         2.4240    7.3752   15.7965  H     
31   H         0.9499    1.1271   15.6022  H     
32   H        -0.0069    3.3290   14.9658  H     
33   H         4.4561    1.2000   16.2708  H     
34   H         3.0625    0.2248   16.7401  H     
35   H         3.7272    1.3711   17.8948  H     
@<TRIPOS>BOND
     1    1    2 1
     2    1    6 2
     3    2    3 2
     4    3    4 1
     5    4    5 2
     6    5    6 1
     7    5   12 1
     8    6    7 1
     9    7    9 1
    10    7   10 2
    11    8    9 1
    12    8   11 2
    13   10   11 1
    14   12   13 1
    15   13   15 1
    16   13   20 2
    17   14   20 1
    18   14   21 2
    19   15   16 1
    20   15   17 2
    21   16   18 2
    22   16   22 1
    23   17   19 1
    24   17   21 1
    25   18   19 1
    26    1   23 1
    27    2   24 1
    28    3   25 1
    29    4   26 1
    30    8   27 1
    31    9   28 1
    32   12   29 1
    33   14   30 1
    34   18   31 1
    35   19   32 1
    36   22   33 1
    37   22   34 1
    38   22   35 1
@<TRIPOS>PROPERTY_DATA
  Total_Score	| 7.7993
  Crash		| -0.8922
  Polar		| 2.9624
  FragIndex	| 1
  FragRMSD	| 0.332

