@<TRIPOS>MOLECULE
BindingDB_24853
 46 50 0 0 0
SMALL
NO_CHARGES


@<TRIPOS>ATOM
1    C         3.9258    4.3182   17.2922  C     
2    C         2.5519    6.2876   16.9918  C     
3    C         2.9577    3.5979   16.5465  C     
4    C         1.7823    4.2561   16.1609  C     
5    C         2.8946    2.3354   15.9510  C     
6    C         1.6173    2.2285   15.3980  C     
7    N         3.6700    5.6535   17.4512  N     
8    N         1.5803    5.5758   16.3659  N     
9    N         0.9779    3.3990   15.5279  N     
10   C         4.9742    2.5185   18.6562  C     
11   N         5.0127    3.7786   17.9412  N     
12   C         6.3412    2.3387   19.4175  C     
13   C         5.9679    0.5341   21.3135  C     
14   C         6.2323    2.0280   20.9650  C     
15   C         7.2571    1.2488   18.7629  C     
16   C         6.8770   -0.2058   19.1511  C     
17   N         6.9285   -0.3481   20.6262  N     
18   C         6.9083    3.6856   19.1862  C     
19   C         8.5408    5.4948   19.3468  C     
20   C         7.7802    6.2626   18.4481  C     
21   C         6.5860    5.7391   17.9162  C     
22   C         6.1304    4.4586   18.3139  C     
23   C         8.1258    4.1939   19.6928  C     
24   C         3.9761    1.3720   15.6870  C     
25   H         2.4290    7.2874   17.1503  H     
26   H         1.2514    1.4293   14.8666  H     
27   H         0.0963    3.6010   15.1648  H     
28   H         4.1474    2.5746   19.3736  H     
29   H         4.7633    1.6728   17.9862  H     
30   H         6.0735    0.3962   22.3923  H     
31   H         4.9502    0.2580   21.0353  H     
32   H         7.1654    2.2936   21.4653  H     
33   H         5.4500    2.6201   21.4224  H     
34   H         7.2523    1.3311   17.6766  H     
35   H         8.2827    1.4016   19.0976  H     
36   H         5.8755   -0.4588   18.7880  H     
37   H         7.5824   -0.9120   18.7095  H     
38   H         7.8702   -0.0956   20.9340  H     
39   H         6.7459   -1.3263   20.8897  H     
40   H         9.4141    5.8641   19.7253  H     
41   H         8.0926    7.2020   18.1870  H     
42   H         6.0741    6.3050   17.2355  H     
43   H         8.7125    3.6287   20.3105  H     
44   H         4.9423    1.7477   16.0405  H     
45   H         4.0477    1.1688   14.6103  H     
46   H         3.7671    0.4347   16.2033  H     
@<TRIPOS>BOND
     1    1    3 1
     2    1    7 2
     3    1   11 1
     4    2    7 1
     5    2    8 2
     6    3    4 2
     7    3    5 1
     8    4    8 1
     9    4    9 1
    10    5    6 2
    11    5   24 1
    12    6    9 1
    13   10   11 1
    14   10   12 1
    15   11   22 1
    16   12   14 1
    17   12   15 1
    18   12   18 1
    19   13   14 1
    20   13   17 1
    21   15   16 1
    22   16   17 1
    23   18   22 2
    24   18   23 1
    25   19   20 1
    26   19   23 2
    27   20   21 2
    28   21   22 1
    29    2   25 1
    30    6   26 1
    31    9   27 1
    32   10   28 1
    33   10   29 1
    34   13   30 1
    35   13   31 1
    36   14   32 1
    37   14   33 1
    38   15   34 1
    39   15   35 1
    40   16   36 1
    41   16   37 1
    42   17   38 1
    43   17   39 1
    44   19   40 1
    45   20   41 1
    46   21   42 1
    47   23   43 1
    48   24   44 1
    49   24   45 1
    50   24   46 1
@<TRIPOS>PROPERTY_DATA
  Total_Score	| 4.0695
  Crash		| -6.2905
  Polar		| 3.2663
  FragIndex	| 1
  FragRMSD	| 0.659

