@<TRIPOS>MOLECULE
BindingDB_24855
 44 48 0 0 0
SMALL
NO_CHARGES


@<TRIPOS>ATOM
1    C         3.8719    4.1113   17.2462  C     
2    C         2.6932    6.0837   16.4337  C     
3    C         2.7973    3.3182   16.7118  C     
4    C         1.7262    3.9974   16.0887  C     
5    C         2.4539    1.9616   16.5536  C     
6    C         1.2220    1.9043   15.8917  C     
7    N         3.7230    5.4573   17.0600  N     
8    N         1.6720    5.3418   15.9415  N     
9    N         0.8054    3.1454   15.6322  N     
10   C         5.1715    2.4418   18.5904  C     
11   N         5.0010    3.7193   17.9443  N     
12   C         6.5000    2.4271   19.4368  C     
13   C         6.0422    0.7009   21.3743  C     
14   C         6.3720    2.1681   20.9849  C     
15   C         7.4910    1.3347   18.9009  C     
16   C         7.0093   -0.1064   19.2405  C     
17   N         6.9289   -0.2809   20.7052  N     
18   C         6.9489    3.8001   19.1544  C     
19   C         8.4106    5.7492   19.2873  C     
20   C         7.6122    6.4058   18.3339  C     
21   C         6.4854    5.7615   17.8017  C     
22   C         6.0938    4.4805   18.2643  C     
23   C         8.1034    4.4317   19.6739  C     
24   C         3.0977    0.8751   16.8170  C     
25   N         3.6581   -0.1242   17.0003  N     
26   H         2.6917    7.0987   16.3343  H     
27   H         0.7128    1.0620   15.6067  H     
28   H        -0.0050    3.3872   15.1555  H     
29   H         4.3033    2.2469   19.2376  H     
30   H         5.2353    1.6648   17.7956  H     
31   H         6.1628    0.5813   22.4547  H     
32   H         5.0005    0.4745   21.1326  H     
33   H         7.3241    2.4029   21.4690  H     
34   H         5.6224    2.8259   21.4218  H     
35   H         7.6300    1.4227   17.8194  H     
36   H         8.4656    1.4850   19.3652  H     
37   H         6.0338   -0.3105   18.7981  H     
38   H         7.7065   -0.8396   18.8376  H     
39   H         7.8707   -0.1708   21.0844  H     
40   H         6.6070   -1.2304   20.9141  H     
41   H         9.2360    6.2167   19.6727  H     
42   H         7.8593    7.3502   18.0154  H     
43   H         5.9700    6.2589   17.0688  H     
44   H         8.7151    3.9459   20.3332  H     
@<TRIPOS>BOND
     1    1    3 1
     2    1    7 2
     3    1   11 1
     4    2    7 1
     5    2    8 2
     6    3    4 2
     7    3    5 1
     8    4    8 1
     9    4    9 1
    10    5    6 2
    11    5   24 1
    12    6    9 1
    13   10   11 1
    14   10   12 1
    15   11   22 1
    16   12   14 1
    17   12   15 1
    18   12   18 1
    19   13   14 1
    20   13   17 1
    21   15   16 1
    22   16   17 1
    23   18   22 1
    24   18   23 2
    25   19   20 2
    26   19   23 1
    27   20   21 1
    28   21   22 2
    29   24   25 3
    30    2   26 1
    31    6   27 1
    32    9   28 1
    33   10   29 1
    34   10   30 1
    35   13   31 1
    36   13   32 1
    37   14   33 1
    38   14   34 1
    39   15   35 1
    40   15   36 1
    41   16   37 1
    42   16   38 1
    43   17   39 1
    44   17   40 1
    45   19   41 1
    46   20   42 1
    47   21   43 1
    48   23   44 1
@<TRIPOS>PROPERTY_DATA
  Total_Score	| 4.3261
  Crash		| -5.7898
  Polar		| 3.1437
  FragIndex	| 1
  FragRMSD	| 0.460

