@<TRIPOS>MOLECULE
BindingDB_24846
 43 47 0 0 0
SMALL
NO_CHARGES


@<TRIPOS>ATOM
1    C         3.7581    4.1499   17.1812  C     
2    C         2.4240    6.0703   16.5224  C     
3    C         2.7063    3.3299   16.6804  C     
4    C         1.5731    3.9386   16.1137  C     
5    C         2.4622    1.9619   16.5732  C     
6    C         1.2151    1.7965   15.9804  C     
7    N         3.5284    5.4964   17.0720  N     
8    N         1.4374    5.2811   16.0356  N     
9    N         0.7041    3.0052   15.7073  N     
10   C         5.1557    2.3695   18.2389  C     
11   N         4.9226    3.7155   17.7812  N     
12   C         6.4399    2.3484   19.1443  C     
13   C         5.8620    0.6157   21.0436  C     
14   C         6.1734    2.0945   20.6775  C     
15   C         7.4763    1.2704   18.6751  C     
16   C         7.0007   -0.1704   19.0119  C     
17   N         6.8713   -0.3062   20.4813  N     
18   C         6.9046    3.7385   18.9137  C     
19   C         8.3805    5.6741   19.0889  C     
20   C         7.5335    6.3903   18.2246  C     
21   C         6.3704    5.7859   17.7194  C     
22   C         6.0144    4.4712   18.1110  C     
23   C         8.0814    4.3397   19.4197  C     
24   H         2.3349    7.0854   16.4794  H     
25   H         3.0602    1.1946   16.8698  H     
26   H         0.7557    0.9074   15.7872  H     
27   H        -0.1591    3.1741   15.2948  H     
28   H         4.2991    2.0128   18.8107  H     
29   H         5.2859    1.7314   17.3601  H     
30   H         5.8564    0.4966   22.1298  H     
31   H         4.8770    0.3330   20.6697  H     
32   H         7.0551    2.3864   21.2580  H     
33   H         5.3407    2.7043   21.0162  H     
34   H         7.6719    1.3457   17.6039  H     
35   H         8.4200    1.4383   19.2003  H     
36   H         6.0476   -0.3841   18.5164  H     
37   H         7.7322   -0.9005   18.6621  H     
38   H         7.7789   -0.0818   20.9035  H     
39   H         6.6281   -1.2757   20.7288  H     
40   H         9.2208    6.1184   19.4571  H     
41   H         7.7649    7.3492   17.9548  H     
42   H         5.8077    6.3162   17.0600  H     
43   H         8.7209    3.8172   20.0215  H     
@<TRIPOS>BOND
     1    1    3 1
     2    1    7 2
     3    1   11 1
     4    2    7 1
     5    2    8 2
     6    3    4 2
     7    3    5 1
     8    4    8 1
     9    4    9 1
    10    5    6 2
    11    6    9 1
    12   10   11 1
    13   10   12 1
    14   11   22 1
    15   12   14 1
    16   12   15 1
    17   12   18 1
    18   13   14 1
    19   13   17 1
    20   15   16 1
    21   16   17 1
    22   18   22 2
    23   18   23 1
    24   19   20 1
    25   19   23 2
    26   20   21 2
    27   21   22 1
    28    2   24 1
    29    5   25 1
    30    6   26 1
    31    9   27 1
    32   10   28 1
    33   10   29 1
    34   13   30 1
    35   13   31 1
    36   14   32 1
    37   14   33 1
    38   15   34 1
    39   15   35 1
    40   16   36 1
    41   16   37 1
    42   17   38 1
    43   17   39 1
    44   19   40 1
    45   20   41 1
    46   21   42 1
    47   23   43 1
@<TRIPOS>PROPERTY_DATA
  Total_Score	| 3.3026
  Crash		| -6.2709
  Polar		| 3.1571
  FragIndex	| 1
  FragRMSD	| 0.462

