@<TRIPOS>MOLECULE
BindingDB_24852
 43 47 0 0 0
SMALL
NO_CHARGES


@<TRIPOS>ATOM
1    C         3.8740    4.1896   17.1776  C     
2    C         2.6251    6.1743   16.4716  C     
3    C         2.7840    3.4120   16.6525  C     
4    C         1.6806    4.0890   16.0839  C     
5    C         2.4534    2.0582   16.4779  C     
6    C         1.2193    1.9878   15.8398  C     
7    N         3.6885    5.5406   17.0313  N     
8    N         1.5988    5.4354   15.9921  N     
9    N         0.7646    3.2263   15.6211  N     
10   C         5.2243    2.5215   18.4928  C     
11   N         5.0168    3.7965   17.8659  N     
12   C         6.5281    2.5238   19.3880  C     
13   C         6.0476    0.8259   21.3478  C     
14   C         6.4000    2.2845   20.9380  C     
15   C         7.5481    1.4357   18.9079  C     
16   C         7.0200    0.0020   19.2300  C     
17   N         6.9387   -0.1694   20.6919  N     
18   C         6.9589    3.8968   19.1038  C     
19   C         8.4025    5.8497   19.2469  C     
20   C         7.6091    6.4861   18.2798  C     
21   C         6.4799    5.8456   17.7559  C     
22   C         6.0995    4.5659   18.2139  C     
23   C         8.1006    4.5360   19.6423  C     
24   Cl        3.2732    0.6081   16.7843  Cl    
25   H         2.5872    7.2005   16.4479  H     
26   H         0.7648    1.1354   15.5143  H     
27   H        -0.0453    3.4469   15.1367  H     
28   H         4.3565    2.2718   19.0990  H     
29   H         5.3388    1.7701   17.6864  H     
30   H         6.1523    0.7274   22.4350  H     
31   H         5.0097    0.5982   21.0915  H     
32   H         7.3611    2.4916   21.4095  H     
33   H         5.6899    2.9645   21.3817  H     
34   H         7.7445    1.5282   17.8424  H     
35   H         8.4964    1.5870   19.4279  H     
36   H         6.0272   -0.1582   18.8003  H     
37   H         7.6774   -0.7484   18.8052  H     
38   H         7.8738   -0.0670   21.0871  H     
39   H         6.6034   -1.1184   20.9003  H     
40   H         9.2250    6.3209   19.6277  H     
41   H         7.8582    7.4091   17.9289  H     
42   H         5.9636    6.3433   17.0272  H     
43   H         8.7220    4.0458   20.2872  H     
@<TRIPOS>BOND
     1    1    3 1
     2    1    7 2
     3    1   11 1
     4    2    7 1
     5    2    8 2
     6    3    4 2
     7    3    5 1
     8    4    8 1
     9    4    9 1
    10    5    6 2
    11    5   24 1
    12    6    9 1
    13   10   11 1
    14   10   12 1
    15   11   22 1
    16   12   14 1
    17   12   15 1
    18   12   18 1
    19   13   14 1
    20   13   17 1
    21   15   16 1
    22   16   17 1
    23   18   22 2
    24   18   23 1
    25   19   20 1
    26   19   23 2
    27   20   21 2
    28   21   22 1
    29    2   25 1
    30    6   26 1
    31    9   27 1
    32   10   28 1
    33   10   29 1
    34   13   30 1
    35   13   31 1
    36   14   32 1
    37   14   33 1
    38   15   34 1
    39   15   35 1
    40   16   36 1
    41   16   37 1
    42   17   38 1
    43   17   39 1
    44   19   40 1
    45   20   41 1
    46   21   42 1
    47   23   43 1
@<TRIPOS>PROPERTY_DATA
  Total_Score	| 3.3276
  Crash		| -5.8645
  Polar		| 3.0493
  FragIndex	| 1
  FragRMSD	| 0.411

