@<TRIPOS>MOLECULE
BindingDB_24838
 35 38 0 0 0
SMALL
NO_CHARGES


@<TRIPOS>ATOM
1    C         7.7964    4.7909   19.9946  C     
2    C         8.1508    6.0823   19.5869  C     
3    C         7.4983    6.6901   18.5069  C     
4    C         6.4888    5.9922   17.8237  C     
5    C         6.0949    4.6934   18.2334  C     
6    C         6.7820    4.0717   19.3209  C     
7    C         6.4920    2.7642   19.7785  C     
8    C         6.1428    1.0552   21.0430  C     
9    N         6.4689    2.3463   21.0545  N     
10   N         6.2033    1.6960   19.0099  N     
11   N         5.9970    0.6629   19.7682  N     
12   N         5.0766    4.0120   17.6218  N     
13   C         3.9899    4.4693   16.9608  C     
14   C         2.5642    6.1969   16.1031  C     
15   C         3.0129    3.5316   16.5933  C     
16   C         2.9226    2.1473   16.7276  C     
17   C         1.8290    3.9646   15.9928  C     
18   C         1.6797    1.7928   16.2236  C     
19   N         1.0384    2.8939   15.7743  N     
20   N         3.7183    5.7884   16.7087  N     
21   N         1.6121    5.2904   15.7528  N     
22   C        -0.2725    2.9324   15.2323  C     
23   H         8.3017    4.3717   20.7767  H     
24   H         8.8980    6.5749   20.0759  H     
25   H         7.7668    7.6274   18.2098  H     
26   H         6.0606    6.4430   17.0153  H     
27   H         6.0430    0.4620   21.8627  H     
28   H         6.6280    2.8863   21.8428  H     
29   H         5.0623    3.0584   17.7758  H     
30   H         2.4213    7.1910   15.9202  H     
31   H         3.6144    1.5233   17.1486  H     
32   H         1.3019    0.8453   16.2261  H     
33   H        -0.9130    3.5463   15.8692  H     
34   H        -0.7139    1.9307   15.1586  H     
35   H        -0.2360    3.3669   14.2299  H     
@<TRIPOS>BOND
     1    1    2 1
     2    1    6 2
     3    2    3 2
     4    3    4 1
     5    4    5 2
     6    5    6 1
     7    5   12 1
     8    6    7 1
     9    7    9 1
    10    7   10 2
    11    8    9 1
    12    8   11 2
    13   10   11 1
    14   12   13 1
    15   13   15 1
    16   13   20 2
    17   14   20 1
    18   14   21 2
    19   15   16 1
    20   15   17 2
    21   16   18 2
    22   17   19 1
    23   17   21 1
    24   18   19 1
    25   19   22 1
    26    1   23 1
    27    2   24 1
    28    3   25 1
    29    4   26 1
    30    8   27 1
    31    9   28 1
    32   12   29 1
    33   14   30 1
    34   16   31 1
    35   18   32 1
    36   22   33 1
    37   22   34 1
    38   22   35 1
@<TRIPOS>PROPERTY_DATA
  Total_Score	| 5.7029
  Crash		| -2.7014
  Polar		| 1.7695
  FragIndex	| 1
  FragRMSD	| 0.438

