@<TRIPOS>MOLECULE
BindingDB_30517
 59 63 0 0 0
SMALL
NO_CHARGES


@<TRIPOS>ATOM
1    C        98.2208    8.2915   53.4784  C     
2    C        98.5483    8.8693   52.1783  C     
3    N        96.2658   10.0134   52.3852  N     
4    C        96.0947    9.3226   53.5319  C     
5    C        97.0904    8.5869   54.1604  C     
6    O        99.1676    7.5009   54.0030  O     
7    O        94.9767    9.3048   54.0455  O     
8    C        97.0095    8.3090   55.5441  C     
9    S        97.3963    6.7076   57.6563  S     
10   N        97.3566    7.0870   56.0178  N     
11   N        96.6493    9.3204   56.3785  N     
12   C        96.6121    9.2960   57.7393  C     
13   C        96.9751    8.1615   58.4969  C     
14   C        97.0114    8.2202   59.9055  C     
15   C        96.2465   10.4758   58.4146  C     
16   C        96.2695   10.5303   59.8186  C     
17   C        96.6732    9.4149   60.5837  C     
18   O        98.8605    6.2747   58.0963  O     
19   O        96.3211    5.5984   58.0298  O     
20   N        96.7179    9.5782   61.9349  N     
21   S        97.2511    8.4514   63.0704  S     
22   C        99.0381    8.2064   63.0843  C     
23   O        96.8329    9.0135   64.4938  O     
24   O        96.4822    7.0545   62.9474  O     
25   C        95.2694   10.9788   51.9403  C     
26   C        98.7953    7.8007   51.0877  C     
27   C        98.4380    8.5023   49.7755  C     
28   C        97.2066    9.3351   50.1608  C     
29   C        97.4795    9.8580   51.6013  C     
30   C        94.0282   10.3052   51.2735  C     
31   C        92.8842   11.3051   50.9719  C     
32   C        91.4449   10.7581   50.9901  C     
33   C        91.9175   11.6931   52.1154  C     
34   H        99.4784    9.4408   52.3116  H     
35   H        99.7626    8.1059   54.5061  H     
36   H        96.4281   10.1686   55.9630  H     
37   H        97.2915    7.3843   60.4272  H     
38   H        95.9681   11.3092   57.8811  H     
39   H        96.0300   11.4109   60.2790  H     
40   H        96.5772   10.4777   62.2720  H     
41   H        99.3599    7.8058   62.1226  H     
42   H        99.3155    7.5060   63.8743  H     
43   H        99.5324    9.1632   63.2586  H     
44   H        94.9610   11.6094   52.7849  H     
45   H        95.7050   11.6843   51.2246  H     
46   H        99.8376    7.4658   51.0817  H     
47   H        98.1402    6.9344   51.2295  H     
48   H        99.2535    9.1624   49.4527  H     
49   H        98.2166    7.7853   48.9813  H     
50   H        97.0411   10.1549   49.4536  H     
51   H        96.3286    8.6813   50.1564  H     
52   H        97.9524   10.8473   51.5205  H     
53   H        94.3364    9.8507   50.3228  H     
54   H        93.6563    9.4962   51.9107  H     
55   H        93.0467   12.0845   50.2179  H     
56   H        90.7411   11.2097   50.2978  H     
57   H        91.2841    9.7311   51.3222  H     
58   H        92.0883   11.2181   53.0853  H     
59   H        91.5489   12.7215   52.0753  H     
@<TRIPOS>BOND
     1    1    2 1
     2    1    5 2
     3    1    6 1
     4    2   26 1
     5    2   29 1
     6    3    4 1
     7    3   25 1
     8    3   29 1
     9    4    5 1
    10    4    7 2
    11    5    8 1
    12    8   10 2
    13    8   11 1
    14    9   10 1
    15    9   13 1
    16    9   18 2
    17    9   19 2
    18   11   12 1
    19   12   13 2
    20   12   15 1
    21   13   14 1
    22   14   17 2
    23   15   16 2
    24   16   17 1
    25   17   20 1
    26   20   21 1
    27   21   22 1
    28   21   23 2
    29   21   24 2
    30   25   30 1
    31   26   27 1
    32   27   28 1
    33   28   29 1
    34   30   31 1
    35   31   32 1
    36   31   33 1
    37   32   33 1
    38    2   34 1
    39    6   35 1
    40   11   36 1
    41   14   37 1
    42   15   38 1
    43   16   39 1
    44   20   40 1
    45   22   41 1
    46   22   42 1
    47   22   43 1
    48   25   44 1
    49   25   45 1
    50   26   46 1
    51   26   47 1
    52   27   48 1
    53   27   49 1
    54   28   50 1
    55   28   51 1
    56   29   52 1
    57   30   53 1
    58   30   54 1
    59   31   55 1
    60   32   56 1
    61   32   57 1
    62   33   58 1
    63   33   59 1
@<TRIPOS>PROPERTY_DATA
  Total_Score	| 6.7046
  Crash		| -1.5139
  Polar		| 2.1195
  FragIndex	| 1
  FragRMSD	| 0.506

