@<TRIPOS>MOLECULE
BindingDB_30511
 73 76 0 0 0
SMALL
NO_CHARGES


@<TRIPOS>ATOM
1    C        97.4625    7.4370   53.3458  C     
2    C        97.5954    7.6636   51.8904  C     
3    N        96.2949    9.7004   52.3000  N     
4    C        96.0502    9.2850   53.5647  C     
5    C        96.7597    8.2647   54.1708  C     
6    O        98.1266    6.3993   53.8501  O     
7    O        95.0563    9.7149   54.1549  O     
8    C        97.4844    9.1999   51.6107  C     
9    C        96.8075    8.1416   55.5817  C     
10   S        97.3026    6.6324   57.7716  S     
11   N        97.0899    6.9393   56.1363  N     
12   N        96.6121    9.2246   56.3892  N     
13   C        96.6473    9.2542   57.7532  C     
14   C        96.9569    8.1322   58.5528  C     
15   C        96.9830    8.2140   59.9572  C     
16   C        96.3469   10.4685   58.4062  C     
17   C        96.3531   10.5554   59.8138  C     
18   C        96.6831    9.4325   60.6096  C     
19   O        98.8058    6.2280   58.0858  O     
20   O        96.2525    5.5508   58.2783  O     
21   N        96.6924    9.6020   61.9601  N     
22   S        97.2176    8.4930   63.1175  S     
23   C        99.0005    8.2080   63.1344  C     
24   O        96.8073    9.0736   64.5354  O     
25   O        96.4219    7.1199   63.0033  O     
26   C        95.4352   10.6774   51.6448  C     
27   C        94.1140   10.0046   51.1210  C     
28   C        92.8032   10.8700   51.0615  C     
29   C        91.5722    9.9197   50.7950  C     
30   C        92.5276   11.6234   52.4019  C     
31   C        92.8575   11.9131   49.8903  C     
32   C        98.8673    6.9570   51.3006  C     
33   C        99.2416    7.1060   49.8034  C     
34   C        99.7997    8.4652   49.2821  C     
35   C       100.5756    9.3736   50.2767  C     
36   C        99.7215   10.4783   50.9537  C     
37   C        98.7342   10.0363   52.0651  C     
38   H        96.7211    7.1910   51.4307  H     
39   H        99.0026    6.7754   54.1200  H     
40   H        97.3482    9.3238   50.5328  H     
41   H        96.4342   10.0663   55.9476  H     
42   H        97.2184    7.3828   60.4973  H     
43   H        96.1079   11.3025   57.8630  H     
44   H        96.1223   11.4509   60.2588  H     
45   H        96.4534   10.4880   62.2870  H     
46   H        99.3042    7.8066   62.1672  H     
47   H        99.2422    7.4895   63.9197  H     
48   H        99.5247    9.1471   63.3200  H     
49   H        95.1966   11.4785   52.3470  H     
50   H        95.9100   11.1552   50.7846  H     
51   H        94.3253    9.6134   50.1171  H     
52   H        93.9117    9.1266   51.7424  H     
53   H        91.7122    9.3486   49.8705  H     
54   H        90.6402   10.4887   50.7085  H     
55   H        91.4582    9.2093   51.6229  H     
56   H        92.6281   10.9283   53.2502  H     
57   H        91.5325   12.0733   52.4257  H     
58   H        93.2592   12.4186   52.5310  H     
59   H        93.7011   12.6004   50.0261  H     
60   H        91.9393   12.5082   49.8467  H     
61   H        92.9820   11.4097   48.9254  H     
62   H        99.7385    7.2219   51.9014  H     
63   H        98.7192    5.8851   51.4565  H     
64   H       100.0133    6.3499   49.6181  H     
65   H        98.3786    6.8118   49.1960  H     
66   H       100.4861    8.2247   48.4691  H     
67   H        98.9804    9.0246   48.8241  H     
68   H       101.1073    8.7877   51.0244  H     
69   H       101.3470    9.8931   49.7056  H     
70   H       100.4231   11.1905   51.4095  H     
71   H        99.1703   11.0376   50.1890  H     
72   H        98.3872   10.9688   52.5312  H     
73   H        99.2925    9.5046   52.8378  H     
@<TRIPOS>BOND
     1    1    2 1
     2    1    5 2
     3    1    6 1
     4    2    8 1
     5    2   32 1
     6    3    4 1
     7    3    8 1
     8    3   26 1
     9    4    5 1
    10    4    7 2
    11    5    9 1
    12    8   37 1
    13    9   11 2
    14    9   12 1
    15   10   11 1
    16   10   14 1
    17   10   19 2
    18   10   20 2
    19   12   13 1
    20   13   14 2
    21   13   16 1
    22   14   15 1
    23   15   18 2
    24   16   17 2
    25   17   18 1
    26   18   21 1
    27   21   22 1
    28   22   23 1
    29   22   24 2
    30   22   25 2
    31   26   27 1
    32   27   28 1
    33   28   29 1
    34   28   30 1
    35   28   31 1
    36   32   33 1
    37   33   34 1
    38   34   35 1
    39   35   36 1
    40   36   37 1
    41    2   38 1
    42    6   39 1
    43    8   40 1
    44   12   41 1
    45   15   42 1
    46   16   43 1
    47   17   44 1
    48   21   45 1
    49   23   46 1
    50   23   47 1
    51   23   48 1
    52   26   49 1
    53   26   50 1
    54   27   51 1
    55   27   52 1
    56   29   53 1
    57   29   54 1
    58   29   55 1
    59   30   56 1
    60   30   57 1
    61   30   58 1
    62   31   59 1
    63   31   60 1
    64   31   61 1
    65   32   62 1
    66   32   63 1
    67   33   64 1
    68   33   65 1
    69   34   66 1
    70   34   67 1
    71   35   68 1
    72   35   69 1
    73   36   70 1
    74   36   71 1
    75   37   72 1
    76   37   73 1
@<TRIPOS>PROPERTY_DATA
  Total_Score	| 8.9636
  Crash		| -2.5810
  Polar		| 3.0962
  FragIndex	| 1
  FragRMSD	| 0.635

