@<TRIPOS>MOLECULE
BindingDB_30508
 64 67 0 0 0
SMALL
NO_CHARGES


@<TRIPOS>ATOM
1    C        98.2468    8.5255   53.5136  C     
2    C        98.5005    9.0561   52.1809  C     
3    N        96.1312   10.0082   52.3651  N     
4    C        96.0205    9.3304   53.5308  C     
5    C        97.0697    8.7107   54.1670  C     
6    O        99.3116    7.9748   54.1022  O     
7    O        94.9104    9.3050   54.0786  O     
8    C        98.8105    7.9346   51.1575  C     
9    C        98.4036    8.5596   49.8161  C     
10   C        97.1364    9.3469   50.1637  C     
11   C        97.3601    9.9322   51.5792  C     
12   C        97.0043    8.4343   55.5394  C     
13   S        97.4109    6.8192   57.6222  S     
14   N        97.3639    7.2124   55.9888  N     
15   N        96.6292    9.4432   56.3790  N     
16   C        96.5938    9.4084   57.7398  C     
17   C        96.9547    8.2577   58.4802  C     
18   C        96.9578    8.2852   59.8835  C     
19   C        96.2113   10.5712   58.4331  C     
20   C        96.2092   10.5933   59.8428  C     
21   C        96.5933    9.4556   60.5809  C     
22   O        98.8933    6.4088   58.0340  O     
23   O        96.3653    5.6766   58.0032  O     
24   N        96.6011    9.5674   61.9424  N     
25   S        97.1863    8.4018   63.0153  S     
26   C        98.9799    8.2206   62.9302  C     
27   O        96.7934    8.8682   64.4764  O     
28   O        96.4379    7.0027   62.8437  O     
29   C        95.0822   10.9366   51.9311  C     
30   C        93.8447   10.2483   51.2873  C     
31   C        92.5387   11.1100   50.9917  C     
32   C        91.3615   10.1368   50.6306  C     
33   C        92.0712   12.0393   52.1665  C     
34   C        92.7723   12.0508   49.7594  C     
35   H        99.3967    9.6851   52.2631  H     
36   H        99.0224    7.1079   54.4501  H     
37   H        99.8653    7.6548   51.1667  H     
38   H        98.2053    7.0431   51.3461  H     
39   H        99.1891    9.2387   49.4682  H     
40   H        98.2235    7.8020   49.0515  H     
41   H        96.9451   10.1253   49.4171  H     
42   H        96.2848    8.6596   50.1715  H     
43   H        97.7591   10.9482   51.4713  H     
44   H        96.3986   10.2914   55.9639  H     
45   H        97.2355    7.4453   60.3836  H     
46   H        95.9427   11.4167   57.9252  H     
47   H        95.9425   11.4627   60.3258  H     
48   H        96.4908   10.4648   62.3079  H     
49   H        99.2600    7.8020   61.9622  H     
50   H        99.3320    7.5590   63.7232  H     
51   H        99.4427    9.2022   63.0444  H     
52   H        94.7558   11.5445   52.7828  H     
53   H        95.4744   11.6522   51.2063  H     
54   H        94.1872    9.7959   50.3554  H     
55   H        93.5857    9.4074   51.9393  H     
56   H        91.6324    9.5148   49.7730  H     
57   H        90.4494   10.6781   50.3773  H     
58   H        91.1523    9.4841   51.4773  H     
59   H        91.7812   11.4580   53.0414  H     
60   H        91.1966   12.6383   51.8809  H     
61   H        92.8740   12.7275   52.4436  H     
62   H        93.5364   12.8020   49.9897  H     
63   H        91.8571   12.5840   49.4736  H     
64   H        93.1093   11.4770   48.8930  H     
@<TRIPOS>BOND
     1    1    2 1
     2    1    5 2
     3    1    6 1
     4    2    8 1
     5    2   11 1
     6    3    4 1
     7    3   11 1
     8    3   29 1
     9    4    5 1
    10    4    7 2
    11    5   12 1
    12    8    9 1
    13    9   10 1
    14   10   11 1
    15   12   14 2
    16   12   15 1
    17   13   14 1
    18   13   17 1
    19   13   22 2
    20   13   23 2
    21   15   16 1
    22   16   17 2
    23   16   19 1
    24   17   18 1
    25   18   21 2
    26   19   20 2
    27   20   21 1
    28   21   24 1
    29   24   25 1
    30   25   26 1
    31   25   27 2
    32   25   28 2
    33   29   30 1
    34   30   31 1
    35   31   32 1
    36   31   33 1
    37   31   34 1
    38    2   35 1
    39    6   36 1
    40    8   37 1
    41    8   38 1
    42    9   39 1
    43    9   40 1
    44   10   41 1
    45   10   42 1
    46   11   43 1
    47   15   44 1
    48   18   45 1
    49   19   46 1
    50   20   47 1
    51   24   48 1
    52   26   49 1
    53   26   50 1
    54   26   51 1
    55   29   52 1
    56   29   53 1
    57   30   54 1
    58   30   55 1
    59   32   56 1
    60   32   57 1
    61   32   58 1
    62   33   59 1
    63   33   60 1
    64   33   61 1
    65   34   62 1
    66   34   63 1
    67   34   64 1
@<TRIPOS>PROPERTY_DATA
  Total_Score	| 7.7689
  Crash		| -1.7751
  Polar		| 2.1692
  FragIndex	| 1
  FragRMSD	| 0.568

