@<TRIPOS>MOLECULE
BindingDB_30455
 66 69 0 0 0
SMALL
NO_CHARGES


@<TRIPOS>ATOM
1    C        97.2737    7.5716   53.3136  C     
2    C        97.4913    8.0319   51.9435  C     
3    N        96.7686    9.2224   51.5838  N     
4    N        95.8689    9.7580   52.4175  N     
5    C        95.6770    9.2073   53.6392  C     
6    C        96.5286    8.2734   54.1931  C     
7    O        94.5952    9.3683   54.2034  O     
8    C        94.9695   10.8492   52.0148  C     
9    C        93.7301   10.2941   51.2539  C     
10   C        92.5237   11.2717   50.9878  C     
11   O        97.8330    6.4051   53.6287  O     
12   C        96.6576    8.1069   55.6018  C     
13   S        97.5999    6.7284   57.7312  S     
14   N        97.3276    7.0363   56.1054  N     
15   N        96.1900    9.0605   56.4658  N     
16   C        96.3268    9.1171   57.8165  C     
17   C        96.9969    8.1241   58.5611  C     
18   O        99.1626    6.6302   58.0214  O     
19   O        96.7807    5.4394   58.1921  O     
20   C        97.2072    8.2886   59.9409  C     
21   C        95.8285   10.2600   58.4752  C     
22   C        96.0211   10.4145   59.8580  C     
23   C        96.7176    9.4381   60.6054  C     
24   N        96.8944    9.6877   61.9315  N     
25   S        97.4960    8.6081   63.0739  S     
26   C        96.7913    6.9575   62.9614  C     
27   O        99.0867    8.5701   63.0665  O     
28   O        97.0404    9.1641   64.4945  O     
29   C        91.2916   10.4202   50.5387  C     
30   C        92.1208   12.0677   52.2704  C     
31   C        92.8681   12.2757   49.8422  C     
32   C        99.0321    8.2202   51.7192  C     
33   C        99.3361    8.6655   50.2740  C     
34   C        98.4711    9.8875   49.9031  C     
35   C        96.9770    9.6327   50.2284  C     
36   H        97.1450    7.2150   51.2994  H     
37   H        94.6064   11.4097   52.8799  H     
38   H        95.5065   11.6016   51.4347  H     
39   H        94.0723    9.9010   50.2862  H     
40   H        93.3558    9.4388   51.8264  H     
41   H        98.7332    6.6278   53.9402  H     
42   H        95.7362    9.8239   56.0808  H     
43   H        97.7451    7.5812   60.4406  H     
44   H        95.3401   10.9931   57.9505  H     
45   H        95.6544   11.2570   60.3203  H     
46   H        96.6080   10.5582   62.2535  H     
47   H        95.7097    7.0161   63.0686  H     
48   H        97.2101    6.3330   63.7516  H     
49   H        97.0276    6.5180   61.9962  H     
50   H        91.5304    9.8185   49.6573  H     
51   H        90.4382   11.0565   50.2882  H     
52   H        90.9740    9.7419   51.3379  H     
53   H        91.9002   11.3840   53.0957  H     
54   H        91.2331   12.6773   52.0886  H     
55   H        92.9151   12.7453   52.5868  H     
56   H        93.6625   12.9536   50.1429  H     
57   H        91.9966   12.8843   49.5870  H     
58   H        93.1929   11.7504   48.9422  H     
59   H        99.4120    8.9744   52.4128  H     
60   H        99.5752    7.2881   51.9032  H     
61   H       100.3948    8.9180   50.1723  H     
62   H        99.1116    7.8453   49.5838  H     
63   H        98.8144   10.7659   50.4598  H     
64   H        98.5813   10.0854   48.8325  H     
65   H        96.6162    8.8344   49.5843  H     
66   H        96.4335   10.5248   49.9088  H     
@<TRIPOS>BOND
     1    1    2 1
     2    1    6 2
     3    1   11 1
     4    2    3 1
     5    2   32 1
     6    3    4 1
     7    3   35 1
     8    4    5 1
     9    4    8 1
    10    5    6 1
    11    5    7 2
    12    6   12 1
    13    8    9 1
    14    9   10 1
    15   10   29 1
    16   10   30 1
    17   10   31 1
    18   12   14 2
    19   12   15 1
    20   13   14 1
    21   13   17 1
    22   13   18 2
    23   13   19 2
    24   15   16 1
    25   16   17 2
    26   16   21 1
    27   17   20 1
    28   20   23 2
    29   21   22 2
    30   22   23 1
    31   23   24 1
    32   24   25 1
    33   25   26 1
    34   25   27 2
    35   25   28 2
    36   32   33 1
    37   33   34 1
    38   34   35 1
    39    2   36 1
    40    8   37 1
    41    8   38 1
    42    9   39 1
    43    9   40 1
    44   11   41 1
    45   15   42 1
    46   20   43 1
    47   21   44 1
    48   22   45 1
    49   24   46 1
    50   26   47 1
    51   26   48 1
    52   26   49 1
    53   29   50 1
    54   29   51 1
    55   29   52 1
    56   30   53 1
    57   30   54 1
    58   30   55 1
    59   31   56 1
    60   31   57 1
    61   31   58 1
    62   32   59 1
    63   32   60 1
    64   33   61 1
    65   33   62 1
    66   34   63 1
    67   34   64 1
    68   35   65 1
    69   35   66 1
@<TRIPOS>PROPERTY_DATA
  Total_Score	| 8.1773
  Crash		| -3.5094
  Polar		| 3.1429
  FragIndex	| 1
  FragRMSD	| 0.826

