@<TRIPOS>MOLECULE
BindingDB_30521
 59 63 0 0 0
SMALL
NO_CHARGES


@<TRIPOS>ATOM
1    C        98.1012    8.8852   53.8632  C     
2    C        98.4043    9.4668   52.5718  C     
3    N        95.8324    9.4947   52.2797  N     
4    C        95.7510    9.1879   53.5895  C     
5    C        96.8390    8.7982   54.3502  C     
6    O        99.1701    8.5538   54.6021  O     
7    O        94.6482    9.1886   54.1249  O     
8    C        96.6890    8.3862   55.6668  C     
9    S        97.3295    6.7621   57.6871  S     
10   N        97.2623    7.2344   56.0707  N     
11   N        96.1327    9.2760   56.5228  N     
12   C        96.2054    9.2242   57.8797  C     
13   C        96.7739    8.1420   58.5824  C     
14   C        96.9467    8.2154   59.9757  C     
15   C        95.7821   10.3611   58.5918  C     
16   C        95.9618   10.4330   59.9810  C     
17   C        96.5620    9.3780   60.6839  C     
18   O        98.8394    6.4716   58.0799  O     
19   O        96.3697    5.5368   58.0027  O     
20   N        96.7820    9.5753   62.0091  N     
21   S        97.3149    8.4511   63.1473  S     
22   C        99.0974    8.2071   63.2117  C     
23   O        96.8509    9.0216   64.5572  O     
24   O        96.5005    7.0985   62.9698  O     
25   C        94.6665    9.4764   51.3800  C     
26   C        99.3791    8.6082   51.7109  C     
27   C        98.9006    8.7862   50.2646  C     
28   C        97.3865    8.8434   50.4571  C     
29   C        97.1479    9.7233   51.6925  C     
30   C        93.9617   10.7744   51.1452  C     
31   C        93.0795   11.2520   52.1498  C     
32   C        92.2230   12.3391   51.8946  C     
33   C        92.2390   12.9710   50.6387  C     
34   C        93.1519   12.5459   49.6430  C     
35   C        94.0336   11.4745   49.8954  C     
36   H        98.8809   10.4330   52.7709  H     
37   H        99.4123    9.3647   55.1121  H     
38   H        95.7706   10.0837   56.1373  H     
39   H        97.4066    7.4402   60.4604  H     
40   H        95.3867   11.1640   58.1019  H     
41   H        95.6807   11.2856   60.4671  H     
42   H        96.6794   10.4838   62.3176  H     
43   H        99.4631    7.8427   62.2538  H     
44   H        99.3366    7.4832   63.9866  H     
45   H        99.5876    9.1517   63.4408  H     
46   H        94.9952    9.0720   50.4129  H     
47   H        93.8984    8.7567   51.7013  H     
48   H       100.4087    8.9495   51.8122  H     
49   H        99.3380    7.5500   51.9783  H     
50   H        99.2675    9.7295   49.8470  H     
51   H        99.2032    7.9573   49.6192  H     
52   H        96.8593    9.3282   49.6429  H     
53   H        96.9866    7.8290   50.6138  H     
54   H        97.1798   10.7788   51.3743  H     
55   H        93.0246   10.7749   53.0520  H     
56   H        91.5697   12.6624   52.6206  H     
57   H        91.6009   13.7471   50.4450  H     
58   H        93.1712   13.0031   48.7309  H     
59   H        94.7072   11.2116   49.1361  H     
@<TRIPOS>BOND
     1    1    2 1
     2    1    5 2
     3    1    6 1
     4    2   26 1
     5    2   29 1
     6    3    4 1
     7    3   25 1
     8    3   29 1
     9    4    5 1
    10    4    7 2
    11    5    8 1
    12    8   10 2
    13    8   11 1
    14    9   10 1
    15    9   13 1
    16    9   18 2
    17    9   19 2
    18   11   12 1
    19   12   13 2
    20   12   15 1
    21   13   14 1
    22   14   17 2
    23   15   16 2
    24   16   17 1
    25   17   20 1
    26   20   21 1
    27   21   22 1
    28   21   23 2
    29   21   24 2
    30   25   30 1
    31   26   27 1
    32   27   28 1
    33   28   29 1
    34   30   31 2
    35   30   35 1
    36   31   32 1
    37   32   33 2
    38   33   34 1
    39   34   35 2
    40    2   36 1
    41    6   37 1
    42   11   38 1
    43   14   39 1
    44   15   40 1
    45   16   41 1
    46   20   42 1
    47   22   43 1
    48   22   44 1
    49   22   45 1
    50   25   46 1
    51   25   47 1
    52   26   48 1
    53   26   49 1
    54   27   50 1
    55   27   51 1
    56   28   52 1
    57   28   53 1
    58   29   54 1
    59   31   55 1
    60   32   56 1
    61   33   57 1
    62   34   58 1
    63   35   59 1
@<TRIPOS>PROPERTY_DATA
  Total_Score	| 6.1581
  Crash		| -2.6136
  Polar		| 1.9666
  FragIndex	| 1
  FragRMSD	| 1.004

