@<TRIPOS>MOLECULE
BindingDB_30451
 60 63 0 0 0
SMALL
NO_CHARGES


@<TRIPOS>ATOM
1    C        97.5036    7.5336   53.1362  C     
2    C        97.5145    7.7259   51.6890  C     
3    N        97.1268    9.0215   51.2965  N     
4    N        96.3243    9.7592   52.0416  N     
5    C        96.1937    9.4557   53.3594  C     
6    C        96.8941    8.4184   53.9678  C     
7    O        95.3568   10.0597   54.0262  O     
8    C        95.5827   10.8962   51.4886  C     
9    C        94.0575   10.6028   51.2929  C     
10   C        93.0932   11.7774   51.6998  C     
11   O        98.0823    6.4146   53.5622  O     
12   C        96.9593    8.2894   55.3871  C     
13   S        97.4052    6.7808   57.5833  S     
14   N        97.2448    7.0822   55.9375  N     
15   N        96.7309    9.3658   56.2006  N     
16   C        96.6938    9.3927   57.5718  C     
17   C        97.0279    8.2753   58.3678  C     
18   O        98.8949    6.3708   57.9561  O     
19   O        96.3509    5.7036   58.0888  O     
20   C        97.0357    8.3607   59.7742  C     
21   C        96.3035   10.5827   58.2224  C     
22   C        96.2794   10.6609   59.6294  C     
23   C        96.6755    9.5629   60.4251  C     
24   N        96.6807    9.7369   61.7789  N     
25   S        97.3345    8.6604   62.9066  S     
26   C        96.7415    6.9608   62.8269  C     
27   O        98.9245    8.7018   62.8771  O     
28   O        96.9440    9.1648   64.3641  O     
29   C        98.9009    7.5262   51.0361  C     
30   C        98.7722    8.3290   49.7397  C     
31   C        97.8104    9.4596   50.1465  C     
32   C        92.5189   12.5302   50.4669  C     
33   C        91.9521   11.3039   52.6400  C     
34   H        96.8042    7.0117   51.2575  H     
35   H        95.7456   11.7446   52.1579  H     
36   H        95.9664   11.2362   50.5271  H     
37   H        93.8934   10.3326   50.2451  H     
38   H        93.7963    9.7033   51.8562  H     
39   H        93.6509   12.5179   52.2783  H     
40   H        99.0071    6.6710   53.7641  H     
41   H        96.5613   10.2107   55.7626  H     
42   H        97.3009    7.5356   60.3302  H     
43   H        96.0248   11.4007   57.6730  H     
44   H        95.9904   11.5411   60.0698  H     
45   H        96.5120   10.6367   62.0998  H     
46   H        95.6615    6.9439   62.9853  H     
47   H        97.2355    6.3706   63.6041  H     
48   H        96.9688    6.5420   61.8400  H     
49   H        99.6970    7.9526   51.6565  H     
50   H        99.1154    6.4718   50.8418  H     
51   H        99.7381    8.7083   49.3922  H     
52   H        98.3275    7.7082   48.9547  H     
53   H        97.1240    9.6655   49.3242  H     
54   H        98.3799   10.3635   50.3779  H     
55   H        93.3319   12.8947   49.8358  H     
56   H        91.9242   13.3901   50.7851  H     
57   H        91.8826   11.8680   49.8757  H     
58   H        91.3504   10.5303   52.1597  H     
59   H        91.3027   12.1383   52.9118  H     
60   H        92.3775   10.8971   53.5603  H     
@<TRIPOS>BOND
     1    1    2 1
     2    1    6 2
     3    1   11 1
     4    2    3 1
     5    2   29 1
     6    3    4 1
     7    3   31 1
     8    4    5 1
     9    4    8 1
    10    5    6 1
    11    5    7 2
    12    6   12 1
    13    8    9 1
    14    9   10 1
    15   10   32 1
    16   10   33 1
    17   12   14 2
    18   12   15 1
    19   13   14 1
    20   13   17 1
    21   13   18 2
    22   13   19 2
    23   15   16 1
    24   16   17 2
    25   16   21 1
    26   17   20 1
    27   20   23 2
    28   21   22 2
    29   22   23 1
    30   23   24 1
    31   24   25 1
    32   25   26 1
    33   25   27 2
    34   25   28 2
    35   29   30 1
    36   30   31 1
    37    2   34 1
    38    8   35 1
    39    8   36 1
    40    9   37 1
    41    9   38 1
    42   10   39 1
    43   11   40 1
    44   15   41 1
    45   20   42 1
    46   21   43 1
    47   22   44 1
    48   24   45 1
    49   26   46 1
    50   26   47 1
    51   26   48 1
    52   29   49 1
    53   29   50 1
    54   30   51 1
    55   30   52 1
    56   31   53 1
    57   31   54 1
    58   32   55 1
    59   32   56 1
    60   32   57 1
    61   33   58 1
    62   33   59 1
    63   33   60 1
@<TRIPOS>PROPERTY_DATA
  Total_Score	| 9.0468
  Crash		| -2.4183
  Polar		| 3.4499
  FragIndex	| 1
  FragRMSD	| 0.822

