@<TRIPOS>MOLECULE
BindingDB_30453
 66 69 0 0 0
SMALL
NO_CHARGES


@<TRIPOS>ATOM
1    C        97.4194    7.6004   53.2293  C     
2    C        97.3355    7.9026   51.8026  C     
3    N        96.8253    9.1849   51.5346  N     
4    N        96.0196    9.8032   52.3786  N     
5    C        95.9916    9.3922   53.6689  C     
6    C        96.8318    8.4010   54.1540  C     
7    O        95.0972    9.7873   54.4128  O     
8    C        95.0759   10.8200   51.9037  C     
9    C        93.8324   10.1518   51.2325  C     
10   C        92.5634   11.0522   50.9754  C     
11   O        98.0854    6.4948   53.5419  O     
12   C        97.0720    8.2449   55.5410  C     
13   S        97.6880    6.7081   57.6749  S     
14   N        97.3569    7.0180   56.0532  N     
15   N        97.0232    9.3363   56.3613  N     
16   C        97.2810    9.3890   57.7015  C     
17   C        97.6585    8.2549   58.4596  C     
18   O        99.1235    6.0636   57.9027  O     
19   O        96.5371    5.8281   58.3324  O     
20   C        97.9778    8.3717   59.8267  C     
21   C        97.1768   10.6268   58.3623  C     
22   C        97.4390   10.7327   59.7431  C     
23   C        97.8553    9.6069   60.5073  C     
24   N        98.1162    9.7049   61.8621  N     
25   S        97.4963    8.5675   62.9618  S     
26   C        96.4517    7.2675   62.2693  C     
27   O        98.7006    7.8752   63.7436  O     
28   O        96.6013    9.2797   64.0689  O     
29   C        98.6992    7.8793   51.0800  C     
30   C        98.4482    8.7817   49.8675  C     
31   C        97.4189    9.7892   50.4074  C     
32   C        92.2057   11.9023   52.2393  C     
33   C        92.7784   11.9941   49.7452  C     
34   C        91.3528   10.1132   50.6615  C     
35   C        99.0281   10.7083   62.3647  C     
36   H        96.6680    7.1648   51.3453  H     
37   H        94.7798   11.4654   52.7377  H     
38   H        95.5395   11.5039   51.1864  H     
39   H        94.1719    9.7398   50.2751  H     
40   H        93.5175    9.3040   51.8505  H     
41   H        99.0165    6.7788   53.6268  H     
42   H        96.8225   10.1852   55.9424  H     
43   H        98.3180    7.5511   60.3300  H     
44   H        96.9012   11.4635   57.8381  H     
45   H        97.3325   11.6505   60.1872  H     
46   H        95.6583    7.7237   61.6746  H     
47   H        96.0015    6.6835   63.0737  H     
48   H        97.0425    6.6033   61.6375  H     
49   H        99.4880    8.3164   51.7031  H     
50   H        98.9911    6.8682   50.7790  H     
51   H        99.3654    9.2796   49.5276  H     
52   H        98.0256    8.2006   49.0425  H     
53   H        96.6723   10.0125   49.6421  H     
54   H        97.9241   10.7077   50.7160  H     
55   H        92.0768   11.2490   53.1110  H     
56   H        91.2740   12.4621   52.0863  H     
57   H        92.9927   12.6302   52.4544  H     
58   H        93.6066   12.6823   49.9251  H     
59   H        91.8783   12.5929   49.5569  H     
60   H        93.0024   11.4170   48.8386  H     
61   H        91.5278    9.5396   49.7429  H     
62   H        90.4278   10.6892   50.5286  H     
63   H        91.1969    9.4016   51.4792  H     
64   H        99.9951   10.6127   61.8568  H     
65   H        99.2133   10.6346   63.4442  H     
66   H        98.6272   11.7077   62.1736  H     
@<TRIPOS>BOND
     1    1    2 1
     2    1    6 2
     3    1   11 1
     4    2    3 1
     5    2   29 1
     6    3    4 1
     7    3   31 1
     8    4    5 1
     9    4    8 1
    10    5    6 1
    11    5    7 2
    12    6   12 1
    13    8    9 1
    14    9   10 1
    15   10   32 1
    16   10   33 1
    17   10   34 1
    18   12   14 2
    19   12   15 1
    20   13   14 1
    21   13   17 1
    22   13   18 2
    23   13   19 2
    24   15   16 1
    25   16   17 2
    26   16   21 1
    27   17   20 1
    28   20   23 2
    29   21   22 2
    30   22   23 1
    31   23   24 1
    32   24   25 1
    33   24   35 1
    34   25   26 1
    35   25   27 2
    36   25   28 2
    37   29   30 1
    38   30   31 1
    39    2   36 1
    40    8   37 1
    41    8   38 1
    42    9   39 1
    43    9   40 1
    44   11   41 1
    45   15   42 1
    46   20   43 1
    47   21   44 1
    48   22   45 1
    49   26   46 1
    50   26   47 1
    51   26   48 1
    52   29   49 1
    53   29   50 1
    54   30   51 1
    55   30   52 1
    56   31   53 1
    57   31   54 1
    58   32   55 1
    59   32   56 1
    60   32   57 1
    61   33   58 1
    62   33   59 1
    63   33   60 1
    64   34   61 1
    65   34   62 1
    66   34   63 1
    67   35   64 1
    68   35   65 1
    69   35   66 1
@<TRIPOS>PROPERTY_DATA
  Total_Score	| 7.8613
  Crash		| -1.9989
  Polar		| 2.1703
  FragIndex	| 1
  FragRMSD	| 0.803

