@<TRIPOS>MOLECULE
BindingDB_30456
 61 65 0 0 0
SMALL
NO_CHARGES


@<TRIPOS>ATOM
1    C        97.2395    7.7506   53.3854  C     
2    C        97.3019    8.0796   51.9654  C     
3    N        96.7258    9.3519   51.6244  N     
4    N        96.2668   10.1817   52.5642  N     
5    C        96.5085    9.9120   53.8662  C     
6    C        96.8605    8.6521   54.3150  C     
7    O        96.4807   10.8238   54.6901  O     
8    C        95.4201   11.3446   52.2402  C     
9    C        94.0276   10.9289   51.9154  C     
10   O        97.5571    6.4959   53.7034  O     
11   C        96.7794    8.3148   55.6833  C     
12   S        97.4320    6.7308   57.7513  S     
13   N        97.3860    7.1903   56.1366  N     
14   N        96.1742    9.1727   56.5476  N     
15   C        96.2720    9.1679   57.9040  C     
16   C        96.8585    8.1082   58.6273  C     
17   O        96.4905    5.4850   58.0688  O     
18   O        98.9442    6.4924   58.1890  O     
19   C        97.0361    8.2088   60.0203  C     
20   C        95.8397   10.3171   58.5973  C     
21   C        96.0458   10.4302   59.9846  C     
22   C        96.6483    9.3826   60.7120  C     
23   N        96.8502    9.5917   62.0445  N     
24   S        97.3096    8.4406   63.1868  S     
25   C        99.0832    8.1638   63.3336  C     
26   O        96.8089    8.9883   64.5913  O     
27   O        96.5201    7.0787   62.9854  O     
28   C        98.7900    7.9804   51.4935  C     
29   C        98.9410    8.3328   49.9943  C     
30   C        98.2231    9.6666   49.6913  C     
31   C        96.7661    9.6461   50.2260  C     
32   C        93.4037   11.3086   50.7041  C     
33   C        92.0833   10.9143   50.4204  C     
34   C        91.3669   10.1361   51.3496  C     
35   C        91.9675    9.7700   52.5667  C     
36   C        93.2872   10.1658   52.8501  C     
37   F        90.1441    9.7672   51.0854  F     
38   H        96.7183    7.3057   51.4520  H     
39   H        95.3169   12.0621   53.0587  H     
40   H        95.8814   11.9373   51.4496  H     
41   H        98.5173    6.5270   53.8996  H     
42   H        95.7347    9.9464   56.1586  H     
43   H        97.4855    7.4405   60.5129  H     
44   H        95.4100   11.0940   58.0907  H     
45   H        95.7498   11.2901   60.4571  H     
46   H        96.6592   10.4930   62.3891  H     
47   H        99.4714    7.7090   62.4265  H     
48   H        99.2814    7.5052   64.1774  H     
49   H        99.5895    9.1120   63.4998  H     
50   H        99.4070    8.6669   52.0801  H     
51   H        99.1781    6.9683   51.6485  H     
52   H       100.0003    8.4206   49.7352  H     
53   H        98.5121    7.5356   49.3805  H     
54   H        98.7700   10.4848   50.1681  H     
55   H        98.2244    9.8420   48.6120  H     
56   H        96.1828    8.8909   49.7007  H     
57   H        96.3376   10.5997   49.9371  H     
58   H        93.9065   11.8709   50.0147  H     
59   H        91.6482   11.1952   49.5404  H     
60   H        91.4473    9.2183   53.2536  H     
61   H        93.7026    9.8927   53.7448  H     
@<TRIPOS>BOND
     1    1    2 1
     2    1    6 2
     3    1   10 1
     4    2    3 1
     5    2   28 1
     6    3    4 1
     7    3   31 1
     8    4    5 1
     9    4    8 1
    10    5    6 1
    11    5    7 2
    12    6   11 1
    13    8    9 1
    14    9   32 2
    15    9   36 1
    16   11   13 2
    17   11   14 1
    18   12   13 1
    19   12   16 1
    20   12   17 2
    21   12   18 2
    22   14   15 1
    23   15   16 1
    24   15   20 2
    25   16   19 2
    26   19   22 1
    27   20   21 1
    28   21   22 2
    29   22   23 1
    30   23   24 1
    31   24   25 1
    32   24   26 2
    33   24   27 2
    34   28   29 1
    35   29   30 1
    36   30   31 1
    37   32   33 1
    38   33   34 2
    39   34   35 1
    40   34   37 1
    41   35   36 2
    42    2   38 1
    43    8   39 1
    44    8   40 1
    45   10   41 1
    46   14   42 1
    47   19   43 1
    48   20   44 1
    49   21   45 1
    50   23   46 1
    51   25   47 1
    52   25   48 1
    53   25   49 1
    54   28   50 1
    55   28   51 1
    56   29   52 1
    57   29   53 1
    58   30   54 1
    59   30   55 1
    60   31   56 1
    61   31   57 1
    62   32   58 1
    63   33   59 1
    64   35   60 1
    65   36   61 1
@<TRIPOS>PROPERTY_DATA
  Total_Score	| 7.2317
  Crash		| -2.6987
  Polar		| 2.8812
  FragIndex	| 1
  FragRMSD	| 0.718

