@<TRIPOS>MOLECULE
BindingDB_30452
 63 66 0 0 0
SMALL
NO_CHARGES


@<TRIPOS>ATOM
1    C        97.3213    7.5848   53.2035  C     
2    C        97.3473    7.9765   51.7972  C     
3    N        96.8063    9.2516   51.5618  N     
4    N        95.8880    9.7694   52.3579  N     
5    C        95.7645    9.2693   53.6167  C     
6    C        96.6256    8.2977   54.1266  C     
7    O        94.7814    9.5912   54.2849  O     
8    C        94.9836   10.8201   51.8833  C     
9    C        93.6776   10.2033   51.2994  C     
10   C        92.4720   11.1605   50.9821  C     
11   O        97.9448    6.4464   53.4809  O     
12   C        96.7873    8.0969   55.5269  C     
13   S        97.5538    6.6944   57.7152  S     
14   N        97.3732    6.9809   56.0699  N     
15   N        96.3904    9.0861   56.3866  N     
16   C        96.4789    9.1704   57.7404  C     
17   C        96.9905    8.1163   58.5325  C     
18   O        96.6919    5.4294   58.1735  O     
19   O        99.1050    6.5429   58.0463  O     
20   C        97.0855    8.2365   59.9302  C     
21   C        96.0601   10.3615   58.3851  C     
22   C        96.1563   10.4889   59.7807  C     
23   C        96.6704    9.4335   60.5749  C     
24   N        96.7693    9.6477   61.9165  N     
25   S        97.2899    8.5291   63.0748  S     
26   C        99.0680    8.2064   63.1410  C     
27   O        96.8922    9.1514   64.4864  O     
28   O        96.4270    7.1874   62.9887  O     
29   C        98.7617    8.0449   51.1807  C     
30   C        98.5619    8.9890   49.9918  C     
31   C        97.4304    9.9080   50.4834  C     
32   C        91.2314   10.2760   50.6167  C     
33   C        92.0982   12.0422   52.2192  C     
34   C        92.7804   12.0788   49.7519  C     
35   H        96.7497    7.2526   51.2384  H     
36   H        94.7498   11.5069   52.7006  H     
37   H        95.4327   11.4402   51.1075  H     
38   H        93.9516    9.6811   50.3774  H     
39   H        93.3281    9.4425   52.0047  H     
40   H        98.8969    6.6849   53.4865  H     
41   H        97.7295    6.3036   55.4759  H     
42   H        97.4769    7.4588   60.4728  H     
43   H        95.7011   11.1420   57.8270  H     
44   H        95.8513   11.3676   60.2254  H     
45   H        96.5203   10.5262   62.2446  H     
46   H        99.4032    7.7450   62.2086  H     
47   H        99.2793    7.5324   63.9754  H     
48   H        99.5972    9.1496   63.2926  H     
49   H        99.4813    8.4802   51.8824  H     
50   H        99.1131    7.0581   50.8592  H     
51   H        99.4741    9.5459   49.7527  H     
52   H        98.2495    8.4152   49.1116  H     
53   H        96.7348   10.1021   49.6592  H     
54   H        97.8522   10.8573   50.8308  H     
55   H        91.4481    9.6511   49.7455  H     
56   H        90.3618   10.8953   50.3834  H     
57   H        90.9650    9.6187   51.4485  H     
58   H        91.8933   11.4137   53.0882  H     
59   H        91.2180   12.6511   52.0127  H     
60   H        92.9107   12.7229   52.4726  H     
61   H        93.5816   12.7826   49.9779  H     
62   H        91.8975   12.6609   49.4704  H     
63   H        93.0839   11.4810   48.8860  H     
@<TRIPOS>BOND
     1    1    2 1
     2    1    6 2
     3    1   11 1
     4    2    3 1
     5    2   29 1
     6    3    4 1
     7    3   31 1
     8    4    5 1
     9    4    8 1
    10    5    6 1
    11    5    7 2
    12    6   12 1
    13    8    9 1
    14    9   10 1
    15   10   32 1
    16   10   33 1
    17   10   34 1
    18   12   14 1
    19   12   15 2
    20   13   14 1
    21   13   17 1
    22   13   18 2
    23   13   19 2
    24   15   16 1
    25   16   17 2
    26   16   21 1
    27   17   20 1
    28   20   23 2
    29   21   22 2
    30   22   23 1
    31   23   24 1
    32   24   25 1
    33   25   26 1
    34   25   27 2
    35   25   28 2
    36   29   30 1
    37   30   31 1
    38    2   35 1
    39    8   36 1
    40    8   37 1
    41    9   38 1
    42    9   39 1
    43   11   40 1
    44   14   41 1
    45   20   42 1
    46   21   43 1
    47   22   44 1
    48   24   45 1
    49   26   46 1
    50   26   47 1
    51   26   48 1
    52   29   49 1
    53   29   50 1
    54   30   51 1
    55   30   52 1
    56   31   53 1
    57   31   54 1
    58   32   55 1
    59   32   56 1
    60   32   57 1
    61   33   58 1
    62   33   59 1
    63   33   60 1
    64   34   61 1
    65   34   62 1
    66   34   63 1
@<TRIPOS>PROPERTY_DATA
  Total_Score	| 9.2556
  Crash		| -1.6998
  Polar		| 3.2312
  FragIndex	| 1
  FragRMSD	| 0.296

