@<TRIPOS>MOLECULE
BindingDB_30537
 61 64 0 0 0
SMALL
NO_CHARGES


@<TRIPOS>ATOM
1    C        97.2287    7.5166   53.1843  C     
2    C        97.2093    7.6245   51.7322  C     
3    N        95.6514    9.6058   52.1528  N     
4    C        95.7409    9.3258   53.4720  C     
5    C        96.5802    8.3610   54.0310  C     
6    O        97.9550    6.4884   53.6199  O     
7    O        94.9707    9.9110   54.2295  O     
8    C        96.7531    8.2618   55.4428  C     
9    S        97.4157    6.7984   57.6222  S     
10   N        97.1093    7.0772   55.9941  N     
11   N        96.5636    9.3467   56.2531  N     
12   C        96.6171    9.3893   57.6229  C     
13   C        97.0456    8.2944   58.4036  C     
14   C        97.1285    8.3897   59.8031  C     
15   C        96.2023   10.5626   58.2858  C     
16   C        96.2397   10.6462   59.6926  C     
17   C        96.7212    9.5681   60.4703  C     
18   O        98.9477    6.4618   57.8828  O     
19   O        96.4236    5.7007   58.2056  O     
20   N        96.7430    9.7173   61.8288  N     
21   S        97.3755    8.6181   62.9446  S     
22   C        96.7555    6.9325   62.8154  C     
23   O        98.9635    8.6098   62.8633  O     
24   O        96.9881    9.1323   64.3963  O     
25   C        94.7474   10.6414   51.6400  C     
26   C        96.4138    8.8423   51.1769  C     
27   C        93.2472   10.2176   51.6747  C     
28   C        98.6386    7.7275   51.1244  C     
29   C        98.5178    8.6832   49.9315  C     
30   C        97.4553    9.6875   50.3984  C     
31   C        92.2034   11.2553   51.1501  C     
32   C        91.8668   12.3468   52.2029  C     
33   C        92.5892   11.8857   49.7841  C     
34   H        96.7436    6.7044   51.3579  H     
35   H        98.8494    6.8569   53.7795  H     
36   H        96.3409   10.1830   55.8125  H     
37   H        97.4768    7.5868   60.3354  H     
38   H        95.8427   11.3576   57.7473  H     
39   H        95.9094   11.5046   60.1492  H     
40   H        96.4719   10.5757   62.1886  H     
41   H        95.6779    6.9241   62.9752  H     
42   H        97.2367    6.3113   63.5724  H     
43   H        96.9730    6.5279   61.8226  H     
44   H        94.8940   11.5651   52.2047  H     
45   H        94.9846   10.8877   50.6021  H     
46   H        95.6996    8.4498   50.4453  H     
47   H        93.1508    9.3107   51.0745  H     
48   H        92.9636    9.9422   52.6924  H     
49   H        99.3479    8.1540   51.8429  H     
50   H        99.0138    6.7504   50.8074  H     
51   H        99.4679    9.1754   49.7032  H     
52   H        98.1721    8.1423   49.0448  H     
53   H        97.0113   10.1971   49.5396  H     
54   H        97.9156   10.4317   51.0559  H     
55   H        91.2719   10.7023   50.9837  H     
56   H        91.4775   11.8855   53.1132  H     
57   H        91.1053   13.0288   51.8186  H     
58   H        92.7520   12.9286   52.4595  H     
59   H        93.4526   12.5455   49.8898  H     
60   H        91.7564   12.4693   49.3861  H     
61   H        92.8289   11.1037   49.0612  H     
@<TRIPOS>BOND
     1    1    2 1
     2    1    5 2
     3    1    6 1
     4    2   26 1
     5    2   28 1
     6    3    4 1
     7    3   25 1
     8    3   26 1
     9    4    5 1
    10    4    7 2
    11    5    8 1
    12    8   10 2
    13    8   11 1
    14    9   10 1
    15    9   13 1
    16    9   18 2
    17    9   19 2
    18   11   12 1
    19   12   13 2
    20   12   15 1
    21   13   14 1
    22   14   17 2
    23   15   16 2
    24   16   17 1
    25   17   20 1
    26   20   21 1
    27   21   22 1
    28   21   23 2
    29   21   24 2
    30   25   27 1
    31   26   30 1
    32   27   31 1
    33   28   29 1
    34   29   30 1
    35   31   32 1
    36   31   33 1
    37    2   34 1
    38    6   35 1
    39   11   36 1
    40   14   37 1
    41   15   38 1
    42   16   39 1
    43   20   40 1
    44   22   41 1
    45   22   42 1
    46   22   43 1
    47   25   44 1
    48   25   45 1
    49   26   46 1
    50   27   47 1
    51   27   48 1
    52   28   49 1
    53   28   50 1
    54   29   51 1
    55   29   52 1
    56   30   53 1
    57   30   54 1
    58   31   55 1
    59   32   56 1
    60   32   57 1
    61   32   58 1
    62   33   59 1
    63   33   60 1
    64   33   61 1
@<TRIPOS>PROPERTY_DATA
  Total_Score	| 9.1277
  Crash		| -2.1157
  Polar		| 3.3675
  FragIndex	| 1
  FragRMSD	| 0.919

