@<TRIPOS>MOLECULE
BindingDB_30538
 64 67 0 0 0
SMALL
NO_CHARGES


@<TRIPOS>ATOM
1    C        97.2492    7.4759   53.2105  C     
2    C        97.2141    7.5575   51.7592  C     
3    N        95.8188    9.6851   52.1677  N     
4    C        95.8314    9.3456   53.4785  C     
5    C        96.6189    8.3460   54.0510  C     
6    O        97.9864    6.4576   53.6573  O     
7    O        95.0595    9.9380   54.2277  O     
8    C        96.7817    8.2365   55.4733  C     
9    S        97.3843    6.7394   57.6574  S     
10   N        97.0739    7.0328   56.0285  N     
11   N        96.6500    9.3295   56.2911  N     
12   C        96.6782    9.3541   57.6649  C     
13   C        97.0004    8.2264   58.4495  C     
14   C        97.0176    8.3030   59.8540  C     
15   C        96.3417   10.5571   58.3246  C     
16   C        96.3415   10.6293   59.7336  C     
17   C        96.6942    9.5079   60.5163  C     
18   O        98.9163    6.4012   57.8977  O     
19   O        96.4337    5.5966   58.2276  O     
20   N        96.6971    9.6584   61.8701  N     
21   S        97.2557    8.5366   63.0024  S     
22   C        99.0427    8.2888   62.9908  C     
23   O        96.8803    9.1058   64.4406  O     
24   O        96.4498    7.1692   62.9069  O     
25   C        95.2126   10.9331   51.6515  C     
26   C        96.4941    8.8251   51.2020  C     
27   C        94.0557   10.8129   50.5989  C     
28   C        98.6392    7.5325   51.1296  C     
29   C        98.6054    8.4983   49.9406  C     
30   C        97.6017    9.5609   50.3953  C     
31   C        92.5655   10.9136   51.1142  C     
32   C        91.5770   10.6357   49.9319  C     
33   C        92.2808    9.8628   52.2305  C     
34   C        92.2484   12.3519   51.6446  C     
35   H        96.6805    6.6693   51.4179  H     
36   H        98.8650    6.8523   53.8532  H     
37   H        96.4876   10.1767   55.8516  H     
38   H        97.2659    7.4640   60.3882  H     
39   H        96.0834   11.3898   57.7819  H     
40   H        96.0869   11.5116   60.1819  H     
41   H        96.4967   10.5419   62.2104  H     
42   H        99.3449    7.8717   62.0306  H     
43   H        99.3301    7.6015   63.7876  H     
44   H        99.5464    9.2445   63.1417  H     
45   H        94.8825   11.5994   52.4423  H     
46   H        96.0208   11.4903   51.1782  H     
47   H        95.6902    8.4908   50.5109  H     
48   H        94.1813   11.6161   49.8637  H     
49   H        94.2202    9.8723   50.0414  H     
50   H        99.3993    7.8845   51.8393  H     
51   H        98.9164    6.5251   50.8060  H     
52   H        99.5909    8.9333   49.7426  H     
53   H        98.2532    7.9873   49.0410  H     
54   H        97.1847   10.0879   49.5360  H     
55   H        98.1232   10.2794   51.0356  H     
56   H        91.7314   11.3459   49.1143  H     
57   H        90.5336   10.7240   50.2575  H     
58   H        91.7210    9.6272   49.5387  H     
59   H        92.5436    8.8577   51.8951  H     
60   H        91.2247    9.8629   52.5181  H     
61   H        92.8575   10.0883   53.1246  H     
62   H        92.8546   12.6099   52.5174  H     
63   H        91.2006   12.4462   51.9478  H     
64   H        92.4395   13.1005   50.8663  H     
@<TRIPOS>BOND
     1    1    2 1
     2    1    5 2
     3    1    6 1
     4    2   26 1
     5    2   28 1
     6    3    4 1
     7    3   25 1
     8    3   26 1
     9    4    5 1
    10    4    7 2
    11    5    8 1
    12    8   10 2
    13    8   11 1
    14    9   10 1
    15    9   13 1
    16    9   18 2
    17    9   19 2
    18   11   12 1
    19   12   13 2
    20   12   15 1
    21   13   14 1
    22   14   17 2
    23   15   16 2
    24   16   17 1
    25   17   20 1
    26   20   21 1
    27   21   22 1
    28   21   23 2
    29   21   24 2
    30   25   27 1
    31   26   30 1
    32   27   31 1
    33   28   29 1
    34   29   30 1
    35   31   32 1
    36   31   33 1
    37   31   34 1
    38    2   35 1
    39    6   36 1
    40   11   37 1
    41   14   38 1
    42   15   39 1
    43   16   40 1
    44   20   41 1
    45   22   42 1
    46   22   43 1
    47   22   44 1
    48   25   45 1
    49   25   46 1
    50   26   47 1
    51   27   48 1
    52   27   49 1
    53   28   50 1
    54   28   51 1
    55   29   52 1
    56   29   53 1
    57   30   54 1
    58   30   55 1
    59   32   56 1
    60   32   57 1
    61   32   58 1
    62   33   59 1
    63   33   60 1
    64   33   61 1
    65   34   62 1
    66   34   63 1
    67   34   64 1
@<TRIPOS>PROPERTY_DATA
  Total_Score	| 10.1268
  Crash		| -1.5398
  Polar		| 3.3320
  FragIndex	| 1
  FragRMSD	| 0.468

