@<TRIPOS>MOLECULE
BindingDB_30516
 61 64 0 0 0
SMALL
NO_CHARGES


@<TRIPOS>ATOM
1    C        98.1823    8.3655   53.5138  C     
2    C        98.5160    8.8904   52.1953  C     
3    N        96.2334   10.0399   52.3532  N     
4    C        96.0552    9.4103   53.5284  C     
5    C        97.0373    8.6757   54.1673  C     
6    O        99.1601    7.6778   54.1171  O     
7    O        94.9624    9.5089   54.0869  O     
8    C        96.9361    8.3936   55.5393  C     
9    S        97.3825    6.7758   57.6378  S     
10   N        97.3139    7.1745   56.0050  N     
11   N        96.5321    9.3829   56.3873  N     
12   C        96.5107    9.3396   57.7597  C     
13   C        96.9377    8.2123   58.4984  C     
14   C        97.0038    8.2601   59.9027  C     
15   C        96.1213   10.4978   58.4524  C     
16   C        96.1667   10.5447   59.8597  C     
17   C        96.6406    9.4330   60.6007  C     
18   O        98.8679    6.3755   58.0532  O     
19   O        96.3334    5.6372   58.0005  O     
20   N        96.7087    9.5770   61.9568  N     
21   S        97.2332    8.4273   63.0698  S     
22   C        99.0189    8.1839   63.0759  C     
23   O        96.8025    8.9575   64.5073  O     
24   O        96.4986    7.0148   62.8877  O     
25   C        95.2606   11.0186   51.8622  C     
26   C        98.7806    7.7900   51.1332  C     
27   C        98.4350    8.4758   49.8058  C     
28   C        97.2061    9.3211   50.1519  C     
29   C        97.4565    9.8638   51.5808  C     
30   C        94.0191   10.4111   51.1416  C     
31   C        92.9577   11.4645   50.6623  C     
32   C        92.0426   10.8853   49.5462  C     
33   C        92.0848   12.0138   51.8274  C     
34   H        99.4544    9.4536   52.3235  H     
35   H        99.3026    6.8682   53.5838  H     
36   H        96.2920   10.2350   55.9810  H     
37   H        97.3556    7.4467   60.4019  H     
38   H        95.8003   11.3267   57.9460  H     
39   H        95.8937   11.4016   60.3440  H     
40   H        96.5839   10.4767   62.3084  H     
41   H        99.3453    7.8028   62.1035  H     
42   H        99.2931    7.4652   63.8505  H     
43   H        99.5163    9.1362   63.2727  H     
44   H        94.9387   11.6175   52.7112  H     
45   H        95.7189   11.7104   51.1504  H     
46   H        99.8117    7.4554   51.1451  H     
47   H        98.1257    6.9298   51.2803  H     
48   H        99.2611    9.1203   49.4779  H     
49   H        98.2205    7.7502   49.0144  H     
50   H        97.0686   10.1300   49.4276  H     
51   H        96.3175    8.6925   50.1293  H     
52   H        97.9405   10.8503   51.4855  H     
53   H        94.3930    9.8624   50.2675  H     
54   H        93.5104    9.6768   51.7719  H     
55   H        93.4917   12.3100   50.2242  H     
56   H        92.6445   10.5542   48.6971  H     
57   H        91.3488   11.6511   49.1884  H     
58   H        91.4727   10.0325   49.9314  H     
59   H        91.4928   11.2089   52.2727  H     
60   H        91.4031   12.7858   51.4593  H     
61   H        92.7040   12.4594   52.6057  H     
@<TRIPOS>BOND
     1    1    2 1
     2    1    5 2
     3    1    6 1
     4    2   26 1
     5    2   29 1
     6    3    4 1
     7    3   25 1
     8    3   29 1
     9    4    5 1
    10    4    7 2
    11    5    8 1
    12    8   10 2
    13    8   11 1
    14    9   10 1
    15    9   13 1
    16    9   18 2
    17    9   19 2
    18   11   12 1
    19   12   13 2
    20   12   15 1
    21   13   14 1
    22   14   17 2
    23   15   16 2
    24   16   17 1
    25   17   20 1
    26   20   21 1
    27   21   22 1
    28   21   23 2
    29   21   24 2
    30   25   30 1
    31   26   27 1
    32   27   28 1
    33   28   29 1
    34   30   31 1
    35   31   32 1
    36   31   33 1
    37    2   34 1
    38    6   35 1
    39   11   36 1
    40   14   37 1
    41   15   38 1
    42   16   39 1
    43   20   40 1
    44   22   41 1
    45   22   42 1
    46   22   43 1
    47   25   44 1
    48   25   45 1
    49   26   46 1
    50   26   47 1
    51   27   48 1
    52   27   49 1
    53   28   50 1
    54   28   51 1
    55   29   52 1
    56   30   53 1
    57   30   54 1
    58   31   55 1
    59   32   56 1
    60   32   57 1
    61   32   58 1
    62   33   59 1
    63   33   60 1
    64   33   61 1
@<TRIPOS>PROPERTY_DATA
  Total_Score	| 7.0668
  Crash		| -1.5954
  Polar		| 2.0844
  FragIndex	| 1
  FragRMSD	| 0.594

