@<TRIPOS>MOLECULE
BindingDB_30510
 70 73 0 0 0
SMALL
NO_CHARGES


@<TRIPOS>ATOM
1    C        97.4168    7.4610   53.1578  C     
2    C        97.3322    7.6406   51.6959  C     
3    N        96.0769    9.7114   52.2270  N     
4    C        95.8915    9.2119   53.4724  C     
5    C        96.7318    8.2562   54.0225  C     
6    O        98.1039    6.4009   53.5759  O     
7    O        94.8433    9.4628   54.0599  O     
8    C        97.1090    9.1563   51.3587  C     
9    C        96.8696    8.1760   55.4446  C     
10   S        97.7291    6.8674   57.6549  S     
11   N        97.4278    7.0863   56.0110  N     
12   N        96.4494    9.1978   56.2432  N     
13   C        96.4531    9.2543   57.6143  C     
14   C        97.0326    8.2473   58.4114  C     
15   C        97.0476    8.3584   59.8141  C     
16   C        95.8445   10.3549   58.2506  C     
17   C        95.8425   10.4604   59.6541  C     
18   C        96.4914    9.4853   60.4471  C     
19   O        99.2870    6.8950   57.9703  O     
20   O        96.9939    5.6032   58.2688  O     
21   N        96.4809    9.6550   61.7914  N     
22   S        97.2763    8.6388   62.8853  S     
23   C        96.7503    6.9371   62.6902  C     
24   O        98.8681    8.6005   62.7897  O     
25   O        96.9754    9.1041   64.3706  O     
26   C        95.1750   10.7309   51.7055  C     
27   C        93.8234   10.1537   51.1727  C     
28   C        98.4482    6.9372   50.8496  C     
29   C        99.9126    7.3864   51.1221  C     
30   C       100.3828    8.6465   50.3490  C     
31   C        99.3695    9.8158   50.2146  C     
32   C        98.3996   10.0371   51.4092  C     
33   C        92.5269   11.0649   50.9584  C     
34   C        92.7639   12.0270   49.7466  C     
35   C        91.3084   10.1562   50.5987  C     
36   C        92.1163   11.9503   52.1805  C     
37   H        96.4034    7.1358   51.4138  H     
38   H        98.9291    6.7689   53.9513  H     
39   H        96.7285    9.1872   50.3310  H     
40   H        96.0674    9.9740   55.8113  H     
41   H        97.4389    7.5868   60.3579  H     
42   H        95.3988   11.0944   57.6972  H     
43   H        95.3849   11.2599   60.0975  H     
44   H        96.3008   10.5587   62.1036  H     
45   H        95.6916    6.8562   62.9349  H     
46   H        97.3377    6.3017   63.3532  H     
47   H        96.8992    6.6133   61.6624  H     
48   H        95.0300   11.4743   52.4839  H     
49   H        95.6672   11.2854   50.9026  H     
50   H        94.0825    9.6649   50.2285  H     
51   H        93.5517    9.3210   51.8253  H     
52   H        98.3864    5.8624   51.0446  H     
53   H        98.2346    7.0660   49.7873  H     
54   H       100.0559    7.5541   52.1898  H     
55   H       100.5799    6.5655   50.8456  H     
56   H       101.2865    9.0212   50.8384  H     
57   H       100.6795    8.3427   49.3399  H     
58   H        99.9457   10.7338   50.0660  H     
59   H        98.7906    9.6706   49.2980  H     
60   H        98.0995   11.0879   51.3870  H     
61   H        98.9210    9.8790   52.3552  H     
62   H        93.5623   12.7362   49.9708  H     
63   H        91.8603   12.5975   49.5064  H     
64   H        93.0519   11.4555   48.8635  H     
65   H        91.5013    9.5879   49.6840  H     
66   H        90.4089   10.7522   50.4241  H     
67   H        91.1067    9.4423   51.4040  H     
68   H        91.6890   11.3586   52.9902  H     
69   H        91.3421   12.6736   51.9032  H     
70   H        92.9736   12.5091   52.5516  H     
@<TRIPOS>BOND
     1    1    2 1
     2    1    5 2
     3    1    6 1
     4    2    8 1
     5    2   28 1
     6    3    4 1
     7    3    8 1
     8    3   26 1
     9    4    5 1
    10    4    7 2
    11    5    9 1
    12    8   32 1
    13    9   11 2
    14    9   12 1
    15   10   11 1
    16   10   14 1
    17   10   19 2
    18   10   20 2
    19   12   13 1
    20   13   14 2
    21   13   16 1
    22   14   15 1
    23   15   18 2
    24   16   17 2
    25   17   18 1
    26   18   21 1
    27   21   22 1
    28   22   23 1
    29   22   24 2
    30   22   25 2
    31   26   27 1
    32   27   33 1
    33   28   29 1
    34   29   30 1
    35   30   31 1
    36   31   32 1
    37   33   34 1
    38   33   35 1
    39   33   36 1
    40    2   37 1
    41    6   38 1
    42    8   39 1
    43   12   40 1
    44   15   41 1
    45   16   42 1
    46   17   43 1
    47   21   44 1
    48   23   45 1
    49   23   46 1
    50   23   47 1
    51   26   48 1
    52   26   49 1
    53   27   50 1
    54   27   51 1
    55   28   52 1
    56   28   53 1
    57   29   54 1
    58   29   55 1
    59   30   56 1
    60   30   57 1
    61   31   58 1
    62   31   59 1
    63   32   60 1
    64   32   61 1
    65   34   62 1
    66   34   63 1
    67   34   64 1
    68   35   65 1
    69   35   66 1
    70   35   67 1
    71   36   68 1
    72   36   69 1
    73   36   70 1
@<TRIPOS>PROPERTY_DATA
  Total_Score	| 9.9226
  Crash		| -2.3043
  Polar		| 3.4646
  FragIndex	| 1
  FragRMSD	| 1.005

