@<TRIPOS>MOLECULE
BindingDB_30450
 58 62 0 0 0
SMALL
NO_CHARGES


@<TRIPOS>ATOM
1    C        97.3627    7.5883   53.1181  C     
2    C        97.4009    7.8180   51.6723  C     
3    N        97.2387    9.1779   51.3399  N     
4    N        96.5146    9.9901   52.0962  N     
5    C        96.2620    9.6241   53.3786  C     
6    C        96.8519    8.5132   53.9745  C     
7    O        95.3957   10.2211   54.0112  O     
8    C        96.0016   11.2637   51.5774  C     
9    C        94.6324   11.1522   50.9964  C     
10   C        94.4405   10.8588   49.6255  C     
11   C        93.1473   10.7703   49.0785  C     
12   C        92.0205   10.9706   49.8998  C     
13   C        92.1957   11.2887   51.2543  C     
14   C        93.4901   11.3922   51.7950  C     
15   F        90.8173   10.8798   49.4034  F     
16   O        97.8100    6.3949   53.5021  O     
17   C        96.9317    8.3712   55.3943  C     
18   S        97.4390    6.8289   57.5639  S     
19   N        97.2394    7.1646   55.9290  N     
20   N        96.7177    9.4286   56.2352  N     
21   C        96.7328    9.4379   57.6049  C     
22   C        97.0865    8.3119   58.3790  C     
23   O        98.9340    6.3758   57.8639  O     
24   O        96.3679    5.7601   58.0501  O     
25   C        97.1111    8.3759   59.7851  C     
26   C        96.3773   10.6226   58.2797  C     
27   C        96.3699   10.6782   59.6864  C     
28   C        96.7490    9.5597   60.4638  C     
29   N        96.7427    9.7098   61.8204  N     
30   S        97.4064    8.6464   62.9487  S     
31   C        96.7511    6.9704   62.9552  C     
32   O        98.9918    8.6476   62.8453  O     
33   O        97.0861    9.2379   64.3901  O     
34   C        98.7259    7.3974   50.9893  C     
35   C        98.7605    8.2910   49.7512  C     
36   C        98.0194    9.5503   50.2316  C     
37   H        96.5746    7.2503   51.2308  H     
38   H        96.0050   12.0189   52.3703  H     
39   H        96.6670   11.6899   50.8282  H     
40   H        95.2423   10.7227   49.0073  H     
41   H        93.0277   10.5677   48.0844  H     
42   H        91.3843   11.4490   51.8552  H     
43   H        93.5874   11.6506   52.7779  H     
44   H        98.6154    6.5860   54.0277  H     
45   H        96.5174   10.2800   55.8211  H     
46   H        97.3986    7.5461   60.3098  H     
47   H        96.1140   11.4565   57.7488  H     
48   H        96.0961   11.5526   60.1431  H     
49   H        96.4698   10.5746   62.1602  H     
50   H        95.6844    6.9941   63.1884  H     
51   H        97.2757    6.3911   63.7181  H     
52   H        96.8982    6.5011   61.9813  H     
53   H        99.5858    7.6163   51.6290  H     
54   H        98.7321    6.3368   50.7230  H     
55   H        99.7816    8.5073   49.4296  H     
56   H        98.2191    7.8156   48.9298  H     
57   H        97.4106    9.9414   49.4159  H     
58   H        98.7453   10.3085   50.5377  H     
@<TRIPOS>BOND
     1    1    2 1
     2    1    6 2
     3    1   16 1
     4    2    3 1
     5    2   34 1
     6    3    4 1
     7    3   36 1
     8    4    5 1
     9    4    8 1
    10    5    6 1
    11    5    7 2
    12    6   17 1
    13    8    9 1
    14    9   10 2
    15    9   14 1
    16   10   11 1
    17   11   12 2
    18   12   13 1
    19   12   15 1
    20   13   14 2
    21   17   19 2
    22   17   20 1
    23   18   19 1
    24   18   22 1
    25   18   23 2
    26   18   24 2
    27   20   21 1
    28   21   22 2
    29   21   26 1
    30   22   25 1
    31   25   28 2
    32   26   27 2
    33   27   28 1
    34   28   29 1
    35   29   30 1
    36   30   31 1
    37   30   32 2
    38   30   33 2
    39   34   35 1
    40   35   36 1
    41    2   37 1
    42    8   38 1
    43    8   39 1
    44   10   40 1
    45   11   41 1
    46   13   42 1
    47   14   43 1
    48   16   44 1
    49   20   45 1
    50   25   46 1
    51   26   47 1
    52   27   48 1
    53   29   49 1
    54   31   50 1
    55   31   51 1
    56   31   52 1
    57   34   53 1
    58   34   54 1
    59   35   55 1
    60   35   56 1
    61   36   57 1
    62   36   58 1
@<TRIPOS>PROPERTY_DATA
  Total_Score	| 7.7892
  Crash		| -2.0667
  Polar		| 3.2707
  FragIndex	| 1
  FragRMSD	| 0.932

