@<TRIPOS>MOLECULE
BindingDB_30454
 66 69 0 0 0
SMALL
NO_CHARGES


@<TRIPOS>ATOM
1    C        98.0238    7.8663   53.3046  C     
2    C        98.0043    8.0238   51.8457  C     
3    N        96.9736    8.9032   51.4104  N     
4    N        95.8712    9.1013   52.1148  N     
5    C        95.8820    8.8056   53.4384  C     
6    C        96.9971    8.2873   54.0787  C     
7    O        94.8444    8.8792   54.0902  O     
8    C        94.6212    9.4948   51.4524  C     
9    C        93.9832   10.8572   51.9004  C     
10   C        92.6019   11.3103   51.2688  C     
11   O        99.1157    7.2978   53.8260  O     
12   C        97.0548    8.1520   55.4813  C     
13   S        97.6938    6.7202   57.6729  S     
14   N        97.5310    7.0011   56.0227  N     
15   N        96.6334    9.1730   56.2856  N     
16   C        96.6974    9.2356   57.6527  C     
17   C        97.2308    8.2006   58.4508  C     
18   O        99.1954    6.3506   58.0527  O     
19   O        96.6582    5.6050   58.1360  O     
20   C        97.3169    8.3275   59.8510  C     
21   C        96.2042   10.3866   58.3008  C     
22   C        96.2630   10.5152   59.6983  C     
23   C        96.8224    9.4922   60.4954  C     
24   N        96.8394    9.7297   61.8478  N     
25   S        97.3965    8.6699   63.0382  S     
26   C        96.6589    7.0371   62.8520  C     
27   O        98.9947    8.6301   63.0218  O     
28   O        96.9965    9.2496   64.4609  O     
29   C        99.3068    8.7068   51.3405  C     
30   C        98.8555    9.4399   50.0781  C     
31   C        97.4009    9.8078   50.4155  C     
32   C        92.8064   11.9430   49.8521  C     
33   C        91.5788   10.1319   51.1396  C     
34   C        91.9622   12.3971   52.1995  C     
35   C        97.8354    6.6082   51.2027  C     
36   H        94.7237    9.5264   50.3676  H     
37   H        93.9077    8.6930   51.6455  H     
38   H        93.8524   10.8009   52.9818  H     
39   H        94.7290   11.6410   51.7281  H     
40   H        99.6645    8.0473   54.1394  H     
41   H        96.2759    9.9587   55.8441  H     
42   H        97.7171    7.5554   60.4187  H     
43   H        95.7774   11.1381   57.7569  H     
44   H        95.8848   11.3629   60.1392  H     
45   H        96.5003   10.5970   62.1511  H     
46   H        95.6410    7.0364   63.2687  H     
47   H        97.2938    6.3349   63.4033  H     
48   H        96.6114    6.7702   61.7818  H     
49   H        99.6758    9.4433   52.0620  H     
50   H       100.1127    7.9974   51.1226  H     
51   H        99.4686   10.3248   49.8840  H     
52   H        98.9019    8.7698   49.2133  H     
53   H        96.7963    9.7619   49.5073  H     
54   H        97.3702   10.8272   50.8084  H     
55   H        93.3647   12.8766   49.9169  H     
56   H        91.8478   12.1766   49.3816  H     
57   H        93.3529   11.2655   49.1949  H     
58   H        91.9158    9.4090   50.3924  H     
59   H        90.5934   10.4922   50.8297  H     
60   H        91.4541    9.6160   52.0942  H     
61   H        91.6385   11.9566   53.1454  H     
62   H        91.0926   12.8614   51.7320  H     
63   H        92.6793   13.1863   52.4308  H     
64   H        98.6062    5.9187   51.5625  H     
65   H        97.9306    6.6595   50.1162  H     
66   H        96.8567    6.1858   51.4434  H     
@<TRIPOS>BOND
     1    1    2 1
     2    1    6 2
     3    1   11 1
     4    2    3 1
     5    2   29 1
     6    2   35 1
     7    3    4 1
     8    3   31 1
     9    4    5 1
    10    4    8 1
    11    5    6 1
    12    5    7 2
    13    6   12 1
    14    8    9 1
    15    9   10 1
    16   10   32 1
    17   10   33 1
    18   10   34 1
    19   12   14 2
    20   12   15 1
    21   13   14 1
    22   13   17 1
    23   13   18 2
    24   13   19 2
    25   15   16 1
    26   16   17 2
    27   16   21 1
    28   17   20 1
    29   20   23 2
    30   21   22 2
    31   22   23 1
    32   23   24 1
    33   24   25 1
    34   25   26 1
    35   25   27 2
    36   25   28 2
    37   29   30 1
    38   30   31 1
    39    8   36 1
    40    8   37 1
    41    9   38 1
    42    9   39 1
    43   11   40 1
    44   15   41 1
    45   20   42 1
    46   21   43 1
    47   22   44 1
    48   24   45 1
    49   26   46 1
    50   26   47 1
    51   26   48 1
    52   29   49 1
    53   29   50 1
    54   30   51 1
    55   30   52 1
    56   31   53 1
    57   31   54 1
    58   32   55 1
    59   32   56 1
    60   32   57 1
    61   33   58 1
    62   33   59 1
    63   33   60 1
    64   34   61 1
    65   34   62 1
    66   34   63 1
    67   35   64 1
    68   35   65 1
    69   35   66 1
@<TRIPOS>PROPERTY_DATA
  Total_Score	| 7.8661
  Crash		| -2.6088
  Polar		| 2.0623
  FragIndex	| 1
  FragRMSD	| 0.926

