@<TRIPOS>MOLECULE
BindingDB_50351179
 42 44 0 0 0
SMALL
NO_CHARGES


@<TRIPOS>ATOM
1    C         3.7573  -32.1679   -5.3457  C     
2    C         4.9118  -32.0622   -6.1740  C     
3    C         5.7601  -30.9391   -6.0543  C     
4    C         3.4345  -31.0921   -4.4803  C     
5    C         4.2572  -29.9462   -4.3937  C     
6    C         5.4471  -29.9003   -5.1623  C     
7    N         6.2934  -28.8459   -5.0502  N     
8    C         6.0400  -27.8091   -4.2213  C     
9    N         4.8969  -27.8105   -3.4909  N     
10   C         3.9963  -28.8235   -3.5554  C     
11   N         2.8866  -28.6960   -2.8165  N     
12   N         6.9289  -26.8072   -4.1303  N     
13   C         5.2448  -33.0429   -7.1493  C     
14   C         6.4196  -33.8050   -6.9685  C     
15   C         6.8305  -34.7471   -7.9358  C     
16   C         6.0382  -34.9012   -9.1023  C     
17   C         4.8882  -34.1206   -9.3006  C     
18   C         4.4700  -33.1829   -8.3268  C     
19   C         7.9786  -35.5032   -7.7669  C     
20   O         8.3364  -35.9318   -6.6765  O     
21   O         3.3671  -32.3613   -8.4679  O     
22   C         2.2456  -32.6218   -9.3491  C     
23   C         1.1928  -33.6438   -8.8415  C     
24   C         2.9501  -33.4186   -5.3089  C     
25   H         6.6062  -30.8648   -6.6281  H     
26   H         2.6095  -31.1671   -3.8854  H     
27   H         2.7530  -27.9036   -2.2749  H     
28   H         2.1917  -29.3618   -2.8685  H     
29   H         6.7655  -26.0559   -3.5366  H     
30   H         7.7535  -26.8400   -4.6454  H     
31   H         6.9760  -33.6736   -6.1165  H     
32   H         6.2993  -35.5735   -9.8209  H     
33   H         4.3413  -34.2482  -10.1572  H     
34   H         8.5018  -35.8151   -8.5561  H     
35   H         1.7181  -31.6622   -9.4615  H     
36   H         2.6179  -32.9189  -10.3444  H     
37   H         1.6460  -34.6345   -8.7419  H     
38   H         0.3695  -33.7087   -9.5607  H     
39   H         0.7999  -33.3204   -7.8697  H     
40   H         2.7460  -33.8051   -6.2905  H     
41   H         1.9946  -33.2805   -4.8040  H     
42   H         3.5220  -34.1708   -4.7680  H     
@<TRIPOS>BOND
     1    1    2 2
     2    1    4 1
     3    1   24 1
     4    2    3 1
     5    2   13 1
     6    3    6 2
     7    4    5 2
     8    5    6 1
     9    5   10 1
    10    6    7 1
    11    7    8 2
    12    8    9 1
    13    8   12 1
    14    9   10 2
    15   10   11 1
    16   13   14 2
    17   13   18 1
    18   14   15 1
    19   15   16 2
    20   15   19 1
    21   16   17 1
    22   17   18 2
    23   18   21 1
    24   19   20 2
    25   21   22 1
    26   22   23 1
    27    3   25 1
    28    4   26 1
    29   11   27 1
    30   11   28 1
    31   12   29 1
    32   12   30 1
    33   14   31 1
    34   16   32 1
    35   17   33 1
    36   19   34 1
    37   22   35 1
    38   22   36 1
    39   23   37 1
    40   23   38 1
    41   23   39 1
    42   24   40 1
    43   24   41 1
    44   24   42 1
@<TRIPOS>PROPERTY_DATA
  Total_Score	| 8.0048
  Crash		| -0.5932
  Polar		| 2.4230
  FragIndex	| 1
  FragRMSD	| 0.828

