@<TRIPOS>MOLECULE
BindingDB_50351187
 41 43 0 0 0
SMALL
NO_CHARGES


@<TRIPOS>ATOM
1    C         3.6026  -32.1415   -5.2858  C     
2    C         4.7885  -32.1375   -6.0753  C     
3    C         5.6864  -31.0498   -5.9946  C     
4    C         3.3540  -31.0428   -4.4285  C     
5    C         4.2437  -29.9519   -4.3458  C     
6    C         5.4200  -29.9703   -5.1363  C     
7    N         6.3111  -28.9418   -5.0561  N     
8    C         6.1154  -27.8874   -4.2293  C     
9    N         4.9935  -27.8368   -3.4660  N     
10   C         4.0584  -28.8179   -3.4984  C     
11   N         2.9721  -28.6684   -2.7197  N     
12   N         7.0273  -26.9064   -4.1799  N     
13   C         5.1023  -33.2008   -6.9640  C     
14   C         4.6779  -33.1555   -8.3116  C     
15   C         4.9859  -34.2065   -9.1890  C     
16   C         5.7005  -35.3327   -8.7262  C     
17   C         6.1310  -35.3828   -7.3870  C     
18   C         5.8480  -34.3091   -6.5141  C     
19   O         6.9153  -36.4131   -6.9444  O     
20   C         6.1888  -37.4391   -6.2433  C     
21   O         6.0605  -36.3310   -9.5911  O     
22   C         5.0212  -37.2870   -9.8542  C     
23   C         2.6333  -33.2699   -5.3381  C     
24   H         6.5431  -31.0389   -6.5636  H     
25   H         2.5107  -31.0422   -3.8480  H     
26   H         2.8842  -27.8919   -2.1457  H     
27   H         2.2627  -29.3284   -2.7375  H     
28   H         6.8946  -26.1468   -3.5894  H     
29   H         7.8272  -26.9535   -4.7349  H     
30   H         4.1609  -32.3401   -8.6604  H     
31   H         4.7077  -34.1419  -10.1673  H     
32   H         6.2048  -34.3405   -5.5547  H     
33   H         5.6457  -37.0466   -5.3793  H     
34   H         6.9149  -38.1733   -5.8921  H     
35   H         5.4831  -37.9502   -6.9121  H     
36   H         4.6890  -37.7803   -8.9323  H     
37   H         5.4213  -38.0519  -10.5230  H     
38   H         4.1677  -36.8202  -10.3381  H     
39   H         2.2513  -33.3813   -6.3531  H     
40   H         1.7821  -33.1248   -4.6724  H     
41   H         3.1346  -34.1911   -5.0457  H     
@<TRIPOS>BOND
     1    1    2 2
     2    1    4 1
     3    1   23 1
     4    2    3 1
     5    2   13 1
     6    3    6 2
     7    4    5 2
     8    5    6 1
     9    5   10 1
    10    6    7 1
    11    7    8 2
    12    8    9 1
    13    8   12 1
    14    9   10 2
    15   10   11 1
    16   13   14 2
    17   13   18 1
    18   14   15 1
    19   15   16 2
    20   16   17 1
    21   16   21 1
    22   17   18 2
    23   17   19 1
    24   19   20 1
    25   21   22 1
    26    3   24 1
    27    4   25 1
    28   11   26 1
    29   11   27 1
    30   12   28 1
    31   12   29 1
    32   14   30 1
    33   15   31 1
    34   18   32 1
    35   20   33 1
    36   20   34 1
    37   20   35 1
    38   22   36 1
    39   22   37 1
    40   22   38 1
    41   23   39 1
    42   23   40 1
    43   23   41 1
@<TRIPOS>PROPERTY_DATA
  Total_Score	| 6.9623
  Crash		| -0.6305
  Polar		| 2.5581
  FragIndex	| 1
  FragRMSD	| 0.363

