@<TRIPOS>MOLECULE
BindingDB_50351173
 56 58 0 0 0
SMALL
NO_CHARGES


@<TRIPOS>ATOM
1    C         3.5527  -32.2636   -5.2674  C     
2    C         4.7129  -32.2756   -6.0917  C     
3    C         5.6037  -31.1783   -6.0622  C     
4    C         3.2962  -31.1278   -4.4599  C     
5    C         4.1800  -30.0261   -4.4370  C     
6    C         5.3472  -30.0717   -5.2379  C     
7    N         6.2397  -29.0435   -5.1945  N     
8    C         6.0522  -27.9595   -4.4070  C     
9    N         4.9380  -27.8764   -3.6396  N     
10   C         4.0012  -28.8602   -3.6294  C     
11   N         2.9244  -28.6747   -2.8489  N     
12   N         6.9733  -26.9848   -4.3976  N     
13   C         5.0571  -33.3764   -6.9229  C     
14   C         6.0751  -34.2521   -6.4814  C     
15   C         6.5275  -35.3092   -7.2994  C     
16   C         5.9509  -35.4787   -8.5736  C     
17   C         4.9347  -34.6135   -9.0179  C     
18   C         4.4687  -33.5533   -8.2026  C     
19   C         7.5975  -36.0922   -6.8904  C     
20   O         3.5512  -32.6096   -8.6283  O     
21   C         2.4412  -32.9310   -9.4932  C     
22   C         1.2126  -33.5120   -8.7610  C     
23   C         2.6397  -33.4344   -5.1927  C     
24   O         8.6722  -35.5069   -6.9809  O     
25   N         7.5215  -37.3226   -6.3347  N     
26   C         6.2437  -37.9836   -6.1070  C     
27   C         8.7390  -38.0113   -5.9099  C     
28   C         5.7299  -38.6988   -7.3760  C     
29   C         9.6723  -38.4086   -7.0789  C     
30   H         6.4553  -31.1870   -6.6334  H     
31   H         2.4704  -31.1178   -3.8580  H     
32   H         2.8415  -27.8690   -2.3156  H     
33   H         2.2076  -29.3256   -2.8486  H     
34   H         6.8515  -26.2008   -3.8384  H     
35   H         7.7712  -27.0746   -4.9459  H     
36   H         6.5116  -34.1021   -5.5651  H     
37   H         6.2862  -36.2156   -9.1996  H     
38   H         4.5596  -34.7490   -9.9560  H     
39   H         2.1319  -31.9966   -9.9671  H     
40   H         2.7508  -33.6057  -10.2936  H     
41   H         1.4865  -34.4105   -8.2029  H     
42   H         0.4386  -33.7741   -9.4848  H     
43   H         0.8056  -32.7708   -8.0711  H     
44   H         2.2636  -33.6833   -6.1827  H     
45   H         1.7781  -33.2568   -4.5458  H     
46   H         3.1859  -34.2920   -4.7981  H     
47   H         6.3188  -38.7309   -5.3131  H     
48   H         5.4844  -37.2795   -5.7560  H     
49   H         9.2950  -37.3790   -5.2123  H     
50   H         8.5238  -38.9324   -5.3626  H     
51   H         5.2636  -37.9880   -8.0582  H     
52   H         4.9969  -39.4579   -7.1057  H     
53   H         6.5553  -39.1894   -7.8917  H     
54   H         9.1847  -39.1334   -7.7369  H     
55   H        10.5798  -38.8705   -6.6812  H     
56   H         9.9613  -37.5312   -7.6633  H     
@<TRIPOS>BOND
     1    1    2 2
     2    1    4 1
     3    1   23 1
     4    2    3 1
     5    2   13 1
     6    3    6 2
     7    4    5 2
     8    5    6 1
     9    5   10 1
    10    6    7 1
    11    7    8 2
    12    8    9 1
    13    8   12 1
    14    9   10 2
    15   10   11 1
    16   13   14 2
    17   13   18 1
    18   14   15 1
    19   15   16 2
    20   15   19 1
    21   16   17 1
    22   17   18 2
    23   18   20 1
    24   19   24 2
    25   19   25 am
    26   20   21 1
    27   21   22 1
    28   25   26 1
    29   25   27 1
    30   26   28 1
    31   27   29 1
    32    3   30 1
    33    4   31 1
    34   11   32 1
    35   11   33 1
    36   12   34 1
    37   12   35 1
    38   14   36 1
    39   16   37 1
    40   17   38 1
    41   21   39 1
    42   21   40 1
    43   22   41 1
    44   22   42 1
    45   22   43 1
    46   23   44 1
    47   23   45 1
    48   23   46 1
    49   26   47 1
    50   26   48 1
    51   27   49 1
    52   27   50 1
    53   28   51 1
    54   28   52 1
    55   28   53 1
    56   29   54 1
    57   29   55 1
    58   29   56 1
@<TRIPOS>PROPERTY_DATA
  Total_Score	| 8.2339
  Crash		| -1.1539
  Polar		| 2.8152
  FragIndex	| 1
  FragRMSD	| 0.553

