@<TRIPOS>MOLECULE
BindingDB_50351175
 55 58 0 0 0
SMALL
NO_CHARGES


@<TRIPOS>ATOM
1    C         3.8229  -32.0757   -5.2726  C     
2    C         5.0391  -32.0454   -5.9920  C     
3    C         5.8951  -30.9324   -5.8555  C     
4    C         3.4557  -30.9997   -4.4444  C     
5    C         4.2989  -29.8746   -4.3193  C     
6    C         5.5287  -29.8549   -5.0286  C     
7    N         6.3602  -28.7818   -4.9141  N     
8    C         6.0544  -27.7123   -4.1429  C     
9    N         4.8847  -27.7000   -3.4543  N     
10   C         4.0056  -28.7335   -3.5127  C     
11   N         2.8679  -28.6312   -2.8048  N     
12   N         6.9131  -26.6831   -4.0781  N     
13   C         5.4096  -33.1204   -6.8332  C     
14   C         6.4871  -33.9613   -6.4503  C     
15   C         6.8948  -35.0781   -7.2283  C     
16   C         6.1925  -35.2847   -8.4474  C     
17   C         5.1660  -34.4177   -8.8727  C     
18   C         4.7363  -33.3545   -8.0561  C     
19   C         7.9618  -35.9576   -6.7976  C     
20   O         3.7389  -32.5189   -8.4813  O     
21   C         2.4078  -33.0800   -8.5475  C     
22   C         1.8816  -33.1242   -9.9999  C     
23   C         8.7084  -36.7434   -7.7193  C     
24   C         9.7190  -37.6286   -7.2918  C     
25   C        10.0359  -37.7323   -5.9269  C     
26   C         9.3418  -36.9507   -4.9810  C     
27   C         8.3056  -36.0957   -5.4231  C     
28   N         9.6292  -37.0994   -3.6620  N     
29   S        10.3888  -35.8765   -2.7871  S     
30   C         9.6016  -34.2572   -2.7331  C     
31   O        10.4288  -36.3471   -1.2686  O     
32   O        11.9054  -35.7332   -3.2407  O     
33   H         3.1996  -32.8839   -5.3386  H     
34   H         6.7838  -30.8990   -6.3655  H     
35   H         2.5713  -31.0524   -3.9336  H     
36   H         2.6962  -27.8425   -2.2702  H     
37   H         2.1960  -29.3262   -2.8584  H     
38   H         6.7027  -25.9076   -3.5340  H     
39   H         7.7466  -26.7132   -4.5793  H     
40   H         6.9830  -33.7403   -5.5844  H     
41   H         6.4079  -36.0795   -9.0483  H     
42   H         4.7213  -34.5731   -9.7804  H     
43   H         2.3399  -34.0851   -8.1117  H     
44   H         1.7556  -32.4275   -7.9764  H     
45   H         1.8899  -32.1233  -10.4359  H     
46   H         0.8567  -33.5041  -10.0076  H     
47   H         2.4986  -33.7833  -10.6111  H     
48   H         8.5426  -36.6774   -8.7263  H     
49   H        10.2317  -38.1894   -7.9772  H     
50   H        10.7774  -38.3701   -5.6309  H     
51   H         7.7654  -35.6115   -4.7034  H     
52   H         9.8259  -38.0069   -3.3658  H     
53   H         9.6196  -33.8019   -3.7220  H     
54   H        10.1479  -33.6186   -2.0369  H     
55   H         8.5709  -34.3590   -2.3930  H     
@<TRIPOS>BOND
     1    1    2 2
     2    1    4 1
     3    2    3 1
     4    2   13 1
     5    3    6 2
     6    4    5 2
     7    5    6 1
     8    5   10 1
     9    6    7 1
    10    7    8 2
    11    8    9 1
    12    8   12 1
    13    9   10 2
    14   10   11 1
    15   13   14 2
    16   13   18 1
    17   14   15 1
    18   15   16 2
    19   15   19 1
    20   16   17 1
    21   17   18 2
    22   18   20 1
    23   19   23 2
    24   19   27 1
    25   20   21 1
    26   21   22 1
    27   23   24 1
    28   24   25 2
    29   25   26 1
    30   26   27 2
    31   26   28 1
    32   28   29 1
    33   29   30 1
    34   29   31 2
    35   29   32 2
    36    1   33 1
    37    3   34 1
    38    4   35 1
    39   11   36 1
    40   11   37 1
    41   12   38 1
    42   12   39 1
    43   14   40 1
    44   16   41 1
    45   17   42 1
    46   21   43 1
    47   21   44 1
    48   22   45 1
    49   22   46 1
    50   22   47 1
    51   23   48 1
    52   24   49 1
    53   25   50 1
    54   27   51 1
    55   28   52 1
    56   30   53 1
    57   30   54 1
    58   30   55 1
@<TRIPOS>PROPERTY_DATA
  Total_Score	| 9.3128
  Crash		| -0.7003
  Polar		| 3.3453
  FragIndex	| 1
  FragRMSD	| 0.551

