@<TRIPOS>MOLECULE
BindingDB_50351195
 43 45 0 0 0
SMALL
NO_CHARGES


@<TRIPOS>ATOM
1    C         3.6852  -32.1586   -5.3832  C     
2    C         4.8118  -32.0675   -6.2533  C     
3    C         5.6773  -30.9453   -6.1553  C     
4    C         3.4121  -31.0935   -4.4957  C     
5    C         4.2509  -29.9560   -4.4275  C     
6    C         5.4034  -29.9087   -5.2476  C     
7    N         6.2613  -28.8541   -5.1474  N     
8    C         6.0491  -27.8233   -4.2982  C     
9    N         4.9411  -27.8290   -3.5224  N     
10   C         4.0336  -28.8431   -3.5586  C     
11   N         2.9522  -28.7295   -2.7702  N     
12   N         6.9476  -26.8333   -4.2006  N     
13   C         5.1222  -33.0492   -7.2377  C     
14   C         6.2724  -33.8558   -7.0549  C     
15   C         6.6543  -34.8147   -8.0184  C     
16   C         5.8916  -34.9162   -9.2022  C     
17   C         4.7403  -34.1265   -9.3835  C     
18   C         4.3010  -33.2155   -8.3918  C     
19   C         7.7960  -35.7242   -7.7550  C     
20   O         3.1156  -32.4847   -8.4378  O     
21   C         2.0276  -32.6964   -9.3759  C     
22   C         0.7806  -33.2875   -8.6786  C     
23   C         2.8335  -33.3782   -5.3448  C     
24   H         6.5136  -30.8760   -6.7480  H     
25   H         2.6152  -31.1626   -3.8640  H     
26   H         2.8404  -27.9484   -2.2074  H     
27   H         2.2603  -29.4034   -2.8034  H     
28   H         6.8011  -26.1070   -3.5762  H     
29   H         7.7598  -26.8605   -4.7323  H     
30   H         6.8333  -33.7583   -6.2040  H     
31   H         6.1594  -35.5775   -9.9382  H     
32   H         4.2323  -34.2224  -10.2635  H     
33   H         8.6981  -35.1334   -7.6010  H     
34   H         7.9686  -36.4267   -8.5778  H     
35   H         7.5925  -36.3044   -6.8538  H     
36   H         1.7492  -31.7146   -9.7797  H     
37   H         2.2884  -33.3399  -10.2168  H     
38   H         1.0345  -34.2427   -8.2125  H     
39   H        -0.0126  -33.4490   -9.4172  H     
40   H         0.4154  -32.5978   -7.9082  H     
41   H         2.7368  -33.7859   -6.3527  H     
42   H         1.8342  -33.1761   -4.9615  H     
43   H         3.3030  -34.1402   -4.7198  H     
@<TRIPOS>BOND
     1    1    2 2
     2    1    4 1
     3    1   23 1
     4    2    3 1
     5    2   13 1
     6    3    6 2
     7    4    5 2
     8    5    6 1
     9    5   10 1
    10    6    7 1
    11    7    8 2
    12    8    9 1
    13    8   12 1
    14    9   10 2
    15   10   11 1
    16   13   14 2
    17   13   18 1
    18   14   15 1
    19   15   16 2
    20   15   19 1
    21   16   17 1
    22   17   18 2
    23   18   20 1
    24   20   21 1
    25   21   22 1
    26    3   24 1
    27    4   25 1
    28   11   26 1
    29   11   27 1
    30   12   28 1
    31   12   29 1
    32   14   30 1
    33   16   31 1
    34   17   32 1
    35   19   33 1
    36   19   34 1
    37   19   35 1
    38   21   36 1
    39   21   37 1
    40   22   38 1
    41   22   39 1
    42   22   40 1
    43   23   41 1
    44   23   42 1
    45   23   43 1
@<TRIPOS>PROPERTY_DATA
  Total_Score	| 7.3686
  Crash		| -0.7453
  Polar		| 2.4990
  FragIndex	| 1
  FragRMSD	| 0.396

