@<TRIPOS>MOLECULE
BindingDB_50351180
 38 40 0 0 0
SMALL
NO_CHARGES


@<TRIPOS>ATOM
1    C         3.6432  -32.1327   -5.3557  C     
2    C         4.8205  -32.0772   -6.1573  C     
3    C         5.6825  -30.9558   -6.0552  C     
4    C         3.3647  -31.0587   -4.4712  C     
5    C         4.2191  -29.9333   -4.3791  C     
6    C         5.3898  -29.9063   -5.1688  C     
7    N         6.2553  -28.8530   -5.0629  N     
8    C         6.0353  -27.8165   -4.2229  C     
9    N         4.9147  -27.8034   -3.4536  N     
10   C         4.0063  -28.8195   -3.5007  C     
11   N         2.9149  -28.7066   -2.7229  N     
12   N         6.9358  -26.8234   -4.1649  N     
13   C         5.2040  -33.0796   -7.0816  C     
14   C         6.2995  -33.9272   -6.8064  C     
15   C         6.7979  -34.8513   -7.7664  C     
16   C         6.1137  -34.9262   -9.0160  C     
17   C         4.9982  -34.1151   -9.2862  C     
18   C         4.5466  -33.1863   -8.3297  C     
19   C         7.9209  -35.6475   -7.4783  C     
20   C         8.5834  -36.4923   -8.4742  C     
21   O         8.4799  -35.5566   -6.3892  O     
22   C         2.7413  -33.3177   -5.3699  C     
23   H         6.5371  -30.8858   -6.6201  H     
24   H         2.5352  -31.1000   -3.8831  H     
25   H         2.8089  -27.9323   -2.1472  H     
26   H         2.2165  -29.3765   -2.7650  H     
27   H         6.7886  -26.0658   -3.5762  H     
28   H         7.7387  -26.8726   -4.7120  H     
29   H         6.7850  -33.8349   -5.9112  H     
30   H         6.4062  -35.5905   -9.7420  H     
31   H         4.5185  -34.1775  -10.1924  H     
32   H         3.7426  -32.5943   -8.5588  H     
33   H         7.9066  -37.3051   -8.8000  H     
34   H         9.5032  -36.9502   -8.0880  H     
35   H         8.8425  -35.8720   -9.3441  H     
36   H         2.3351  -33.4606   -6.3855  H     
37   H         1.9028  -33.2110   -4.6656  H     
38   H         3.3207  -34.2027   -5.0894  H     
@<TRIPOS>BOND
     1    1    2 2
     2    1    4 1
     3    1   22 1
     4    2    3 1
     5    2   13 1
     6    3    6 2
     7    4    5 2
     8    5    6 1
     9    5   10 1
    10    6    7 1
    11    7    8 2
    12    8    9 1
    13    8   12 1
    14    9   10 2
    15   10   11 1
    16   13   14 2
    17   13   18 1
    18   14   15 1
    19   15   16 2
    20   15   19 1
    21   16   17 1
    22   17   18 2
    23   19   20 1
    24   19   21 2
    25    3   23 1
    26    4   24 1
    27   11   25 1
    28   11   26 1
    29   12   27 1
    30   12   28 1
    31   14   29 1
    32   16   30 1
    33   17   31 1
    34   18   32 1
    35   20   33 1
    36   20   34 1
    37   20   35 1
    38   22   36 1
    39   22   37 1
    40   22   38 1
@<TRIPOS>PROPERTY_DATA
  Total_Score	| 6.7697
  Crash		| -0.5580
  Polar		| 2.4326
  FragIndex	| 1
  FragRMSD	| 0.514

