@<TRIPOS>MOLECULE
BindingDB_50351188
 34 36 0 0 0
SMALL
NO_CHARGES


@<TRIPOS>ATOM
1    C         3.7601  -32.0594   -5.4083  C     
2    C         4.9189  -31.9689   -6.2128  C     
3    C         5.7449  -30.8315   -6.1141  C     
4    C         3.4393  -31.0270   -4.5046  C     
5    C         4.2755  -29.8912   -4.3883  C     
6    C         5.4342  -29.8065   -5.2036  C     
7    N         6.2728  -28.7424   -5.0857  N     
8    C         6.0484  -27.7458   -4.2021  C     
9    N         4.9381  -27.7853   -3.4194  N     
10   C         4.0477  -28.8063   -3.4880  C     
11   N         2.9554  -28.7439   -2.7064  N     
12   N         6.9408  -26.7470   -4.1040  N     
13   C         5.2501  -32.9983   -7.1216  C     
14   C         6.3979  -33.7858   -6.8674  C     
15   C         6.7853  -34.7847   -7.7725  C     
16   C         6.0269  -35.0104   -8.9355  C     
17   C         4.8916  -34.2107   -9.2076  C     
18   C         4.4920  -33.2033   -8.3024  C     
19   O         3.4612  -32.3347   -8.5723  O     
20   C         2.2990  -32.8278   -9.2551  C     
21   H         3.1471  -32.8754   -5.4659  H     
22   H         6.5761  -30.7484   -6.7051  H     
23   H         2.5979  -31.1165   -3.9312  H     
24   H         2.8251  -27.9876   -2.1108  H     
25   H         2.2681  -29.4227   -2.7792  H     
26   H         6.8140  -26.0347   -3.4589  H     
27   H         7.7432  -26.7579   -4.6539  H     
28   H         6.9557  -33.6390   -6.0187  H     
29   H         7.6162  -35.3565   -7.5844  H     
30   H         6.2973  -35.7489   -9.5886  H     
31   H         4.3605  -34.3601  -10.0731  H     
32   H         2.5226  -33.0304  -10.3064  H     
33   H         1.5299  -32.0435   -9.2173  H     
34   H         1.8906  -33.7224   -8.7852  H     
@<TRIPOS>BOND
     1    1    2 2
     2    1    4 1
     3    2    3 1
     4    2   13 1
     5    3    6 2
     6    4    5 2
     7    5    6 1
     8    5   10 1
     9    6    7 1
    10    7    8 2
    11    8    9 1
    12    8   12 1
    13    9   10 2
    14   10   11 1
    15   13   14 2
    16   13   18 1
    17   14   15 1
    18   15   16 2
    19   16   17 1
    20   17   18 2
    21   18   19 1
    22   19   20 1
    23    1   21 1
    24    3   22 1
    25    4   23 1
    26   11   24 1
    27   11   25 1
    28   12   26 1
    29   12   27 1
    30   14   28 1
    31   15   29 1
    32   16   30 1
    33   17   31 1
    34   20   32 1
    35   20   33 1
    36   20   34 1
@<TRIPOS>PROPERTY_DATA
  Total_Score	| 5.6934
  Crash		| -0.4260
  Polar		| 2.3948
  FragIndex	| 1
  FragRMSD	| 0.523

