@<TRIPOS>MOLECULE
BindingDB_50351177
 44 47 0 0 0
SMALL
NO_CHARGES


@<TRIPOS>ATOM
1    C         3.5258  -32.1370   -5.3324  C     
2    C         4.6272  -32.0759   -6.2291  C     
3    C         5.4987  -30.9627   -6.1895  C     
4    C         3.3043  -31.0590   -4.4432  C     
5    C         4.1636  -29.9422   -4.4118  C     
6    C         5.2778  -29.9125   -5.2822  C     
7    N         6.1877  -28.9053   -5.1813  N     
8    C         6.0627  -27.9045   -4.2783  C     
9    N         4.9728  -27.8779   -3.4716  N     
10   C         4.0200  -28.8406   -3.5190  C     
11   N         2.9515  -28.6970   -2.7204  N     
12   N         7.0061  -26.9531   -4.2023  N     
13   C         4.9520  -33.1431   -7.0977  C     
14   C         5.8550  -35.1773   -8.8598  C     
15   C         4.7703  -34.3449   -9.2235  C     
16   C         4.3217  -33.3044   -8.3599  C     
17   O         3.3976  -32.3448   -8.7330  O     
18   C         2.2175  -32.6489   -9.5007  C     
19   C         1.1815  -33.4555   -8.6889  C     
20   C         2.6698  -33.3518   -5.2368  C     
21   C         6.4597  -34.9910   -7.6072  C     
22   C         6.0048  -34.0097   -6.7338  C     
23   C         6.7932  -34.0985   -5.6301  C     
24   C         7.6976  -35.0542   -5.8377  C     
25   N         7.5051  -35.5903   -7.0225  N     
26   H         6.3209  -30.9283   -6.7957  H     
27   H         2.5303  -31.1134   -3.7774  H     
28   H         2.8828  -27.9332   -2.1333  H     
29   H         2.2330  -29.3372   -2.7602  H     
30   H         6.9233  -26.2241   -3.5608  H     
31   H         7.7842  -27.0044   -4.7864  H     
32   H         6.2058  -35.8808   -9.5163  H     
33   H         4.3377  -34.5033  -10.1388  H     
34   H         1.7602  -31.7102   -9.8099  H     
35   H         2.4699  -33.1834  -10.4397  H     
36   H         1.5969  -34.4270   -8.3847  H     
37   H         0.2820  -33.6190   -9.2998  H     
38   H         0.8902  -32.8745   -7.7924  H     
39   H         2.2196  -33.6009   -6.1977  H     
40   H         1.8585  -33.2350   -4.5154  H     
41   H         3.2786  -34.1968   -4.9138  H     
42   H         6.7416  -33.5416   -4.8194  H     
43   H         8.4261  -35.3055   -5.2147  H     
44   H         8.0500  -36.2894   -7.4246  H     
@<TRIPOS>BOND
     1    1    2 2
     2    1    4 1
     3    1   20 1
     4    2    3 1
     5    2   13 1
     6    3    6 2
     7    4    5 2
     8    5    6 1
     9    5   10 1
    10    6    7 1
    11    7    8 2
    12    8    9 1
    13    8   12 1
    14    9   10 2
    15   10   11 1
    16   13   16 1
    17   13   22 2
    18   14   15 1
    19   14   21 2
    20   15   16 2
    21   16   17 1
    22   17   18 1
    23   18   19 1
    24   21   22 1
    25   21   25 1
    26   22   23 1
    27   23   24 2
    28   24   25 1
    29    3   26 1
    30    4   27 1
    31   11   28 1
    32   11   29 1
    33   12   30 1
    34   12   31 1
    35   14   32 1
    36   15   33 1
    37   18   34 1
    38   18   35 1
    39   19   36 1
    40   19   37 1
    41   19   38 1
    42   20   39 1
    43   20   40 1
    44   20   41 1
    45   23   42 1
    46   24   43 1
    47   25   44 1
@<TRIPOS>PROPERTY_DATA
  Total_Score	| 7.3954
  Crash		| -0.6953
  Polar		| 2.6087
  FragIndex	| 1
  FragRMSD	| 0.441

