@<TRIPOS>MOLECULE
BindingDB_50351174
 46 49 0 0 0
SMALL
NO_CHARGES


@<TRIPOS>ATOM
1    C         3.6588  -32.1562   -5.2911  C     
2    C         4.8133  -32.0882   -6.1215  C     
3    C         5.6653  -30.9659   -6.0582  C     
4    C         3.3760  -31.0681   -4.4283  C     
5    C         4.2297  -29.9418   -4.3591  C     
6    C         5.3856  -29.9117   -5.1746  C     
7    N         6.2556  -28.8702   -5.0768  N     
8    C         6.0472  -27.8365   -4.2231  C     
9    N         4.9331  -27.8217   -3.4526  N     
10   C         4.0152  -28.8235   -3.4935  C     
11   N         2.9288  -28.6944   -2.7131  N     
12   N         6.9544  -26.8505   -4.1446  N     
13   C         5.1950  -33.1434   -6.9913  C     
14   C         6.0095  -35.1266   -8.8338  C     
15   C         4.9904  -34.2257   -9.1716  C     
16   C         4.5627  -33.2458   -8.2543  C     
17   O         3.5893  -32.3429   -8.6237  O     
18   C         2.2389  -32.8316   -8.7500  C     
19   C         1.7894  -32.7531  -10.2306  C     
20   C         2.7818  -33.3656   -5.2696  C     
21   C         6.6432  -35.0490   -7.5747  C     
22   C         6.2328  -34.0546   -6.6348  C     
23   C         6.8890  -34.0413   -5.3825  C     
24   C         7.8741  -34.9178   -5.1065  C     
25   C         8.2669  -35.8461   -6.0245  C     
26   C         7.6758  -35.9310   -7.2319  C     
27   H         6.5079  -30.9255   -6.6387  H     
28   H         2.5542  -31.1151   -3.8216  H     
29   H         2.8263  -27.9092   -2.1538  H     
30   H         2.2194  -29.3535   -2.7481  H     
31   H         6.8284  -26.1093   -3.5277  H     
32   H         7.7625  -26.8906   -4.6880  H     
33   H         6.2879  -35.8373   -9.5171  H     
34   H         4.5618  -34.2906  -10.0947  H     
35   H         2.0970  -33.8503   -8.3869  H     
36   H         1.5966  -32.1799   -8.1504  H     
37   H         1.8489  -31.7198  -10.5914  H     
38   H         0.7618  -33.1017  -10.3556  H     
39   H         2.4378  -33.3695  -10.8532  H     
40   H         2.3880  -33.5774   -6.2726  H     
41   H         1.9283  -33.2445   -4.5909  H     
42   H         3.3616  -34.2218   -4.9225  H     
43   H         6.6209  -33.3925   -4.6758  H     
44   H         8.3176  -34.8880   -4.2144  H     
45   H         9.0011  -36.4775   -5.7917  H     
46   H         7.9784  -36.6247   -7.8723  H     
@<TRIPOS>BOND
     1    1    2 2
     2    1    4 1
     3    1   20 1
     4    2    3 1
     5    2   13 1
     6    3    6 2
     7    4    5 2
     8    5    6 1
     9    5   10 1
    10    6    7 1
    11    7    8 2
    12    8    9 1
    13    8   12 1
    14    9   10 2
    15   10   11 1
    16   13   16 1
    17   13   22 2
    18   14   15 1
    19   14   21 2
    20   15   16 2
    21   16   17 1
    22   17   18 1
    23   18   19 1
    24   21   22 1
    25   21   26 1
    26   22   23 1
    27   23   24 2
    28   24   25 1
    29   25   26 2
    30    3   27 1
    31    4   28 1
    32   11   29 1
    33   11   30 1
    34   12   31 1
    35   12   32 1
    36   14   33 1
    37   15   34 1
    38   18   35 1
    39   18   36 1
    40   19   37 1
    41   19   38 1
    42   19   39 1
    43   20   40 1
    44   20   41 1
    45   20   42 1
    46   23   43 1
    47   24   44 1
    48   25   45 1
    49   26   46 1
@<TRIPOS>PROPERTY_DATA
  Total_Score	| 7.6370
  Crash		| -0.9014
  Polar		| 2.4448
  FragIndex	| 1
  FragRMSD	| 0.517

