@<TRIPOS>MOLECULE
BindingDB_50351183
 37 39 0 0 0
SMALL
NO_CHARGES


@<TRIPOS>ATOM
1    C         3.8100  -32.1055   -5.3354  C     
2    C         4.9226  -31.9963   -6.2000  C     
3    C         5.7517  -30.8550   -6.1148  C     
4    C         3.4903  -31.0646   -4.4467  C     
5    C         4.2955  -29.9073   -4.3790  C     
6    C         5.4543  -29.8330   -5.1939  C     
7    N         6.2983  -28.7683   -5.0786  N     
8    C         6.0584  -27.7536   -4.2162  C     
9    N         4.9344  -27.7730   -3.4506  N     
10   C         4.0454  -28.7989   -3.5141  C     
11   N         2.9363  -28.7062   -2.7606  N     
12   N         6.9380  -26.7428   -4.1416  N     
13   C         5.2176  -33.0229   -7.1238  C     
14   C         6.3250  -33.8717   -6.8747  C     
15   C         6.6750  -34.8709   -7.7976  C     
16   C         5.9272  -35.0312   -8.9769  C     
17   C         4.8405  -34.1808   -9.2398  C     
18   C         4.4496  -33.2027   -8.3066  C     
19   O         3.4634  -32.3246   -8.6712  O     
20   C         2.1019  -32.6464   -8.3081  C     
21   C         1.4385  -33.7335   -9.1870  C     
22   H         3.2285  -32.9471   -5.3441  H     
23   H         6.5799  -30.7752   -6.7166  H     
24   H         2.6747  -31.1705   -3.8374  H     
25   H         2.7937  -27.9311   -2.1989  H     
26   H         2.2491  -29.3822   -2.8279  H     
27   H         6.7791  -25.9978   -3.5414  H     
28   H         7.7420  -26.7637   -4.6878  H     
29   H         6.8994  -33.7495   -6.0337  H     
30   H         7.4769  -35.4798   -7.6175  H     
31   H         6.1934  -35.7433   -9.6632  H     
32   H         4.3368  -34.2662  -10.1224  H     
33   H         2.0406  -32.9569   -7.2585  H     
34   H         1.5194  -31.7274   -8.4170  H     
35   H         1.4860  -33.4526  -10.2454  H     
36   H         0.3852  -33.8503   -8.8944  H     
37   H         1.9407  -34.6961   -9.0453  H     
@<TRIPOS>BOND
     1    1    2 2
     2    1    4 1
     3    2    3 1
     4    2   13 1
     5    3    6 2
     6    4    5 2
     7    5    6 1
     8    5   10 1
     9    6    7 1
    10    7    8 2
    11    8    9 1
    12    8   12 1
    13    9   10 2
    14   10   11 1
    15   13   14 2
    16   13   18 1
    17   14   15 1
    18   15   16 2
    19   16   17 1
    20   17   18 2
    21   18   19 1
    22   19   20 1
    23   20   21 1
    24    1   22 1
    25    3   23 1
    26    4   24 1
    27   11   25 1
    28   11   26 1
    29   12   27 1
    30   12   28 1
    31   14   29 1
    32   15   30 1
    33   16   31 1
    34   17   32 1
    35   20   33 1
    36   20   34 1
    37   21   35 1
    38   21   36 1
    39   21   37 1
@<TRIPOS>PROPERTY_DATA
  Total_Score	| 6.0505
  Crash		| -0.3715
  Polar		| 2.4419
  FragIndex	| 1
  FragRMSD	| 0.684

