@<TRIPOS>MOLECULE
BindingDB_50351196
 40 42 0 0 0
SMALL
NO_CHARGES


@<TRIPOS>ATOM
1    C         3.6174  -32.0579   -5.2907  C     
2    C         4.7405  -31.9836   -6.1597  C     
3    C         5.5879  -30.8539   -6.1177  C     
4    C         3.3530  -30.9792   -4.4149  C     
5    C         4.2037  -29.8500   -4.3691  C     
6    C         5.3357  -29.8128   -5.2216  C     
7    N         6.2195  -28.7849   -5.1250  N     
8    C         6.0640  -27.7787   -4.2314  C     
9    N         4.9739  -27.7613   -3.4272  N     
10   C         4.0383  -28.7469   -3.4787  C     
11   N         2.9760  -28.6234   -2.6656  N     
12   N         7.0163  -26.8360   -4.1426  N     
13   C         5.0981  -33.0085   -7.0659  C     
14   C         6.1885  -33.8547   -6.7315  C     
15   C         6.6268  -34.8416   -7.6357  C     
16   C         5.9994  -34.9638   -8.9012  C     
17   C         4.9549  -34.0971   -9.2567  C     
18   C         4.4659  -33.1488   -8.3359  C     
19   Br        8.0389  -35.9815   -7.2038  Br    
20   O         3.4243  -32.3179   -8.6588  O     
21   C         2.1171  -32.9430   -8.7633  C     
22   C         1.6706  -32.9562  -10.2384  C     
23   C         2.7489  -33.2665   -5.2447  C     
24   H         6.4075  -30.7957   -6.7308  H     
25   H         2.5662  -31.0298   -3.7684  H     
26   H         2.8949  -27.8526   -2.0818  H     
27   H         2.2602  -29.2740   -2.6995  H     
28   H         6.9426  -26.1316   -3.4787  H     
29   H         7.7995  -26.8921   -4.7168  H     
30   H         6.6669  -33.7627   -5.8334  H     
31   H         6.3108  -35.6616   -9.5707  H     
32   H         4.5654  -34.1525  -10.1872  H     
33   H         2.0658  -33.9711   -8.3684  H     
34   H         1.4027  -32.3474   -8.1915  H     
35   H         1.6509  -31.9341  -10.6473  H     
36   H         0.6626  -33.3891  -10.3277  H     
37   H         2.3576  -33.5612  -10.8556  H     
38   H         2.2924  -33.4427   -6.2110  H     
39   H         1.9361  -33.1801   -4.5206  H     
40   H         3.3480  -34.1357   -4.9835  H     
@<TRIPOS>BOND
     1    1    2 2
     2    1    4 1
     3    1   23 1
     4    2    3 1
     5    2   13 1
     6    3    6 2
     7    4    5 2
     8    5    6 1
     9    5   10 1
    10    6    7 1
    11    7    8 2
    12    8    9 1
    13    8   12 1
    14    9   10 2
    15   10   11 1
    16   13   14 2
    17   13   18 1
    18   14   15 1
    19   15   16 2
    20   15   19 1
    21   16   17 1
    22   17   18 2
    23   18   20 1
    24   20   21 1
    25   21   22 1
    26    3   24 1
    27    4   25 1
    28   11   26 1
    29   11   27 1
    30   12   28 1
    31   12   29 1
    32   14   30 1
    33   16   31 1
    34   17   32 1
    35   21   33 1
    36   21   34 1
    37   22   35 1
    38   22   36 1
    39   22   37 1
    40   23   38 1
    41   23   39 1
    42   23   40 1
@<TRIPOS>PROPERTY_DATA
  Total_Score	| 7.1028
  Crash		| -1.0006
  Polar		| 2.4919
  FragIndex	| 1
  FragRMSD	| 0.864

