@<TRIPOS>MOLECULE
BindingDB_50351193
 33 35 0 0 0
SMALL
NO_CHARGES


@<TRIPOS>ATOM
1    C         3.7334  -32.0451   -5.4042  C     
2    C         4.9164  -31.9716   -6.1938  C     
3    C         5.7765  -30.8583   -6.0709  C     
4    C         3.4405  -30.9840   -4.5138  C     
5    C         4.2978  -29.8690   -4.3861  C     
6    C         5.4732  -29.8169   -5.1749  C     
7    N         6.3143  -28.7539   -5.0510  N     
8    C         6.0700  -27.7242   -4.2089  C     
9    N         4.9563  -27.7481   -3.4396  N     
10   C         4.0765  -28.7804   -3.4900  C     
11   N         3.0122  -28.7171   -2.6784  N     
12   N         6.9300  -26.6990   -4.1400  N     
13   C         5.2867  -32.9954   -7.1010  C     
14   C         6.3778  -33.8429   -6.8157  C     
15   C         6.7466  -34.8542   -7.7215  C     
16   C         6.0292  -35.0221   -8.9202  C     
17   C         4.9443  -34.1773   -9.2175  C     
18   C         4.5704  -33.1666   -8.3086  C     
19   C         2.7881  -33.1929   -5.5030  C     
20   H         6.6432  -30.8083   -6.6157  H     
21   H         2.5865  -31.0280   -3.9487  H     
22   H         2.8998  -27.9586   -2.0877  H     
23   H         2.3161  -29.3847   -2.7497  H     
24   H         6.7541  -25.9520   -3.5463  H     
25   H         7.7391  -26.7159   -4.6749  H     
26   H         6.9049  -33.7357   -5.9444  H     
27   H         7.5287  -35.4750   -7.5015  H     
28   H         6.2921  -35.7690   -9.5715  H     
29   H         4.4227  -34.3020  -10.0886  H     
30   H         3.7742  -32.5662   -8.5266  H     
31   H         2.3862  -33.2454   -6.5168  H     
32   H         1.9482  -33.1106   -4.8095  H     
33   H         3.3101  -34.1226   -5.2765  H     
@<TRIPOS>BOND
     1    1    2 2
     2    1    4 1
     3    1   19 1
     4    2    3 1
     5    2   13 1
     6    3    6 2
     7    4    5 2
     8    5    6 1
     9    5   10 1
    10    6    7 1
    11    7    8 2
    12    8    9 1
    13    8   12 1
    14    9   10 2
    15   10   11 1
    16   13   14 2
    17   13   18 1
    18   14   15 1
    19   15   16 2
    20   16   17 1
    21   17   18 2
    22    3   20 1
    23    4   21 1
    24   11   22 1
    25   11   23 1
    26   12   24 1
    27   12   25 1
    28   14   26 1
    29   15   27 1
    30   16   28 1
    31   17   29 1
    32   18   30 1
    33   19   31 1
    34   19   32 1
    35   19   33 1
@<TRIPOS>PROPERTY_DATA
  Total_Score	| 5.9747
  Crash		| -0.3521
  Polar		| 2.4119
  FragIndex	| 1
  FragRMSD	| 0.143

