@<TRIPOS>MOLECULE
BindingDB_50351176
 46 49 0 0 0
SMALL
NO_CHARGES


@<TRIPOS>ATOM
1    C         3.8017  -32.0553   -5.3485  C     
2    C         4.9516  -31.9893   -6.1636  C     
3    C         5.8045  -30.8715   -6.0411  C     
4    C         3.4761  -31.0159   -4.4657  C     
5    C         4.3118  -29.8802   -4.3647  C     
6    C         5.4925  -29.8266   -5.1518  C     
7    N         6.3284  -28.7518   -5.0413  N     
8    C         6.0662  -27.7143   -4.2075  C     
9    N         4.9338  -27.7349   -3.4636  N     
10   C         4.0534  -28.7673   -3.5113  C     
11   N         2.9481  -28.6772   -2.7562  N     
12   N         6.9193  -26.6808   -4.1215  N     
13   C         5.2664  -33.0122   -7.0869  C     
14   C         6.3386  -33.8921   -6.8085  C     
15   C         6.7246  -34.9094   -7.7142  C     
16   C         6.0238  -35.0046   -8.9381  C     
17   C         4.9654  -34.1151   -9.2411  C     
18   C         4.5451  -33.1447   -8.3170  C     
19   C         7.7381  -35.8637   -7.3660  C     
20   O         3.5015  -32.2926   -8.5566  O     
21   C         2.3031  -32.7973   -9.2333  C     
22   C         1.4846  -33.8909   -8.5157  C     
23   C         7.8912  -36.2987   -6.0224  C     
24   C         8.8483  -37.2674   -5.6728  C     
25   C         9.6614  -37.8103   -6.6776  C     
26   N         9.5156  -37.3942   -7.9582  N     
27   C         8.5940  -36.4615   -8.3259  C     
28   H         3.1904  -32.8744   -5.3820  H     
29   H         6.6578  -30.8060   -6.6094  H     
30   H         2.6353  -31.1012   -3.8915  H     
31   H         2.8059  -27.8946   -2.2075  H     
32   H         2.2691  -29.3634   -2.8041  H     
33   H         6.7314  -25.9468   -3.5129  H     
34   H         7.7311  -26.6642   -4.6554  H     
35   H         6.8633  -33.7569   -5.9380  H     
36   H         6.2715  -35.7015   -9.6299  H     
37   H         4.4620  -34.2302  -10.1191  H     
38   H         1.6511  -31.9277   -9.3776  H     
39   H         2.5801  -33.1563  -10.2392  H     
40   H         1.9375  -34.8678   -8.6441  H     
41   H         0.4550  -33.9674   -8.9378  H     
42   H         1.3987  -33.6843   -7.4485  H     
43   H         7.2856  -35.9388   -5.2840  H     
44   H         8.9271  -37.5837   -4.7033  H     
45   H        10.3523  -38.5263   -6.4503  H     
46   H         8.5597  -36.1906   -9.3106  H     
@<TRIPOS>BOND
     1    1    2 2
     2    1    4 1
     3    2    3 1
     4    2   13 1
     5    3    6 2
     6    4    5 2
     7    5    6 1
     8    5   10 1
     9    6    7 1
    10    7    8 2
    11    8    9 1
    12    8   12 1
    13    9   10 2
    14   10   11 1
    15   13   14 2
    16   13   18 1
    17   14   15 1
    18   15   16 2
    19   15   19 1
    20   16   17 1
    21   17   18 2
    22   18   20 1
    23   19   23 2
    24   19   27 1
    25   20   21 1
    26   21   22 1
    27   23   24 1
    28   24   25 2
    29   25   26 1
    30   26   27 2
    31    1   28 1
    32    3   29 1
    33    4   30 1
    34   11   31 1
    35   11   32 1
    36   12   33 1
    37   12   34 1
    38   14   35 1
    39   16   36 1
    40   17   37 1
    41   21   38 1
    42   21   39 1
    43   22   40 1
    44   22   41 1
    45   22   42 1
    46   23   43 1
    47   24   44 1
    48   25   45 1
    49   27   46 1
@<TRIPOS>PROPERTY_DATA
  Total_Score	| 6.9983
  Crash		| -0.5272
  Polar		| 2.3760
  FragIndex	| 1
  FragRMSD	| 0.463

