@<TRIPOS>MOLECULE
BindingDB_50351186
 41 43 0 0 0
SMALL
NO_CHARGES


@<TRIPOS>ATOM
1    C         3.7432  -32.1400   -5.3548  C     
2    C         4.8970  -32.0561   -6.1833  C     
3    C         5.7540  -30.9375   -6.0722  C     
4    C         3.4554  -31.0759   -4.4660  C     
5    C         4.2971  -29.9446   -4.3750  C     
6    C         5.4674  -29.9016   -5.1718  C     
7    N         6.3218  -28.8474   -5.0688  N     
8    C         6.0910  -27.8178   -4.2209  C     
9    N         4.9703  -27.8161   -3.4553  N     
10   C         4.0700  -28.8347   -3.5050  C     
11   N         2.9756  -28.7220   -2.7378  N     
12   N         6.9755  -26.8098   -4.1440  N     
13   C         5.2340  -33.0461   -7.1471  C     
14   C         6.3835  -33.8459   -6.9393  C     
15   C         6.8164  -34.7795   -7.9037  C     
16   C         6.0680  -34.9090   -9.0995  C     
17   C         4.9262  -34.1183   -9.3214  C     
18   C         4.4924  -33.1856   -8.3513  C     
19   O         3.4260  -32.3371   -8.5681  O     
20   C         2.2767  -32.8517   -9.2758  C     
21   O         7.9404  -35.5105   -7.5744  O     
22   C         8.5256  -36.4001   -8.5332  C     
23   C         2.8665  -33.3441   -5.3538  C     
24   H         6.5989  -30.8728   -6.6512  H     
25   H         2.6314  -31.1316   -3.8677  H     
26   H         2.8576  -27.9425   -2.1745  H     
27   H         2.2811  -29.3903   -2.7894  H     
28   H         6.8191  -26.0668   -3.5340  H     
29   H         7.7821  -26.8277   -4.6875  H     
30   H         6.9236  -33.7407   -6.0723  H     
31   H         6.3477  -35.5691   -9.8245  H     
32   H         4.4198  -34.2222  -10.1997  H     
33   H         2.4940  -32.9100  -10.3470  H     
34   H         1.4420  -32.1572   -9.1417  H     
35   H         1.9675  -33.8318   -8.9092  H     
36   H         7.8535  -37.2320   -8.7517  H     
37   H         9.4576  -36.8128   -8.1242  H     
38   H         8.7702  -35.8710   -9.4602  H     
39   H         2.4536  -33.5185   -6.3489  H     
40   H         2.0215  -33.2512   -4.6623  H     
41   H         3.4529  -34.2166   -5.0528  H     
@<TRIPOS>BOND
     1    1    2 2
     2    1    4 1
     3    1   23 1
     4    2    3 1
     5    2   13 1
     6    3    6 2
     7    4    5 2
     8    5    6 1
     9    5   10 1
    10    6    7 1
    11    7    8 2
    12    8    9 1
    13    8   12 1
    14    9   10 2
    15   10   11 1
    16   13   14 2
    17   13   18 1
    18   14   15 1
    19   15   16 2
    20   15   21 1
    21   16   17 1
    22   17   18 2
    23   18   19 1
    24   19   20 1
    25   21   22 1
    26    3   24 1
    27    4   25 1
    28   11   26 1
    29   11   27 1
    30   12   28 1
    31   12   29 1
    32   14   30 1
    33   16   31 1
    34   17   32 1
    35   20   33 1
    36   20   34 1
    37   20   35 1
    38   22   36 1
    39   22   37 1
    40   22   38 1
    41   23   39 1
    42   23   40 1
    43   23   41 1
@<TRIPOS>PROPERTY_DATA
  Total_Score	| 7.1905
  Crash		| -0.5513
  Polar		| 2.4906
  FragIndex	| 1
  FragRMSD	| 0.171

