@<TRIPOS>MOLECULE
BindingDB_50351178
 40 42 0 0 0
SMALL
NO_CHARGES


@<TRIPOS>ATOM
1    C         3.7553  -32.1753   -5.2810  C     
2    C         4.9045  -32.0802   -6.1081  C     
3    C         5.7396  -30.9471   -6.0434  C     
4    C         3.4496  -31.0947   -4.4176  C     
5    C         4.2809  -29.9507   -4.3515  C     
6    C         5.4382  -29.8985   -5.1649  C     
7    N         6.2841  -28.8365   -5.0926  N     
8    C         6.0613  -27.8018   -4.2551  C     
9    N         4.9508  -27.7985   -3.4800  N     
10   C         4.0588  -28.8225   -3.5052  C     
11   N         2.9665  -28.6942   -2.7385  N     
12   N         6.9582  -26.8079   -4.2097  N     
13   C         5.2287  -33.0667   -7.0617  C     
14   C         6.3265  -33.9235   -6.8348  C     
15   C         6.6790  -34.8779   -7.8011  C     
16   C         5.9415  -34.9723   -8.9959  C     
17   C         4.8326  -34.1373   -9.2176  C     
18   C         4.4506  -33.1936   -8.2385  C     
19   Cl        7.9766  -35.9238   -7.5115  Cl    
20   O         3.4074  -32.3330   -8.4745  O     
21   C         2.1004  -32.8935   -8.7321  C     
22   C         1.6663  -32.7853  -10.2061  C     
23   C         2.8979  -33.3978   -5.2797  C     
24   H         6.5745  -30.8867   -6.6401  H     
25   H         2.6283  -31.1589   -3.8096  H     
26   H         2.8356  -27.8975   -2.2098  H     
27   H         2.2713  -29.3629   -2.7714  H     
28   H         6.8191  -26.0488   -3.6193  H     
29   H         7.7644  -26.8672   -4.7529  H     
30   H         6.8548  -33.8558   -5.9639  H     
31   H         6.1994  -35.6609   -9.7018  H     
32   H         4.2918  -34.2254  -10.0776  H     
33   H         2.0117  -33.9837   -8.4048  H     
34   H         1.3873  -32.3364   -8.1312  H     
35   H         1.7260  -31.7298  -10.5178  H     
36   H         0.6220  -33.1268  -10.3109  H     
37   H         2.3130  -33.3965  -10.8508  H     
38   H         2.5742  -33.6299   -6.3309  H     
39   H         1.9948  -33.2845   -4.6810  H     
40   H         3.4702  -34.2505   -4.9278  H     
@<TRIPOS>BOND
     1    1    2 2
     2    1    4 1
     3    1   23 1
     4    2    3 1
     5    2   13 1
     6    3    6 2
     7    4    5 2
     8    5    6 1
     9    5   10 1
    10    6    7 1
    11    7    8 2
    12    8    9 1
    13    8   12 1
    14    9   10 2
    15   10   11 1
    16   13   14 2
    17   13   18 1
    18   14   15 1
    19   15   16 2
    20   15   19 1
    21   16   17 1
    22   17   18 2
    23   18   20 1
    24   20   21 1
    25   21   22 1
    26    3   24 1
    27    4   25 1
    28   11   26 1
    29   11   27 1
    30   12   28 1
    31   12   29 1
    32   14   30 1
    33   16   31 1
    34   17   32 1
    35   21   33 1
    36   21   34 1
    37   22   35 1
    38   22   36 1
    39   22   37 1
    40   23   38 1
    41   23   39 1
    42   23   40 1
@<TRIPOS>PROPERTY_DATA
  Total_Score	| 7.2178
  Crash		| -0.7381
  Polar		| 2.5388
  FragIndex	| 1
  FragRMSD	| 0.854

