@<TRIPOS>MOLECULE
BindingDB_27081
 55 59 0 0 0
SMALL
NO_CHARGES


@<TRIPOS>ATOM
1    C         5.6207   30.0933    6.7851  C     
2    C         6.4670   29.0465    6.4007  C     
3    C         6.9891   28.5678    7.5980  C     
4    N         5.6755   30.2066    8.1231  N     
5    N         6.4813   29.3069    8.5869  N     
6    C         4.8642   30.9367    5.9593  C     
7    N         4.6091   30.7101    4.6578  N     
8    N         4.2808   32.0965    6.3394  N     
9    C         3.8687   31.7312    4.2188  C     
10   C         2.6110   33.1619    2.7121  C     
11   C         3.3411   31.9734    2.9463  C     
12   C         3.6664   32.6174    5.2758  C     
13   C         2.9425   33.8094    5.0734  C     
14   C         2.4272   34.0823    3.7866  C     
15   N         6.7446   28.7191    5.1039  N     
16   C         7.6108   27.8424    4.6145  C     
17   C         2.0837   33.4464    1.3516  C     
18   C         4.0654   32.9710   -0.0563  C     
19   C         3.8403   35.2104    0.9867  C     
20   C         4.8813   35.7444   -0.0259  C     
21   C         5.1000   33.5739   -1.0364  C     
22   N         3.1157   34.0238    0.4304  N     
23   O         5.7736   34.7031   -0.4555  O     
24   O         8.2652   27.1181    5.3448  O     
25   N         7.9050   27.7744    3.3201  N     
26   C         7.3163   28.4740    2.3059  C     
27   C         5.9488   28.5660    0.2741  C     
28   C         6.1247   29.9581    0.2194  C     
29   C         6.9120   30.6124    1.1891  C     
30   C         7.5218   29.8659    2.2136  C     
31   C         6.5390   27.8254    1.3166  C     
32   H         7.6708   27.8195    7.7157  H     
33   H         6.7072   29.1985    9.5229  H     
34   H         4.3281   32.4876    7.2215  H     
35   H         3.5143   31.2984    2.2015  H     
36   H         2.8105   34.4729    5.8471  H     
37   H         1.9146   34.9517    3.6330  H     
38   H         6.2862   29.2589    4.4435  H     
39   H         1.6724   32.5352    0.9042  H     
40   H         1.2464   34.1458    1.4613  H     
41   H         3.5177   32.1823   -0.5781  H     
42   H         4.5998   32.5172    0.7846  H     
43   H         4.3548   34.9421    1.9149  H     
44   H         3.1412   36.0227    1.2014  H     
45   H         4.3731   36.1788   -0.8927  H     
46   H         5.4779   36.5275    0.4460  H     
47   H         5.8483   32.8209   -1.2844  H     
48   H         4.6027   33.8733   -1.9625  H     
49   H         2.6147   34.3589   -0.3906  H     
50   H         8.6898   27.2496    3.0893  H     
51   H         5.3894   28.0887   -0.4398  H     
52   H         5.6831   30.4982   -0.5290  H     
53   H         7.0509   31.6243    1.1322  H     
54   H         8.0914   30.3507    2.9119  H     
55   H         6.4155   26.8138    1.3466  H     
@<TRIPOS>BOND
     1    1    2 1
     2    1    4 2
     3    1    6 1
     4    2    3 2
     5    2   15 1
     6    3    5 1
     7    4    5 1
     8    6    7 2
     9    6    8 1
    10    7    9 1
    11    8   12 1
    12    9   11 2
    13    9   12 1
    14   10   11 1
    15   10   14 2
    16   10   17 1
    17   12   13 2
    18   13   14 1
    19   15   16 am
    20   16   24 2
    21   16   25 am
    22   17   22 1
    23   18   21 1
    24   18   22 1
    25   19   20 1
    26   19   22 1
    27   20   23 1
    28   21   23 1
    29   25   26 1
    30   26   30 2
    31   26   31 1
    32   27   28 1
    33   27   31 2
    34   28   29 2
    35   29   30 1
    36    3   32 1
    37    5   33 1
    38    8   34 1
    39   11   35 1
    40   13   36 1
    41   14   37 1
    42   15   38 1
    43   17   39 1
    44   17   40 1
    45   18   41 1
    46   18   42 1
    47   19   43 1
    48   19   44 1
    49   20   45 1
    50   20   46 1
    51   21   47 1
    52   21   48 1
    53   22   49 1
    54   25   50 1
    55   27   51 1
    56   28   52 1
    57   29   53 1
    58   30   54 1
    59   31   55 1
@<TRIPOS>PROPERTY_DATA
  Total_Score	| 5.5040
  Crash		| -1.0276
  Polar		| 2.3558
  FragIndex	| 1
  FragRMSD	| 0.140

