@<TRIPOS>MOLECULE
BindingDB_27077
 29 31 0 0 0
SMALL
NO_CHARGES


@<TRIPOS>ATOM
1    C         5.6248   30.1613    6.8371  C     
2    C         6.4768   29.1250    6.4337  C     
3    C         6.9752   28.6046    7.6218  C     
4    N         5.6454   30.2174    8.1820  N     
5    N         6.4438   29.3050    8.6336  N     
6    C         4.8582   31.0320    6.0328  C     
7    N         4.0649   32.0159    6.5150  N     
8    N         4.7867   31.0275    4.6976  N     
9    C         3.5015   32.6193    5.4591  C     
10   C         2.1710   34.1169    4.0765  C     
11   C         2.5977   33.6939    5.3578  C     
12   C         3.9598   31.9915    4.3085  C     
13   C         3.5514   32.3876    3.0268  C     
14   C         2.6470   33.4652    2.9150  C     
15   N         6.7194   28.7600    5.1428  N     
16   C         7.4931   27.8118    4.6469  C     
17   C         7.5433   27.6616    3.2074  C     
18   O         8.1668   27.0714    5.3525  O     
19   H         7.6316   27.8290    7.7317  H     
20   H         6.6333   29.1580    9.5705  H     
21   H         5.2410   30.4360    4.0850  H     
22   H         1.5184   34.8938    3.9910  H     
23   H         2.2536   34.1580    6.2005  H     
24   H         3.9007   31.9077    2.1985  H     
25   H         2.3359   33.7724    1.9925  H     
26   H         6.2521   29.2762    4.4701  H     
27   H         6.5453   27.4441    2.8200  H     
28   H         8.2111   26.8518    2.9105  H     
29   H         7.9004   28.5870    2.7498  H     
@<TRIPOS>BOND
     1    1    2 1
     2    1    4 2
     3    1    6 1
     4    2    3 2
     5    2   15 1
     6    3    5 1
     7    4    5 1
     8    6    7 2
     9    6    8 1
    10    7    9 1
    11    8   12 1
    12    9   11 1
    13    9   12 2
    14   10   11 2
    15   10   14 1
    16   12   13 1
    17   13   14 2
    18   15   16 am
    19   16   17 1
    20   16   18 2
    21    3   19 1
    22    5   20 1
    23    8   21 1
    24   10   22 1
    25   11   23 1
    26   13   24 1
    27   14   25 1
    28   15   26 1
    29   17   27 1
    30   17   28 1
    31   17   29 1
@<TRIPOS>PROPERTY_DATA
  Total_Score	| 2.4998
  Crash		| -0.3289
  Polar		| 1.2651
  FragIndex	| 1
  FragRMSD	| 1.451

