@<TRIPOS>MOLECULE
BindingDB_27082
 55 59 0 0 0
SMALL
NO_CHARGES


@<TRIPOS>ATOM
1    C         5.6589   30.1202    6.7947  C     
2    C         6.5701   29.1300    6.4241  C     
3    C         7.1060   28.6811    7.6277  C     
4    N         5.6737   30.2321    8.1331  N     
5    N         6.5220   29.3810    8.6106  N     
6    C         4.8444   30.9086    5.9666  C     
7    N         4.6299   30.7138    4.6487  N     
8    N         4.1686   32.0014    6.3669  N     
9    C         3.8296   31.7015    4.2192  C     
10   C         2.5570   33.1532    2.7396  C     
11   C         3.3230   31.9735    2.9377  C     
12   C         3.5489   32.5309    5.3032  C     
13   C         2.7424   33.6741    5.1546  C     
14   C         2.2537   33.9799    3.8619  C     
15   N         6.8359   28.7925    5.1340  N     
16   C         7.6313   27.8563    4.6345  C     
17   C         2.1098   33.5251    1.3622  C     
18   C         3.9173   35.2380    1.0069  C     
19   C         4.0835   33.0528   -0.1536  C     
20   C         5.0344   33.7128   -1.1837  C     
21   C         4.8906   35.8272   -0.0440  C     
22   N         3.1618   34.0763    0.4375  N     
23   O         5.7555   34.7888   -0.5514  O     
24   O         8.2267   27.0669    5.3540  O     
25   N         7.7793   27.6803    3.3292  N     
26   C         7.2505   28.4363    2.3152  C     
27   C         6.8872   30.5559    1.1406  C     
28   C         6.1688   29.8813    0.1350  C     
29   C         6.0047   28.4882    0.2055  C     
30   C         6.5581   27.7659    1.2814  C     
31   C         7.4233   29.8394    2.2276  C     
32   F         8.1228   30.4965    3.1178  F     
33   H         7.8255   27.9693    7.7629  H     
34   H         6.7165   29.2786    9.5535  H     
35   H         4.1787   32.3694    7.2655  H     
36   H         3.5375   31.3322    2.1690  H     
37   H         2.5359   34.2786    5.9596  H     
38   H         1.6816   34.8252    3.7463  H     
39   H         6.3687   29.3210    4.4742  H     
40   H         1.6302   32.6563    0.9086  H     
41   H         1.3181   34.2742    1.4197  H     
42   H         4.4987   34.9225    1.8795  H     
43   H         3.2214   36.0222    1.3159  H     
44   H         3.5013   32.2861   -0.6729  H     
45   H         4.6886   32.5753    0.6176  H     
46   H         5.7634   32.9769   -1.5244  H     
47   H         4.4763   34.0722   -2.0597  H     
48   H         4.3272   36.2903   -0.8599  H     
49   H         5.5082   36.6013    0.4176  H     
50   H         2.6356   34.4603   -0.3563  H     
51   H         8.2638   26.8831    3.0587  H     
52   H         7.0280   31.5656    1.0712  H     
53   H         5.7807   30.3993   -0.6537  H     
54   H         5.4898   27.9994   -0.5271  H     
55   H         6.4358   26.7510    1.3146  H     
@<TRIPOS>BOND
     1    1    2 1
     2    1    4 2
     3    1    6 1
     4    2    3 2
     5    2   15 1
     6    3    5 1
     7    4    5 1
     8    6    7 2
     9    6    8 1
    10    7    9 1
    11    8   12 1
    12    9   11 2
    13    9   12 1
    14   10   11 1
    15   10   14 2
    16   10   17 1
    17   12   13 2
    18   13   14 1
    19   15   16 am
    20   16   24 2
    21   16   25 am
    22   17   22 1
    23   18   21 1
    24   18   22 1
    25   19   20 1
    26   19   22 1
    27   20   23 1
    28   21   23 1
    29   25   26 1
    30   26   30 2
    31   26   31 1
    32   27   28 1
    33   27   31 2
    34   28   29 2
    35   29   30 1
    36   31   32 1
    37    3   33 1
    38    5   34 1
    39    8   35 1
    40   11   36 1
    41   13   37 1
    42   14   38 1
    43   15   39 1
    44   17   40 1
    45   17   41 1
    46   18   42 1
    47   18   43 1
    48   19   44 1
    49   19   45 1
    50   20   46 1
    51   20   47 1
    52   21   48 1
    53   21   49 1
    54   22   50 1
    55   25   51 1
    56   27   52 1
    57   28   53 1
    58   29   54 1
    59   30   55 1
@<TRIPOS>PROPERTY_DATA
  Total_Score	| 5.4630
  Crash		| -0.9272
  Polar		| 2.2204
  FragIndex	| 1
  FragRMSD	| 0.107

