@<TRIPOS>MOLECULE
BindingDB_27083
 55 59 0 0 0
SMALL
NO_CHARGES


@<TRIPOS>ATOM
1    C         5.6658   30.1122    6.8172  C     
2    C         6.5968   29.1419    6.4396  C     
3    C         7.1382   28.6910    7.6391  C     
4    N         5.6792   30.2056    8.1593  N     
5    N         6.5435   29.3675    8.6257  N     
6    C         4.8499   30.9047    5.9883  C     
7    N         4.6515   30.7242    4.6667  N     
8    N         4.1518   31.9838    6.3956  N     
9    C         3.8441   31.7044    4.2435  C     
10   C         2.5594   33.1482    2.7691  C     
11   C         3.3381   31.9802    2.9649  C     
12   C         3.5329   32.5159    5.3345  C     
13   C         2.7233   33.6541    5.1864  C     
14   C         2.2350   33.9647    3.8978  C     
15   N         6.8773   28.8277    5.1439  N     
16   C         7.7094   27.9236    4.6414  C     
17   C         2.1109   33.5245    1.3946  C     
18   C         4.0900   32.9972   -0.0934  C     
19   C         3.9314   35.2138    1.0036  C     
20   C         4.9076   35.7730   -0.0587  C     
21   C         5.0450   33.6227   -1.1395  C     
22   N         3.1691   34.0461    0.4613  N     
23   O         5.7655   34.7205   -0.5440  O     
24   O         8.3207   27.1448    5.3581  O     
25   N         7.8776   27.7713    3.3355  N     
26   C         7.3229   28.5085    2.3277  C     
27   C         6.0355   28.5469    0.2448  C     
28   C         6.2075   29.9355    0.1525  C     
29   C         6.9475   30.6186    1.1373  C     
30   C         6.6054   27.8317    1.3159  C     
31   F         6.4359   26.5379    1.3670  F     
32   C         7.5001   29.9119    2.2231  C     
33   F         8.2123   30.5763    3.0915  F     
34   H         7.8721   27.9950    7.7626  H     
35   H         6.7430   29.2609    9.5642  H     
36   H         4.1343   32.3311    7.3020  H     
37   H         3.5627   31.3525    2.1922  H     
38   H         2.4977   34.2471    5.9909  H     
39   H         1.6587   34.8081    3.7787  H     
40   H         6.3933   29.3484    4.4871  H     
41   H         1.6096   32.6670    0.9436  H     
42   H         1.3373   34.2942    1.4513  H     
43   H         3.5085   32.2091   -0.5826  H     
44   H         4.6950   32.5533    0.6989  H     
45   H         4.5112   34.9097    1.8817  H     
46   H         3.2376   36.0051    1.3019  H     
47   H         4.3485   36.2258   -0.8793  H     
48   H         5.5273   36.5497    0.3938  H     
49   H         5.7732   32.8716   -1.4555  H     
50   H         4.4861   33.9553   -2.0241  H     
51   H         2.6544   34.4075   -0.3492  H     
52   H         8.3912   26.9930    3.0653  H     
53   H         5.4990   28.0559   -0.4808  H     
54   H         5.8078   30.4506   -0.6390  H     
55   H         7.0933   31.6270    1.0522  H     
@<TRIPOS>BOND
     1    1    2 1
     2    1    4 2
     3    1    6 1
     4    2    3 2
     5    2   15 1
     6    3    5 1
     7    4    5 1
     8    6    7 2
     9    6    8 1
    10    7    9 1
    11    8   12 1
    12    9   11 2
    13    9   12 1
    14   10   11 1
    15   10   14 2
    16   10   17 1
    17   12   13 2
    18   13   14 1
    19   15   16 am
    20   16   24 2
    21   16   25 am
    22   17   22 1
    23   18   21 1
    24   18   22 1
    25   19   20 1
    26   19   22 1
    27   20   23 1
    28   21   23 1
    29   25   26 1
    30   26   30 1
    31   26   32 2
    32   27   28 1
    33   27   30 2
    34   28   29 2
    35   29   32 1
    36   30   31 1
    37   32   33 1
    38    3   34 1
    39    5   35 1
    40    8   36 1
    41   11   37 1
    42   13   38 1
    43   14   39 1
    44   15   40 1
    45   17   41 1
    46   17   42 1
    47   18   43 1
    48   18   44 1
    49   19   45 1
    50   19   46 1
    51   20   47 1
    52   20   48 1
    53   21   49 1
    54   21   50 1
    55   22   51 1
    56   25   52 1
    57   27   53 1
    58   28   54 1
    59   29   55 1
@<TRIPOS>PROPERTY_DATA
  Total_Score	| 5.3324
  Crash		| -0.9042
  Polar		| 2.2661
  FragIndex	| 1
  FragRMSD	| 0.133

