@<TRIPOS>MOLECULE
BindingDB_27085
 54 58 0 0 0
SMALL
NO_CHARGES


@<TRIPOS>ATOM
1    C         5.5432   30.0043    6.8467  C     
2    C         6.3358   28.9205    6.4562  C     
3    C         6.8076   28.4028    7.6570  C     
4    N         5.5845   30.1063    8.1862  N     
5    N         6.3252   29.1614    8.6526  N     
6    C         4.8203   30.8968    6.0439  C     
7    N         4.6962   30.7811    4.7124  N     
8    N         4.1363   31.9828    6.4657  N     
9    C         3.9344   31.7940    4.3032  C     
10   C         2.6693   33.2293    2.8091  C     
11   C         3.5095   32.1109    3.0135  C     
12   C         3.5718   32.5646    5.4018  C     
13   C         2.7489   33.6919    5.2379  C     
14   C         2.2993   34.0153    3.9382  C     
15   N         6.5836   28.5306    5.1664  N     
16   C         7.6672   27.9046    4.7126  C     
17   C         2.1841   33.5503    1.4339  C     
18   C         3.9423   35.2665    0.9621  C     
19   C         4.1110   33.0517   -0.1355  C     
20   C         4.9855   33.6939   -1.2329  C     
21   C         4.8646   35.8385   -0.1367  C     
22   N         3.1936   34.0755    0.4557  N     
23   O         5.7141   34.8047   -0.6692  O     
24   O         8.5482   27.5232    5.4635  O     
25   N         7.8974   27.6575    3.4294  N     
26   C         7.1856   28.0508    2.3356  C     
27   C         5.6545   28.6426    0.0600  C     
28   C         5.9477   29.6694    0.9795  C     
29   C         6.7565   29.3811    2.0987  C     
30   C         6.8849   27.0759    1.3590  C     
31   N         6.1156   27.3852    0.2846  N     
32   H         7.4068   27.5895    7.7800  H     
33   H         6.5089   29.0300    9.5925  H     
34   H         4.0723   32.2846    7.3817  H     
35   H         3.8313   31.5267    2.2438  H     
36   H         2.4599   34.2435    6.0484  H     
37   H         1.6965   34.8313    3.8233  H     
38   H         5.9350   28.8121    4.4858  H     
39   H         1.7149   32.6511    1.0220  H     
40   H         1.3823   34.2917    1.4972  H     
41   H         4.5495   34.9840    1.8259  H     
42   H         3.2420   36.0472    1.2704  H     
43   H         3.5370   32.2340   -0.5764  H     
44   H         4.7814   32.6456    0.6229  H     
45   H         5.7004   32.9632   -1.6098  H     
46   H         4.3640   34.0163   -2.0671  H     
47   H         4.2666   36.2902   -0.9327  H     
48   H         5.4997   36.6167    0.2907  H     
49   H         2.6446   34.4184   -0.3320  H     
50   H         8.6622   27.0841    3.2500  H     
51   H         5.0706   28.8209   -0.7608  H     
52   H         5.5505   30.6056    0.8310  H     
53   H         7.0473   30.1224    2.7478  H     
54   H         7.2022   26.1081    1.4717  H     
@<TRIPOS>BOND
     1    1    2 1
     2    1    4 2
     3    1    6 1
     4    2    3 2
     5    2   15 1
     6    3    5 1
     7    4    5 1
     8    6    7 2
     9    6    8 1
    10    7    9 1
    11    8   12 1
    12    9   11 2
    13    9   12 1
    14   10   11 1
    15   10   14 2
    16   10   17 1
    17   12   13 2
    18   13   14 1
    19   15   16 am
    20   16   24 2
    21   16   25 am
    22   17   22 1
    23   18   21 1
    24   18   22 1
    25   19   20 1
    26   19   22 1
    27   20   23 1
    28   21   23 1
    29   25   26 1
    30   26   29 1
    31   26   30 2
    32   27   28 1
    33   27   31 2
    34   28   29 2
    35   30   31 1
    36    3   32 1
    37    5   33 1
    38    8   34 1
    39   11   35 1
    40   13   36 1
    41   14   37 1
    42   15   38 1
    43   17   39 1
    44   17   40 1
    45   18   41 1
    46   18   42 1
    47   19   43 1
    48   19   44 1
    49   20   45 1
    50   20   46 1
    51   21   47 1
    52   21   48 1
    53   22   49 1
    54   25   50 1
    55   27   51 1
    56   28   52 1
    57   29   53 1
    58   30   54 1
@<TRIPOS>PROPERTY_DATA
  Total_Score	| 5.7126
  Crash		| -1.0491
  Polar		| 3.1231
  FragIndex	| 1
  FragRMSD	| 0.770

