@<TRIPOS>MOLECULE
BindingDB_27080
 53 57 0 0 0
SMALL
NO_CHARGES


@<TRIPOS>ATOM
1    C         5.5595   30.1477    6.7375  C     
2    C         6.3467   29.0494    6.3723  C     
3    C         6.8100   28.5346    7.5789  C     
4    N         5.5808   30.2468    8.0787  N     
5    N         6.3182   29.2991    8.5617  N     
6    C         4.8306   31.0190    5.9018  C     
7    N         4.6977   30.8365    4.5753  N     
8    N         4.1400   32.1218    6.2703  N     
9    C         3.9107   31.8121    4.1195  C     
10   C         2.6005   33.1184    2.5478  C     
11   C         3.4611   32.0509    2.8286  C     
12   C         3.5505   32.6393    5.1753  C     
13   C         2.6991   33.7408    4.9426  C     
14   C         2.2220   33.9701    3.6251  C     
15   N         6.5386   28.6206    5.0866  N     
16   C         7.3768   27.7119    4.5959  C     
17   C         7.3906   27.3746    3.2280  C     
18   C         6.5324   27.6249    0.9247  C     
19   C         7.4095   26.6268    0.4680  C     
20   C         8.2842   26.0050    1.3746  C     
21   C         8.2711   26.3730    2.7331  C     
22   C         6.5246   27.9929    2.2828  C     
23   C         2.0763   33.1969    1.1543  C     
24   C         4.1578   32.5593   -0.3168  C     
25   C         3.4628   34.9467   -0.0078  C     
26   C         4.8065   35.1947    0.7057  C     
27   C         5.5541   32.9568    0.2493  C     
28   N         3.0319   33.5128    0.0332  N     
29   O         5.8279   34.3650    0.1405  O     
30   O         8.1684   27.1658    5.3537  O     
31   F         7.4061   26.2732   -0.7880  F     
32   H         7.3998   27.7139    7.7200  H     
33   H         6.4799   29.1573    9.5059  H     
34   H         4.0752   32.4691    7.1751  H     
35   H         3.7266   31.4279    2.0811  H     
36   H         2.4095   34.3460    5.7176  H     
37   H         1.5827   34.7485    3.4597  H     
38   H         5.9760   29.0537    4.4341  H     
39   H         5.8890   28.0802    0.2711  H     
40   H         8.9234   25.2747    1.0517  H     
41   H         8.9163   25.8865    3.3603  H     
42   H         5.8633   28.7187    2.5636  H     
43   H         1.6115   32.2322    0.9257  H     
44   H         1.2556   33.9181    1.1240  H     
45   H         4.2521   32.6084   -1.4046  H     
46   H         3.9599   31.4976   -0.0784  H     
47   H         2.7112   35.6108    0.4217  H     
48   H         3.5757   35.2346   -1.0552  H     
49   H         5.1014   36.2378    0.5642  H     
50   H         4.7119   35.0115    1.7788  H     
51   H         5.6576   32.6551    1.2922  H     
52   H         6.3359   32.4340   -0.3104  H     
53   H         2.4191   33.4372   -0.7805  H     
@<TRIPOS>BOND
     1    1    2 1
     2    1    4 2
     3    1    6 1
     4    2    3 2
     5    2   15 1
     6    3    5 1
     7    4    5 1
     8    6    7 2
     9    6    8 1
    10    7    9 1
    11    8   12 1
    12    9   11 2
    13    9   12 1
    14   10   11 1
    15   10   14 2
    16   10   23 1
    17   12   13 2
    18   13   14 1
    19   15   16 am
    20   16   17 1
    21   16   30 2
    22   17   21 2
    23   17   22 1
    24   18   19 1
    25   18   22 2
    26   19   20 2
    27   19   31 1
    28   20   21 1
    29   23   28 1
    30   24   27 1
    31   24   28 1
    32   25   26 1
    33   25   28 1
    34   26   29 1
    35   27   29 1
    36    3   32 1
    37    5   33 1
    38    8   34 1
    39   11   35 1
    40   13   36 1
    41   14   37 1
    42   15   38 1
    43   18   39 1
    44   20   40 1
    45   21   41 1
    46   22   42 1
    47   23   43 1
    48   23   44 1
    49   24   45 1
    50   24   46 1
    51   25   47 1
    52   25   48 1
    53   26   49 1
    54   26   50 1
    55   27   51 1
    56   27   52 1
    57   28   53 1
@<TRIPOS>PROPERTY_DATA
  Total_Score	| 5.2717
  Crash		| -0.7875
  Polar		| 2.3874
  FragIndex	| 1
  FragRMSD	| 0.579

