@<TRIPOS>MOLECULE
BindingDB_27087
 52 56 0 0 0
SMALL
NO_CHARGES


@<TRIPOS>ATOM
1    C         5.5898   30.1095    7.0242  C     
2    C         6.3742   29.0322    6.6026  C     
3    C         6.9406   28.5270    7.7661  C     
4    N         5.7221   30.2262    8.3569  N     
5    N         6.5133   29.2915    8.7804  N     
6    C         4.7868   30.9389    6.2179  C     
7    N         4.5248   30.6664    4.9268  N     
8    N         4.2008   32.1081    6.5539  N     
9    C         3.8089   31.6793    4.4494  C     
10   C         2.7534   33.1233    2.8029  C     
11   C         3.3997   31.9167    3.1361  C     
12   C         3.5942   32.6042    5.4612  C     
13   C         2.9085   33.8005    5.1790  C     
14   C         2.4934   34.0555    3.8474  C     
15   N         6.5361   28.6848    5.2955  N     
16   C         7.4657   27.9658    4.6965  C     
17   C         2.5122   33.4114    1.3589  C     
18   C         2.3854   31.9207   -0.7151  C     
19   C         0.3194   32.4968    0.5505  C     
20   C        -0.4087   31.3446   -0.2000  C     
21   C         1.6118   30.7320   -1.3618  C     
22   N         1.8024   32.2905    0.6271  N     
23   O         0.4982   30.2873   -0.5619  O     
24   O         8.3891   27.4303    5.2949  O     
25   N         7.3259   27.8760    3.3864  N     
26   C         8.1810   27.1610    2.5039  C     
27   C         7.5916   26.6439    1.1844  C     
28   C         8.4618   27.9053    1.1876  C     
29   H         7.5848   27.7396    7.8502  H     
30   H         6.7645   29.1681    9.7071  H     
31   H         4.2855   32.5560    7.4087  H     
32   H         3.5968   31.2321    2.4219  H     
33   H         2.7565   34.4936    5.9151  H     
34   H         2.0446   34.9491    3.6350  H     
35   H         5.8657   29.0416    4.6955  H     
36   H         1.9733   34.3598    1.2721  H     
37   H         3.4923   33.5942    0.9085  H     
38   H         3.4443   31.6184   -0.6338  H     
39   H         2.3378   32.7866   -1.3827  H     
40   H         0.1001   33.4433    0.0449  H     
41   H        -0.0797   32.5623    1.5682  H     
42   H        -1.1822   30.9155    0.4412  H     
43   H        -0.9037   31.7263   -1.0981  H     
44   H         2.2806   29.8763   -1.4812  H     
45   H         1.2591   31.0094   -2.3603  H     
46   H         1.9283   31.4445    1.1889  H     
47   H         6.5698   28.3403    2.9915  H     
48   H         9.0691   26.6590    2.8949  H     
49   H         8.0588   25.7432    0.7818  H     
50   H         6.5211   26.8069    1.0389  H     
51   H         7.9171   28.8328    0.9981  H     
52   H         9.4544   27.7727    0.7519  H     
@<TRIPOS>BOND
     1    1    2 1
     2    1    4 2
     3    1    6 1
     4    2    3 2
     5    2   15 1
     6    3    5 1
     7    4    5 1
     8    6    7 2
     9    6    8 1
    10    7    9 1
    11    8   12 1
    12    9   11 2
    13    9   12 1
    14   10   11 1
    15   10   14 2
    16   10   17 1
    17   12   13 2
    18   13   14 1
    19   15   16 am
    20   16   24 2
    21   16   25 am
    22   17   22 1
    23   18   21 1
    24   18   22 1
    25   19   20 1
    26   19   22 1
    27   20   23 1
    28   21   23 1
    29   25   26 1
    30   26   27 1
    31   26   28 1
    32   27   28 1
    33    3   29 1
    34    5   30 1
    35    8   31 1
    36   11   32 1
    37   13   33 1
    38   14   34 1
    39   15   35 1
    40   17   36 1
    41   17   37 1
    42   18   38 1
    43   18   39 1
    44   19   40 1
    45   19   41 1
    46   20   42 1
    47   20   43 1
    48   21   44 1
    49   21   45 1
    50   22   46 1
    51   25   47 1
    52   26   48 1
    53   27   49 1
    54   27   50 1
    55   28   51 1
    56   28   52 1
@<TRIPOS>PROPERTY_DATA
  Total_Score	| 5.5420
  Crash		| -1.0766
  Polar		| 2.9967
  FragIndex	| 1
  FragRMSD	| 0.705

