@<TRIPOS>MOLECULE
BindingDB_27078
 36 39 0 0 0
SMALL
NO_CHARGES


@<TRIPOS>ATOM
1    C         5.6298   30.1104    6.7631  C     
2    C         6.4641   29.0547    6.3804  C     
3    C         6.9884   28.5714    7.5734  C     
4    N         5.6851   30.2129    8.1027  N     
5    N         6.4863   29.3116    8.5701  N     
6    C         4.8510   30.9777    5.9635  C     
7    N         4.1003   31.9829    6.4695  N     
8    N         4.7243   30.9653    4.6223  N     
9    C         3.5048   32.5965    5.4337  C     
10   C         2.1462   34.1345    4.1406  C     
11   C         2.6220   33.6936    5.3963  C     
12   C         3.9001   31.9535    4.2644  C     
13   C         3.4330   32.3787    3.0107  C     
14   C         2.5506   33.4788    2.9540  C     
15   N         6.6592   28.6491    5.0929  N     
16   C         7.4507   27.7197    4.5587  C     
17   C         7.4567   27.5043    3.1674  C     
18   C         6.8907   28.2366    0.8773  C     
19   C         7.4504   27.0674    0.3445  C     
20   C         8.0148   26.1163    1.2068  C     
21   C         8.0214   26.3319    2.6001  C     
22   C         6.8959   28.4547    2.2702  C     
23   O         8.1637   27.0355    5.2871  O     
24   H         7.6350   27.7898    7.6926  H     
25   H         6.6998   29.1921    9.5110  H     
26   H         5.1493   30.3493    4.0038  H     
27   H         1.5068   34.9312    4.0923  H     
28   H         2.3344   34.1533    6.2629  H     
29   H         3.7288   31.8987    2.1567  H     
30   H         2.2013   33.8032    2.0474  H     
31   H         6.1092   29.1203    4.4520  H     
32   H         6.4828   28.9373    0.2516  H     
33   H         7.4515   26.9151   -0.6666  H     
34   H         8.4203   25.2584    0.8207  H     
35   H         8.4374   25.6078    3.1927  H     
36   H         6.4998   29.3314    2.6038  H     
@<TRIPOS>BOND
     1    1    2 1
     2    1    4 2
     3    1    6 1
     4    2    3 2
     5    2   15 1
     6    3    5 1
     7    4    5 1
     8    6    7 2
     9    6    8 1
    10    7    9 1
    11    8   12 1
    12    9   11 2
    13    9   12 1
    14   10   11 1
    15   10   14 2
    16   12   13 2
    17   13   14 1
    18   15   16 am
    19   16   17 1
    20   16   23 2
    21   17   21 2
    22   17   22 1
    23   18   19 1
    24   18   22 2
    25   19   20 2
    26   20   21 1
    27    3   24 1
    28    5   25 1
    29    8   26 1
    30   10   27 1
    31   11   28 1
    32   13   29 1
    33   14   30 1
    34   15   31 1
    35   18   32 1
    36   19   33 1
    37   20   34 1
    38   21   35 1
    39   22   36 1
@<TRIPOS>PROPERTY_DATA
  Total_Score	| 3.0975
  Crash		| -0.3322
  Polar		| 1.2725
  FragIndex	| 1
  FragRMSD	| 1.457

