@<TRIPOS>MOLECULE
BindingDB_24712
 42 45 0 0 0
SMALL
NO_CHARGES


@<TRIPOS>ATOM
1    C         5.4847   30.2806    6.8033  C     
2    C         6.7243   29.6574    6.8838  C     
3    C         6.8014   29.1245    8.1619  C     
4    N         5.6404   29.4203    8.7708  N     
5    N         4.8634   30.1034    7.9834  N     
6    C         7.9291   28.4037    8.7638  C     
7    C         4.9739   30.9981    5.7119  C     
8    N         5.6589   31.2359    4.5733  N     
9    N         3.7499   31.5601    5.6365  N     
10   C         3.6534   32.1605    4.4491  C     
11   C         2.6179   32.8921    3.8496  C     
12   C         5.0798   32.4566    2.4817  C     
13   C         4.8562   31.9486    3.7785  C     
14   C         2.8320   33.3942    2.5486  C     
15   C         2.7727   34.4346    0.5940  C     
16   C         4.0407   33.1990    1.8666  C     
17   N         3.9667   33.8529    0.6744  N     
18   O         2.4324   35.1415   -0.3494  O     
19   C         1.8915   34.1583    1.7214  C     
20   C         0.6947   33.2592    1.2955  C     
21   C         1.4218   35.4579    2.4400  C     
22   C         5.0603   34.0154   -0.2687  C     
23   C         4.7293   33.5991   -1.7238  C     
24   H         7.4458   29.6186    6.1619  H     
25   H         5.4158   29.1777    9.6828  H     
26   H         7.6296   27.3797    8.9778  H     
27   H         8.2201   28.8948    9.6941  H     
28   H         8.7883   28.3887    8.0898  H     
29   H         3.0621   31.5235    6.3144  H     
30   H         1.7447   33.0715    4.3450  H     
31   H         5.9707   32.2901    2.0146  H     
32   H         1.0418   32.3082    0.8787  H     
33   H         0.0862   33.7611    0.5398  H     
34   H         0.0635   33.0397    2.1587  H     
35   H         0.8122   35.2096    3.3115  H     
36   H         0.8139   36.0718    1.7695  H     
37   H         2.2744   36.0544    2.7790  H     
38   H         5.3643   35.0660   -0.2653  H     
39   H         5.9399   33.4359    0.0459  H     
40   H         4.2353   32.6207   -1.7349  H     
41   H         5.6537   33.5429   -2.3177  H     
42   H         4.0744   34.3396   -2.1845  H     
@<TRIPOS>BOND
     1    1    2 1
     2    1    5 2
     3    1    7 1
     4    2    3 2
     5    3    4 1
     6    3    6 1
     7    4    5 1
     8    7    8 2
     9    7    9 1
    10    8   13 1
    11    9   10 1
    12   10   11 2
    13   10   13 1
    14   11   14 1
    15   12   13 2
    16   12   16 1
    17   14   16 2
    18   14   19 1
    19   15   17 1
    20   15   18 2
    21   15   19 1
    22   16   17 1
    23   17   22 1
    24   19   20 1
    25   19   21 1
    26   22   23 1
    27    2   24 1
    28    4   25 1
    29    6   26 1
    30    6   27 1
    31    6   28 1
    32    9   29 1
    33   11   30 1
    34   12   31 1
    35   20   32 1
    36   20   33 1
    37   20   34 1
    38   21   35 1
    39   21   36 1
    40   21   37 1
    41   22   38 1
    42   22   39 1
    43   23   40 1
    44   23   41 1
    45   23   42 1
@<TRIPOS>PROPERTY_DATA
  Total_Score	| 2.8471
  Crash		| -1.7712
  Polar		| 0.0000
  FragIndex	| 1
  FragRMSD	| 1.355

