@<TRIPOS>MOLECULE
BindingDB_27079
 53 57 0 0 0
SMALL
NO_CHARGES


@<TRIPOS>ATOM
1    C         5.6723   30.0244    6.8112  C     
2    C         6.4831   28.9217    6.5089  C     
3    C         6.9077   28.4683    7.7612  C     
4    N         5.6537   30.1854    8.1473  N     
5    N         6.3765   29.2683    8.6959  N     
6    C         4.9646   30.8910    5.9675  C     
7    N         4.8553   30.7997    4.6254  N     
8    N         4.2478   31.9496    6.4046  N     
9    C         4.0385   31.7947    4.2320  C     
10   C         2.6309   33.2009    2.8113  C     
11   C         3.5594   32.1368    2.9537  C     
12   C         3.6458   32.5144    5.3540  C     
13   C         2.7755   33.6108    5.2454  C     
14   C         2.2743   33.9476    3.9659  C     
15   N         6.7010   28.3936    5.2631  N     
16   C         7.6960   27.5976    4.8591  C     
17   C         7.7463   26.9875    3.5937  C     
18   C         8.6979   25.2750    2.0836  C     
19   C         7.9682   25.7965    1.0048  C     
20   C         7.1042   26.8850    1.2115  C     
21   C         6.9846   27.4633    2.4920  C     
22   C         8.5898   25.8622    3.3570  C     
23   C         2.1376   33.5954    1.4624  C     
24   C         2.3973   32.3409   -0.6924  C     
25   C         0.2149   32.3011    0.4859  C     
26   C        -0.1668   31.0436   -0.3402  C     
27   C         1.9577   31.0773   -1.4741  C     
28   N         1.6983   32.4142    0.6270  N     
29   O         0.5216   31.0299   -1.6079  O     
30   O         8.6538   27.4380    5.6028  O     
31   H         7.4580   27.6372    7.9712  H     
32   H         6.5093   29.1721    9.6525  H     
33   H         4.1486   32.2334    7.3299  H     
34   H         3.8713   31.5876    2.1475  H     
35   H         2.5013   34.1466    6.0778  H     
36   H         1.6567   34.7604    3.8893  H     
37   H         6.0101   28.5856    4.6059  H     
38   H         9.3259   24.4827    1.9353  H     
39   H         8.0538   25.3767    0.0731  H     
40   H         6.5637   27.2680    0.4319  H     
41   H         6.3632   28.2685    2.5897  H     
42   H         9.1381   25.4471    4.1167  H     
43   H         1.3190   34.3257    1.5675  H     
44   H         2.9583   34.1543    0.9882  H     
45   H         3.4808   32.2835   -0.5348  H     
46   H         2.1794   33.2358   -1.2861  H     
47   H        -0.1752   33.1932   -0.0102  H     
48   H        -0.2460   32.2194    1.4780  H     
49   H         0.0621   30.1313    0.2254  H     
50   H        -1.2427   31.0589   -0.5304  H     
51   H         2.4012   31.1061   -2.4714  H     
52   H         2.3211   30.1755   -0.9671  H     
53   H         1.9803   31.5610    1.1338  H     
@<TRIPOS>BOND
     1    1    2 1
     2    1    4 2
     3    1    6 1
     4    2    3 2
     5    2   15 1
     6    3    5 1
     7    4    5 1
     8    6    7 2
     9    6    8 1
    10    7    9 1
    11    8   12 1
    12    9   11 2
    13    9   12 1
    14   10   11 1
    15   10   14 2
    16   10   23 1
    17   12   13 2
    18   13   14 1
    19   15   16 am
    20   16   17 1
    21   16   30 2
    22   17   21 2
    23   17   22 1
    24   18   19 1
    25   18   22 2
    26   19   20 2
    27   20   21 1
    28   23   28 1
    29   24   27 1
    30   24   28 1
    31   25   26 1
    32   25   28 1
    33   26   29 1
    34   27   29 1
    35    3   31 1
    36    5   32 1
    37    8   33 1
    38   11   34 1
    39   13   35 1
    40   14   36 1
    41   15   37 1
    42   18   38 1
    43   19   39 1
    44   20   40 1
    45   21   41 1
    46   22   42 1
    47   23   43 1
    48   23   44 1
    49   24   45 1
    50   24   46 1
    51   25   47 1
    52   25   48 1
    53   26   49 1
    54   26   50 1
    55   27   51 1
    56   27   52 1
    57   28   53 1
@<TRIPOS>PROPERTY_DATA
  Total_Score	| 5.4952
  Crash		| -1.3540
  Polar		| 2.5018
  FragIndex	| 1
  FragRMSD	| 0.257

