@<TRIPOS>MOLECULE
BindingDB_27084
 61 65 0 0 0
SMALL
NO_CHARGES


@<TRIPOS>ATOM
1    C         5.6617   30.1737    6.8341  C     
2    C         6.6184   29.2241    6.4691  C     
3    C         7.0970   28.7372    7.6811  C     
4    N         5.6076   30.2278    8.1771  N     
5    N         6.4548   29.3812    8.6626  N     
6    C         4.8630   30.9697    5.9998  C     
7    N         4.6439   30.7523    4.6870  N     
8    N         4.1927   32.0692    6.3959  N     
9    C         3.8417   31.7362    4.2604  C     
10   C         2.5687   33.1755    2.7655  C     
11   C         3.3392   32.0054    2.9800  C     
12   C         3.5610   32.5757    5.3336  C     
13   C         2.7652   33.7197    5.1653  C     
14   C         2.2750   34.0154    3.8754  C     
15   N         6.9938   28.9442    5.1839  N     
16   C         7.8105   27.9968    4.7467  C     
17   C         2.1247   33.5408    1.3882  C     
18   C         4.1392   33.0214   -0.0649  C     
19   C         3.9324   35.2442    0.9894  C     
20   C         4.9106   35.8034   -0.0725  C     
21   C         5.0667   33.6488   -1.1298  C     
22   N         3.1914   34.0548    0.4626  N     
23   O         5.7864   34.7652   -0.5597  O     
24   O         8.3192   27.1866    5.5056  O     
25   N         8.0610   27.9668    3.4490  N     
26   C         8.8094   27.0081    2.6749  C     
27   C         8.2836   24.5893    3.5031  C     
28   C         9.7948   24.2865    3.6256  C     
29   C        10.6015   25.5545    4.0015  C     
30   C        10.3081   26.7676    3.0651  C     
31   C         8.0226   25.6840    2.4370  C     
32   H         7.8280   28.0415    7.8273  H     
33   H         6.6110   29.2434    9.6072  H     
34   H         4.2129   32.4542    7.2871  H     
35   H         3.5609   31.3670    2.2147  H     
36   H         2.5647   34.3323    5.9577  H     
37   H         1.7256   34.8676    3.7437  H     
38   H         6.6142   29.5188    4.4995  H     
39   H         1.6337   32.6726    0.9373  H     
40   H         1.3484   34.3121    1.4424  H     
41   H         3.5892   32.1854   -0.5125  H     
42   H         4.7742   32.6275    0.7339  H     
43   H         4.5111   34.9647    1.8728  H     
44   H         3.2253   36.0316    1.2683  H     
45   H         4.3499   36.2548   -0.8967  H     
46   H         5.5316   36.5825    0.3807  H     
47   H         5.7972   32.9071   -1.4650  H     
48   H         4.4782   33.9648   -1.9946  H     
49   H         2.6828   34.3929   -0.3553  H     
50   H         7.6479   28.6816    2.9331  H     
51   H         8.8443   27.4934    1.6923  H     
52   H         7.7638   23.6729    3.2144  H     
53   H         7.8850   24.9045    4.4693  H     
54   H         9.9446   23.5231    4.3937  H     
55   H        10.1671   23.8868    2.6799  H     
56   H        10.3884   25.7962    5.0437  H     
57   H        11.6691   25.3187    3.9557  H     
58   H        10.8684   26.5949    2.1400  H     
59   H        10.7168   27.6751    3.5192  H     
60   H         6.9519   25.8950    2.3909  H     
61   H         8.3128   25.2787    1.4627  H     
@<TRIPOS>BOND
     1    1    2 1
     2    1    4 2
     3    1    6 1
     4    2    3 2
     5    2   15 1
     6    3    5 1
     7    4    5 1
     8    6    7 2
     9    6    8 1
    10    7    9 1
    11    8   12 1
    12    9   11 2
    13    9   12 1
    14   10   11 1
    15   10   14 2
    16   10   17 1
    17   12   13 2
    18   13   14 1
    19   15   16 am
    20   16   24 2
    21   16   25 am
    22   17   22 1
    23   18   21 1
    24   18   22 1
    25   19   20 1
    26   19   22 1
    27   20   23 1
    28   21   23 1
    29   25   26 1
    30   26   30 1
    31   26   31 1
    32   27   28 1
    33   27   31 1
    34   28   29 1
    35   29   30 1
    36    3   32 1
    37    5   33 1
    38    8   34 1
    39   11   35 1
    40   13   36 1
    41   14   37 1
    42   15   38 1
    43   17   39 1
    44   17   40 1
    45   18   41 1
    46   18   42 1
    47   19   43 1
    48   19   44 1
    49   20   45 1
    50   20   46 1
    51   21   47 1
    52   21   48 1
    53   22   49 1
    54   25   50 1
    55   26   51 1
    56   27   52 1
    57   27   53 1
    58   28   54 1
    59   28   55 1
    60   29   56 1
    61   29   57 1
    62   30   58 1
    63   30   59 1
    64   31   60 1
    65   31   61 1
@<TRIPOS>PROPERTY_DATA
  Total_Score	| 5.3208
  Crash		| -0.9823
  Polar		| 2.1841
  FragIndex	| 1
  FragRMSD	| 0.143

