@<TRIPOS>MOLECULE
BindingDB_27086
 59 63 0 0 0
SMALL
NO_CHARGES


@<TRIPOS>ATOM
1    C         5.5867   30.2386    6.9119  C     
2    C         6.5548   29.3082    6.5329  C     
3    C         7.0496   28.8066    7.7315  C     
4    N         5.5438   30.2770    8.2552  N     
5    N         6.4045   29.4320    8.7245  N     
6    C         4.7805   31.0275    6.0754  C     
7    N         4.5415   30.7754    4.7727  N     
8    N         4.1461   32.1578    6.4409  N     
9    C         3.7653   31.7657    4.3203  C     
10   C         2.5373   33.1932    2.7803  C     
11   C         3.2689   32.0059    3.0315  C     
12   C         3.5184   32.6471    5.3668  C     
13   C         2.7567   33.8085    5.1618  C     
14   C         2.2727   34.0773    3.8632  C     
15   N         6.9276   29.0782    5.2423  N     
16   C         7.7415   28.1630    4.7469  C     
17   C         2.1025   33.5253    1.3912  C     
18   C         3.9234   35.2130    1.0053  C     
19   C         4.0974   32.9926   -0.0761  C     
20   C         5.0551   33.6140   -1.1217  C     
21   C         4.9029   35.7707   -0.0558  C     
22   N         3.1707   34.0370    0.4658  N     
23   O         5.7693   34.7258   -0.5437  O     
24   O         8.2683   27.3164    5.4522  O     
25   N         7.9251   28.2252    3.4391  N     
26   C         8.6515   27.3655    2.5463  C     
27   C         8.4202   24.8958    3.2823  C     
28   C        10.5579   25.9706    3.6759  C     
29   C        10.1825   27.2087    2.8156  C     
30   C         7.9408   26.0005    2.3101  C     
31   O         9.8562   24.7821    3.2622  O     
32   H         7.7940   28.1199    7.8568  H     
33   H         6.5697   29.2855    9.6669  H     
34   H         4.1990   32.5774    7.3130  H     
35   H         3.4691   31.3368    2.2866  H     
36   H         2.5785   34.4554    5.9315  H     
37   H         1.7479   34.9411    3.7066  H     
38   H         6.5323   29.6711    4.5867  H     
39   H         1.6287   32.6432    0.9496  H     
40   H         1.3144   34.2840    1.4277  H     
41   H         4.4995   34.9165    1.8863  H     
42   H         3.2296   36.0077    1.2944  H     
43   H         3.5280   32.1901   -0.5529  H     
44   H         4.7073   32.5618    0.7210  H     
45   H         5.7838   32.8647   -1.4377  H     
46   H         4.4960   33.9354   -2.0051  H     
47   H         4.3443   36.2207   -0.8818  H     
48   H         5.5235   36.5490    0.3936  H     
49   H         2.6640   34.3892   -0.3504  H     
50   H         7.4743   28.9675    3.0051  H     
51   H         8.5741   27.8988    1.5923  H     
52   H         8.0493   25.0819    4.2916  H     
53   H         8.0123   23.9352    2.9626  H     
54   H        11.6270   25.7770    3.5642  H     
55   H        10.3841   26.1551    4.7354  H     
56   H        10.6878   27.0970    1.8513  H     
57   H        10.5749   28.1153    3.2844  H     
58   H         6.8556   26.1139    2.3870  H     
59   H         8.1624   25.6612    1.2937  H     
@<TRIPOS>BOND
     1    1    2 1
     2    1    4 2
     3    1    6 1
     4    2    3 2
     5    2   15 1
     6    3    5 1
     7    4    5 1
     8    6    7 2
     9    6    8 1
    10    7    9 1
    11    8   12 1
    12    9   11 2
    13    9   12 1
    14   10   11 1
    15   10   14 2
    16   10   17 1
    17   12   13 2
    18   13   14 1
    19   15   16 am
    20   16   24 2
    21   16   25 am
    22   17   22 1
    23   18   21 1
    24   18   22 1
    25   19   20 1
    26   19   22 1
    27   20   23 1
    28   21   23 1
    29   25   26 1
    30   26   29 1
    31   26   30 1
    32   27   30 1
    33   27   31 1
    34   28   29 1
    35   28   31 1
    36    3   32 1
    37    5   33 1
    38    8   34 1
    39   11   35 1
    40   13   36 1
    41   14   37 1
    42   15   38 1
    43   17   39 1
    44   17   40 1
    45   18   41 1
    46   18   42 1
    47   19   43 1
    48   19   44 1
    49   20   45 1
    50   20   46 1
    51   21   47 1
    52   21   48 1
    53   22   49 1
    54   25   50 1
    55   26   51 1
    56   27   52 1
    57   27   53 1
    58   28   54 1
    59   28   55 1
    60   29   56 1
    61   29   57 1
    62   30   58 1
    63   30   59 1
@<TRIPOS>PROPERTY_DATA
  Total_Score	| 5.1317
  Crash		| -0.8619
  Polar		| 2.3006
  FragIndex	| 1
  FragRMSD	| 0.875

