@<TRIPOS>MOLECULE
BindingDB_91958
 29 30 0 0 0
SMALL
NO_CHARGES


@<TRIPOS>ATOM
1    O        23.4450   -5.3508    9.7337  O     
2    N        22.3478   -5.3804   10.4431  N     
3    C        21.1960   -4.7716   10.0346  C     
4    C        20.0116   -4.8081   10.8151  C     
5    C        18.8313   -4.1722   10.3875  C     
6    C        18.7883   -3.5083    9.1404  C     
7    N        17.6834   -2.8900    8.6277  N     
8    C        16.4189   -2.9870    9.0093  C     
9    N        16.0212   -3.8780    9.9067  N     
10   C        14.8290   -4.0680   10.5245  C     
11   N        14.8262   -5.0862   11.4244  N     
12   C        13.7534   -5.4302   12.1766  C     
13   C        12.5639   -4.6915   12.0278  C     
14   C        11.5050   -4.9884   12.7183  C     
15   N        10.5820   -5.2839   13.3348  N     
16   N        12.5462   -3.6687   11.1319  N     
17   C        13.6285   -3.3307   10.3792  C     
18   O        15.6415   -2.2644    8.4100  O     
19   C        19.9719   -3.4235    8.3831  C     
20   C        21.1516   -4.0524    8.8153  C     
21   O        22.4301   -5.9913   11.4767  O     
22   H        19.9998   -5.2874   11.7161  H     
23   H        18.0037   -4.1790   10.9987  H     
24   H        17.8411   -2.3603    7.8285  H     
25   H        16.7257   -4.4950   10.1858  H     
26   H        13.8290   -6.2135   12.8316  H     
27   H        13.5498   -2.5478    9.7310  H     
28   H        19.9791   -2.9153    7.4961  H     
29   H        21.9820   -3.9793    8.2234  H     
@<TRIPOS>BOND
     1    1    2 1
     2    2    3 am
     3    3    4 ar
     4    4    5 ar
     5    5    6 ar
     6    6    7 1
     7    7    8 am
     8    8    9 am
     9    9   10 1
    10   10   11 ar
    11   11   12 ar
    12   12   13 ar
    13   13   14 1
    14   14   15 3
    15   13   16 ar
    16   16   17 ar
    17   10   17 ar
    18    8   18 2
    19    6   19 ar
    20   19   20 ar
    21    3   20 ar
    22    2   21 2
    23    4   22 1
    24    5   23 1
    25    7   24 1
    26    9   25 1
    27   12   26 1
    28   17   27 1
    29   19   28 1
    30   20   29 1
@<TRIPOS>PROPERTY_DATA
  Total_Score	| 1.6148
  Crash		| -0.2232
  Polar		| 1.2464
  FragIndex	| 1
  FragRMSD	| 0.880

