@<TRIPOS>MOLECULE
BindingDB_91941
 32 34 0 0 0
SMALL
NO_CHARGES


@<TRIPOS>ATOM
1    O        16.4901   -2.0258    8.1724  O     
2    C        16.1039   -2.8071    9.0258  C     
3    N        14.8210   -2.6683    9.3326  N     
4    C        14.0556   -3.3236   10.2394  C     
5    C        12.7079   -2.9323   10.3856  C     
6    N        11.9236   -3.5712   11.2910  N     
7    C        12.3802   -4.5823   12.0732  C     
8    C        13.7239   -4.9828   11.9363  C     
9    N        14.5018   -4.3388   11.0297  N     
10   C        11.5709   -5.1593   12.9070  C     
11   N        10.8531   -5.6765   13.6389  N     
12   N        16.9276   -3.6701    9.6128  N     
13   C        18.2627   -3.8769    9.4638  C     
14   C        19.1506   -3.2191    8.5764  C     
15   C        20.5309   -3.5156    8.6079  C     
16   C        21.4434   -2.8420    7.7622  C     
17   C        22.8188   -3.1290    7.8273  C     
18   C        23.2956   -4.0939    8.7324  C     
19   C        22.3995   -4.7739    9.5793  C     
20   C        21.0171   -4.4915    9.5230  C     
21   C        20.0930   -5.1408   10.3674  C     
22   N        18.7806   -4.8081   10.3083  N     
23   H        14.3587   -1.9697    8.8422  H     
24   H        12.3098   -2.1750    9.8250  H     
25   H        14.1224   -5.7413   12.4950  H     
26   H        16.5183   -4.2320   10.2837  H     
27   H        18.8133   -2.5196    7.9162  H     
28   H        21.1170   -2.1318    7.0999  H     
29   H        23.4739   -2.6319    7.2194  H     
30   H        24.2967   -4.2960    8.7807  H     
31   H        22.7641   -5.4658   10.2397  H     
32   H        20.3950   -5.8471   11.0426  H     
@<TRIPOS>BOND
     1    1    2 2
     2    2    3 am
     3    3    4 1
     4    4    5 ar
     5    5    6 ar
     6    6    7 ar
     7    7    8 ar
     8    8    9 ar
     9    4    9 ar
    10    7   10 1
    11   10   11 3
    12    2   12 am
    13   12   13 1
    14   13   14 ar
    15   14   15 ar
    16   15   16 ar
    17   16   17 ar
    18   17   18 ar
    19   18   19 ar
    20   19   20 ar
    21   15   20 ar
    22   20   21 ar
    23   21   22 ar
    24   13   22 ar
    25    3   23 1
    26    5   24 1
    27    8   25 1
    28   12   26 1
    29   14   27 1
    30   16   28 1
    31   17   29 1
    32   18   30 1
    33   19   31 1
    34   21   32 1
@<TRIPOS>PROPERTY_DATA
  Total_Score	| 7.6852
  Crash		| -0.1798
  Polar		| 3.4836
  FragIndex	| 1
  FragRMSD	| 0.048

