@<TRIPOS>MOLECULE
BindingDB_50414201
 31 32 0 0 0
SMALL
NO_CHARGES


@<TRIPOS>ATOM
1    N        17.9652   -2.6906    9.1872  N     
2    C        16.6677   -2.7640    9.4513  C     
3    O        16.0689   -1.7187    9.2516  O     
4    N        16.0561   -3.8292    9.9451  N     
5    C        14.8268   -3.9798   10.5027  C     
6    C        13.7463   -3.0630   10.5638  C     
7    N        14.6728   -5.1572   11.1645  N     
8    N        12.6286   -3.3956   11.2667  N     
9    C        12.5008   -4.5773   11.9297  C     
10   C        13.5686   -5.4930   11.8728  C     
11   C        11.4307   -4.8587   12.6129  C     
12   N        10.5061   -5.1516   13.2288  N     
13   C        19.0222   -3.5644    9.2662  C     
14   C        19.1082   -4.7978    9.9749  C     
15   C        20.2890   -5.5716    9.8936  C     
16   C        21.4158   -5.1011    9.2004  C     
17   C        21.3724   -3.8480    8.5717  C     
18   C        20.1853   -3.0961    8.6057  C     
19   O        18.0844   -5.2677   10.7539  O     
20   C        18.4358   -5.5461   12.1222  C     
21   Cl       22.7365   -3.2540    7.7611  Cl    
22   H        18.2331   -1.8218    8.8364  H     
23   H        16.6061   -4.6209    9.9946  H     
24   H        13.7809   -2.1539   10.1028  H     
25   H        13.5399   -6.3917   12.3621  H     
26   H        20.3427   -6.4739   10.3692  H     
27   H        22.2668   -5.6668    9.1718  H     
28   H        20.1784   -2.1795    8.1489  H     
29   H        19.0926   -6.4152   12.1928  H     
30   H        17.5210   -5.7661   12.6715  H     
31   H        18.9249   -4.6918   12.5906  H     
@<TRIPOS>BOND
     1    1    2 am
     2    1   13 1
     3    2    3 2
     4    2    4 am
     5    4    5 1
     6    5    6 1
     7    5    7 2
     8    6    8 2
     9    7   10 1
    10    8    9 1
    11    9   10 2
    12    9   11 1
    13   11   12 3
    14   13   14 1
    15   13   18 2
    16   14   15 2
    17   14   19 1
    18   15   16 1
    19   16   17 2
    20   17   18 1
    21   17   21 1
    22   19   20 1
    23    1   22 1
    24    4   23 1
    25    6   24 1
    26   10   25 1
    27   15   26 1
    28   16   27 1
    29   18   28 1
    30   20   29 1
    31   20   30 1
    32   20   31 1
@<TRIPOS>PROPERTY_DATA
  Total_Score	| 2.3566
  Crash		| -0.9929
  Polar		| 2.4811
  FragIndex	| 1
  FragRMSD	| 0.934

