@<TRIPOS>MOLECULE
BindingDB_50414229
 34 36 0 0 0
SMALL
NO_CHARGES


@<TRIPOS>ATOM
1    N        15.8067   -3.8948   10.3320  N     
2    C        16.1858   -3.3217    9.2036  C     
3    O        15.3583   -2.8473    8.4411  O     
4    N        17.4252   -3.2402    8.7416  N     
5    C        19.6953   -3.0914    8.2756  C     
6    C        18.6918   -3.6479    9.1102  C     
7    C        19.1192   -4.5235   10.1513  C     
8    C        20.4829   -4.8653   10.2887  C     
9    C        21.4593   -4.3225    9.4301  C     
10   C        22.8208   -4.6276    9.5572  C     
11   C        23.7271   -4.0447    8.7451  C     
12   C        23.3437   -3.1496    7.7828  C     
13   C        22.0457   -2.8283    7.6079  C     
14   C        21.0609   -3.4043    8.4222  C     
15   O        18.2792   -5.0684   11.0635  O     
16   C        14.5894   -4.0931   10.8910  C     
17   C        13.3132   -3.6801   10.4389  C     
18   N        14.6401   -4.8051   12.0454  N     
19   N        12.2138   -4.0182   11.1631  N     
20   C        12.2875   -4.7348   12.3141  C     
21   C        13.5522   -5.1428   12.7755  C     
22   C        11.2125   -5.0759   12.9497  C     
23   N        10.2806   -5.4203   13.5222  N     
24   H        16.5169   -4.2576   10.8560  H     
25   H        17.4323   -2.8181    7.8659  H     
26   H        19.4330   -2.4288    7.5384  H     
27   H        20.7691   -5.5085   11.0327  H     
28   H        23.1288   -5.2705   10.2512  H     
29   H        24.6911   -4.2687    8.8463  H     
30   H        24.0347   -2.7318    7.2026  H     
31   H        21.7970   -2.1752    6.9003  H     
32   H        18.7646   -5.1072   11.9133  H     
33   H        13.1884   -3.1409    9.5846  H     
34   H        13.6700   -5.6894   13.6326  H     
@<TRIPOS>BOND
     1    1    2 am
     2    1   16 1
     3    2    3 2
     4    2    4 am
     5    4    6 1
     6    5    6 1
     7    5   14 2
     8    6    7 2
     9    7    8 1
    10    7   15 1
    11    8    9 2
    12    9   10 1
    13    9   14 1
    14   10   11 2
    15   11   12 1
    16   12   13 2
    17   13   14 1
    18   16   17 1
    19   16   18 2
    20   17   19 2
    21   18   21 1
    22   19   20 1
    23   20   21 2
    24   20   22 1
    25   22   23 3
    26    1   24 1
    27    4   25 1
    28    5   26 1
    29    8   27 1
    30   10   28 1
    31   11   29 1
    32   12   30 1
    33   13   31 1
    34   15   32 1
    35   17   33 1
    36   21   34 1
@<TRIPOS>PROPERTY_DATA
  Total_Score	| 2.0594
  Crash		| -1.2444
  Polar		| 1.0346
  FragIndex	| 1
  FragRMSD	| 0.836

