@<TRIPOS>MOLECULE
BindingDB_14639
 33 34 0 0 0
SMALL
NO_CHARGES


@<TRIPOS>ATOM
1    C        12.7346   -2.8563   10.4063  C     
2    C        14.0706   -3.3091   10.2602  C     
3    C        13.6502   -4.9731   11.9268  C     
4    C        12.3233   -4.5215   12.0598  C     
5    N        11.9121   -3.4748   11.2951  N     
6    N        14.4684   -4.3521   11.0388  N     
7    C        11.4728   -5.0745   12.8580  C     
8    N        10.7172   -5.5776   13.5585  N     
9    C        16.1342   -2.8589    9.0314  C     
10   O        16.5635   -2.1167    8.1534  O     
11   N        14.8504   -2.6796    9.3460  N     
12   N        16.9512   -3.7142    9.6169  N     
13   C        18.2866   -3.9218    9.4125  C     
14   C        20.4877   -3.3813    8.4526  C     
15   C        21.0644   -4.5288    9.0393  C     
16   C        20.2314   -5.3670    9.8243  C     
17   C        18.8771   -5.0347   10.0413  C     
18   C        19.1193   -3.0898    8.6175  C     
19   O        18.1464   -5.8795   10.8532  O     
20   C        17.9853   -5.3591   12.1923  C     
21   C        22.4072   -4.8576    8.8532  C     
22   O        23.2786   -3.9897    8.7902  O     
23   H        12.3751   -2.0650    9.8465  H     
24   H        14.0056   -5.7582   12.4748  H     
25   H        14.4071   -1.9619    8.8590  H     
26   H        16.5284   -4.3137   10.2573  H     
27   H        21.0584   -2.7485    7.8762  H     
28   H        20.6223   -6.2066   10.3008  H     
29   H        18.7003   -2.2448    8.1882  H     
30   H        18.9414   -5.0941   12.6534  H     
31   H        17.5109   -6.1264   12.8036  H     
32   H        17.3389   -4.4836   12.1810  H     
33   H        22.6911   -5.8267    8.7776  H     
@<TRIPOS>BOND
     1    1    2 1
     2    1    5 2
     3    2    6 2
     4    2   11 1
     5    3    4 2
     6    3    6 1
     7    4    5 1
     8    4    7 1
     9    7    8 3
    10    9   10 2
    11    9   11 am
    12    9   12 am
    13   12   13 1
    14   13   17 2
    15   13   18 1
    16   14   15 1
    17   14   18 2
    18   15   16 2
    19   15   21 1
    20   16   17 1
    21   17   19 1
    22   19   20 1
    23   21   22 2
    24    1   23 1
    25    3   24 1
    26   11   25 1
    27   12   26 1
    28   14   27 1
    29   16   28 1
    30   18   29 1
    31   20   30 1
    32   20   31 1
    33   20   32 1
    34   21   33 1
@<TRIPOS>PROPERTY_DATA
  Total_Score	| 7.1910
  Crash		| -0.7289
  Polar		| 3.4839
  FragIndex	| 1
  FragRMSD	| 0.260

