@<TRIPOS>MOLECULE
BindingDB_91836
 41 43 0 0 0
SMALL
NO_CHARGES


@<TRIPOS>ATOM
1    C        17.9362   -5.7040   12.3336  C     
2    O        17.8157   -5.2293   10.9783  O     
3    C        18.9081   -4.9202   10.2056  C     
4    C        20.0266   -5.7823   10.2342  C     
5    C        21.1566   -5.5512    9.4524  C     
6    C        21.2003   -4.4383    8.5894  C     
7    C        20.0845   -3.5730    8.5411  C     
8    C        18.9196   -3.7987    9.3174  C     
9    N        17.9605   -2.8143    9.1151  N     
10   C        16.6617   -2.7080    9.3543  C     
11   O        16.1611   -1.6343    9.0472  O     
12   N        15.9270   -3.6606    9.8899  N     
13   C        14.6921   -3.7158   10.4272  C     
14   C        13.7115   -2.7038   10.5184  C     
15   N        12.5730   -2.9516   11.2251  N     
16   C        12.3389   -4.1406   11.8469  C     
17   C        13.3064   -5.1579   11.7397  C     
18   N        14.4358   -4.8982   11.0412  N     
19   C        11.2617   -4.3182   12.5449  C     
20   N        10.3068   -4.4883   13.1593  N     
21   C        22.3544   -4.2191    7.7928  C     
22   C        23.1622   -3.0710    7.9878  C     
23   C        24.3767   -2.9298    7.2973  C     
24   C        24.7935   -3.9165    6.3824  C     
25   C        23.9785   -5.0409    6.1450  C     
26   C        22.7661   -5.1883    6.8400  C     
27   H        18.1138   -6.7858   12.3376  H     
28   H        17.0021   -5.5168   12.8391  H     
29   H        18.7425   -5.2008   12.8853  H     
30   H        20.0407   -6.6013   10.8461  H     
31   H        21.9488   -6.1938    9.5255  H     
32   H        20.1189   -2.7669    7.9035  H     
33   H        18.3410   -2.0135    8.7005  H     
34   H        16.4258   -4.4808   10.0085  H     
35   H        13.8406   -1.7850   10.0906  H     
36   H        13.1898   -6.0707   12.1842  H     
37   H        22.8889   -2.3568    8.6654  H     
38   H        24.9648   -2.1099    7.4601  H     
39   H        25.6824   -3.8159    5.8897  H     
40   H        24.2704   -5.7494    5.4655  H     
41   H        22.1962   -6.0211    6.6654  H     
@<TRIPOS>BOND
     1    1    2 1
     2    2    3 1
     3    3    4 ar
     4    4    5 ar
     5    5    6 ar
     6    6    7 ar
     7    7    8 ar
     8    3    8 ar
     9    8    9 1
    10    9   10 am
    11   10   11 2
    12   10   12 am
    13   12   13 1
    14   13   14 ar
    15   14   15 ar
    16   15   16 ar
    17   16   17 ar
    18   17   18 ar
    19   13   18 ar
    20   16   19 1
    21   19   20 3
    22    6   21 1
    23   21   22 ar
    24   22   23 ar
    25   23   24 ar
    26   24   25 ar
    27   25   26 ar
    28   21   26 ar
    29    1   27 1
    30    1   28 1
    31    1   29 1
    32    4   30 1
    33    5   31 1
    34    7   32 1
    35    9   33 1
    36   12   34 1
    37   14   35 1
    38   17   36 1
    39   22   37 1
    40   23   38 1
    41   24   39 1
    42   25   40 1
    43   26   41 1
@<TRIPOS>PROPERTY_DATA
  Total_Score	| 3.2007
  Crash		| -0.4892
  Polar		| 1.5267
  FragIndex	| 1
  FragRMSD	| 1.148

