@<TRIPOS>MOLECULE
BindingDB_91956
 34 36 0 0 0
SMALL
NO_CHARGES


@<TRIPOS>ATOM
1    O        23.2426   -5.6192    9.7683  O     
2    C        22.6940   -4.7124    8.9109  C     
3    C        23.4774   -4.2015    7.8602  C     
4    C        22.9412   -3.2638    6.9604  C     
5    C        21.6122   -2.8328    7.1041  C     
6    C        20.8112   -3.3249    8.1567  C     
7    C        19.4819   -2.8750    8.3118  C     
8    C        18.6769   -3.3457    9.3628  C     
9    N        17.4031   -2.8668    9.4854  N     
10   C        16.3177   -3.5880    9.7318  C     
11   O        16.3868   -4.8143    9.7575  O     
12   N        15.1754   -2.9516    9.9670  N     
13   C        14.0964   -3.4522   10.6180  C     
14   C        12.9221   -2.6868   10.7853  C     
15   N        11.8905   -3.2002   11.5069  N     
16   C        11.9415   -4.4247   12.0954  C     
17   C        13.1136   -5.1905   11.9491  C     
18   N        14.1329   -4.6729   11.2196  N     
19   C        10.9422   -4.8975   12.7692  C     
20   N        10.0840   -5.3741   13.3668  N     
21   C        19.2265   -4.2638   10.2901  C     
22   C        20.5445   -4.7285   10.1401  C     
23   C        21.3550   -4.2722    9.0739  C     
24   H        22.9778   -6.5090    9.4469  H     
25   H        24.4520   -4.5014    7.7482  H     
26   H        23.5212   -2.8888    6.2076  H     
27   H        21.2405   -2.1520    6.4406  H     
28   H        19.0902   -2.1995    7.6436  H     
29   H        17.2948   -1.9024    9.4924  H     
30   H        15.1378   -2.0105    9.7246  H     
31   H        12.8331   -1.7541   10.3754  H     
32   H        13.2204   -6.1099   12.3813  H     
33   H        18.6728   -4.5809   11.0902  H     
34   H        20.9170   -5.3855   10.8304  H     
@<TRIPOS>BOND
     1    1    2 1
     2    2    3 ar
     3    3    4 ar
     4    4    5 ar
     5    5    6 ar
     6    6    7 ar
     7    7    8 ar
     8    8    9 1
     9    9   10 am
    10   10   11 2
    11   10   12 am
    12   12   13 1
    13   13   14 ar
    14   14   15 ar
    15   15   16 ar
    16   16   17 ar
    17   17   18 ar
    18   13   18 ar
    19   16   19 1
    20   19   20 3
    21    8   21 ar
    22   21   22 ar
    23   22   23 ar
    24    2   23 ar
    25    6   23 ar
    26    1   24 1
    27    3   25 1
    28    4   26 1
    29    5   27 1
    30    7   28 1
    31    9   29 1
    32   12   30 1
    33   14   31 1
    34   17   32 1
    35   21   33 1
    36   22   34 1
@<TRIPOS>PROPERTY_DATA
  Total_Score	| 3.3172
  Crash		| -0.5817
  Polar		| 1.2454
  FragIndex	| 1
  FragRMSD	| 0.962

