@<TRIPOS>MOLECULE
BindingDB_50224621
 38 39 0 0 0
SMALL
NO_CHARGES


@<TRIPOS>ATOM
1    C        20.6080   -5.8757   10.1985  C     
2    C        20.8852   -5.0466    9.0994  C     
3    C        19.9973   -4.0033    8.7268  C     
4    C        18.8386   -3.7801    9.5096  C     
5    C        18.6382   -4.5492   10.6769  C     
6    C        19.4581   -5.6521   10.9728  C     
7    N        19.1156   -6.5230   11.9626  N     
8    O        20.1735   -3.1656    7.6417  O     
9    C        21.4670   -2.6770    7.2486  C     
10   C        18.1123   -7.3916   11.9077  C     
11   N        17.9579   -2.7901    9.1496  N     
12   C        16.6393   -2.7575    9.3224  C     
13   N        15.9533   -3.8123    9.7622  N     
14   O        16.1138   -1.6787    9.1094  O     
15   C        14.7456   -3.8704   10.3744  C     
16   N        13.9254   -2.8081   10.5894  N     
17   C        12.7731   -2.8934   11.3071  C     
18   C        12.4187   -4.1283   11.8859  C     
19   N        13.2332   -5.1863   11.6758  N     
20   C        14.3664   -5.1011   10.9430  C     
21   C        11.3730   -4.3052   12.6297  C     
22   N        10.4574   -4.4939   13.2943  N     
23   O        17.4218   -7.5231   10.9031  O     
24   C        17.8612   -8.2479   13.0444  C     
25   H        21.2290   -6.6636   10.4061  H     
26   H        21.7251   -5.2380    8.5532  H     
27   H        17.8576   -4.3203   11.3041  H     
28   H        19.6823   -6.5636   12.7446  H     
29   H        21.9243   -2.1028    8.0547  H     
30   H        21.3442   -2.0215    6.3930  H     
31   H        22.1221   -3.5016    6.9605  H     
32   H        18.3721   -1.9974    8.7608  H     
33   H        16.4527   -4.6540    9.7797  H     
34   H        12.1964   -2.0635   11.4290  H     
35   H        14.9496   -5.9304   10.8500  H     
36   H        18.7482   -8.8479   13.2608  H     
37   H        17.0229   -8.9269   12.8634  H     
38   H        17.6186   -7.6353   13.9170  H     
@<TRIPOS>BOND
     1    1    2 2
     2    1    6 1
     3    2    3 1
     4    3    4 2
     5    3    8 1
     6    4    5 1
     7    4   11 1
     8    5    6 2
     9    6    7 1
    10    7   10 am
    11    8    9 1
    12   10   23 2
    13   10   24 1
    14   11   12 am
    15   12   13 am
    16   12   14 2
    17   13   15 1
    18   15   16 2
    19   15   20 1
    20   16   17 1
    21   17   18 2
    22   18   19 1
    23   18   21 1
    24   19   20 2
    25   21   22 3
    26    1   25 1
    27    2   26 1
    28    5   27 1
    29    7   28 1
    30    9   29 1
    31    9   30 1
    32    9   31 1
    33   11   32 1
    34   13   33 1
    35   17   34 1
    36   20   35 1
    37   24   36 1
    38   24   37 1
    39   24   38 1
@<TRIPOS>PROPERTY_DATA
  Total_Score	| 2.8256
  Crash		| -1.9431
  Polar		| 2.2799
  FragIndex	| 1
  FragRMSD	| 1.473

