@<TRIPOS>MOLECULE
BindingDB_91942
 33 34 0 0 0
SMALL
NO_CHARGES


@<TRIPOS>ATOM
1    O        23.3286   -4.4566    8.0170  O     
2    C        22.3923   -5.0175    8.8178  C     
3    O        22.7932   -6.0865    9.5465  O     
4    C        21.0684   -4.5122    8.8929  C     
5    C        20.6816   -3.3774    8.1434  C     
6    C        19.3737   -2.8685    8.2266  C     
7    C        18.4177   -3.4778    9.0621  C     
8    N        17.1940   -2.8694    9.1573  N     
9    C        16.0222   -3.4818    9.1818  C     
10   O        15.9275   -4.6566    8.8409  O     
11   N        14.9811   -2.8115    9.6571  N     
12   C        13.9391   -3.3562   10.3333  C     
13   C        12.8872   -2.5410   10.8050  C     
14   N        11.9371   -3.0840   11.6160  N     
15   C        11.9576   -4.3918   11.9958  C     
16   C        12.9899   -5.2177   11.5151  C     
17   N        13.9359   -4.6667   10.7182  N     
18   C        11.0528   -4.8669   12.7935  C     
19   N        10.2703   -5.3180   13.5031  N     
20   C        18.7880   -4.6103    9.8404  C     
21   O        17.8331   -5.1782   10.6614  O     
22   C        18.1558   -5.7369   11.9451  C     
23   F        19.0573   -4.9776   12.6478  F     
24   F        18.6282   -7.0203   11.8185  F     
25   F        16.9957   -5.7937   12.6773  F     
26   C        20.1015   -5.1264    9.7255  C     
27   H        21.3474   -2.9047    7.5289  H     
28   H        19.1170   -2.0573    7.6573  H     
29   H        17.2013   -1.9193    9.3685  H     
30   H        15.0254   -1.8387    9.6382  H     
31   H        12.8414   -1.5457   10.5661  H     
32   H        13.0642   -6.2053   11.7738  H     
33   H        20.3560   -5.9549   10.2694  H     
@<TRIPOS>BOND
     1    1    2 1
     2    2    3 2
     3    2    4 1
     4    4    5 ar
     5    5    6 ar
     6    6    7 ar
     7    7    8 1
     8    8    9 am
     9    9   10 2
    10    9   11 am
    11   11   12 1
    12   12   13 ar
    13   13   14 ar
    14   14   15 ar
    15   15   16 ar
    16   16   17 ar
    17   12   17 ar
    18   15   18 1
    19   18   19 3
    20    7   20 ar
    21   20   21 1
    22   21   22 1
    23   22   23 1
    24   22   24 1
    25   22   25 1
    26   20   26 ar
    27    4   26 ar
    28    5   27 1
    29    6   28 1
    30    8   29 1
    31   11   30 1
    32   13   31 1
    33   16   32 1
    34   26   33 1
@<TRIPOS>PROPERTY_DATA
  Total_Score	| 3.6700
  Crash		| -1.0616
  Polar		| 1.3789
  FragIndex	| 1
  FragRMSD	| 0.879

