@<TRIPOS>MOLECULE
BindingDB_91927
 33 34 0 0 0
SMALL
NO_CHARGES


@<TRIPOS>ATOM
1    C        17.2943   -6.9374   10.9759  C     
2    O        17.7610   -5.6410   11.3911  O     
3    C        18.6246   -5.0471   10.5051  C     
4    C        18.1772   -4.0147    9.6425  C     
5    N        16.8417   -3.7130    9.7282  N     
6    C        16.0816   -2.8051    9.1323  C     
7    N        14.7952   -2.6313    9.4057  N     
8    C        13.9863   -3.2683   10.2929  C     
9    N        14.3824   -4.2801   11.1169  N     
10   C        13.5603   -4.8958   12.0069  C     
11   C        12.2198   -4.4754   12.0799  C     
12   C        11.3667   -5.0382   12.8776  C     
13   N        10.6073   -5.5405   13.5762  N     
14   N        11.8099   -3.4645   11.2730  N     
15   C        12.6410   -2.8486   10.3912  C     
16   O        16.5327   -2.0367    8.2951  O     
17   C        19.1350   -3.3856    8.8051  C     
18   C        20.4934   -3.7451    8.8560  C     
19   C        20.9497   -4.7656    9.7305  C     
20   N        22.2754   -5.0864    9.8133  N     
21   O        23.1993   -4.4761    9.1225  O     
22   O        22.6904   -5.9476   10.5514  O     
23   C        19.9820   -5.4177   10.5342  C     
24   H        18.1161   -7.6567   11.0234  H     
25   H        16.5083   -7.2523   11.6655  H     
26   H        16.8653   -6.9228    9.9660  H     
27   H        16.3680   -4.2521   10.3739  H     
28   H        14.3629   -1.9239    8.9005  H     
29   H        13.9215   -5.6566   12.5861  H     
30   H        12.2769   -2.0949    9.8039  H     
31   H        18.8623   -2.6428    8.1591  H     
32   H        21.1537   -3.2395    8.2516  H     
33   H        20.2720   -6.1639   11.1763  H     
@<TRIPOS>BOND
     1    1    2 1
     2    2    3 1
     3    3    4 ar
     4    4    5 1
     5    5    6 am
     6    6    7 am
     7    7    8 1
     8    8    9 ar
     9    9   10 ar
    10   10   11 ar
    11   11   12 1
    12   12   13 3
    13   11   14 ar
    14   14   15 ar
    15    8   15 ar
    16    6   16 2
    17    4   17 ar
    18   17   18 ar
    19   18   19 ar
    20   19   20 am
    21   20   21 1
    22   20   22 2
    23   19   23 ar
    24    3   23 ar
    25    1   24 1
    26    1   25 1
    27    1   26 1
    28    5   27 1
    29    7   28 1
    30   10   29 1
    31   15   30 1
    32   17   31 1
    33   18   32 1
    34   23   33 1
@<TRIPOS>PROPERTY_DATA
  Total_Score	| 6.9186
  Crash		| -0.3749
  Polar		| 3.5538
  FragIndex	| 1
  FragRMSD	| 0.212

