@<TRIPOS>MOLECULE
BindingDB_91894
 28 29 0 0 0
SMALL
NO_CHARGES


@<TRIPOS>ATOM
1    Cl       22.0180   -2.4825    7.0646  Cl    
2    C        21.0124   -3.4252    8.0427  C     
3    C        21.5462   -4.5237    8.7352  C     
4    C        20.7063   -5.3235    9.5243  C     
5    C        19.3312   -5.0203    9.6431  C     
6    C        18.6006   -5.8651   10.3201  C     
7    N        17.9653   -6.6130   10.9164  N     
8    C        18.7915   -3.8770    8.9828  C     
9    N        17.4794   -3.4633    9.0259  N     
10   C        16.6198   -3.6022   10.0242  C     
11   O        17.0083   -3.9999   11.1136  O     
12   N        15.3506   -3.2722    9.8252  N     
13   C        14.2998   -3.6095   10.6159  C     
14   C        12.9952   -3.1720   10.3072  C     
15   N        11.9519   -3.6119   11.0603  N     
16   C        12.1099   -4.4569   12.1127  C     
17   C        13.4073   -4.8855   12.4420  C     
18   N        14.4361   -4.4507   11.6793  N     
19   C        11.0852   -4.9127   12.7591  C     
20   N        10.1994   -5.3633   13.3310  N     
21   C        19.6457   -3.1121    8.1627  C     
22   H        22.5399   -4.7560    8.6532  H     
23   H        21.1134   -6.1389    9.9950  H     
24   H        17.1557   -2.9788    8.2498  H     
25   H        15.1406   -2.8146    8.9960  H     
26   H        12.8183   -2.5452    9.5216  H     
27   H        13.5902   -5.5261   13.2190  H     
28   H        19.2784   -2.3042    7.6523  H     
@<TRIPOS>BOND
     1    1    2 1
     2    2    3 ar
     3    3    4 ar
     4    4    5 ar
     5    5    6 1
     6    6    7 3
     7    5    8 ar
     8    8    9 1
     9    9   10 am
    10   10   11 2
    11   10   12 am
    12   12   13 1
    13   13   14 ar
    14   14   15 ar
    15   15   16 ar
    16   16   17 ar
    17   17   18 ar
    18   13   18 ar
    19   16   19 1
    20   19   20 3
    21    8   21 ar
    22    2   21 ar
    23    3   22 1
    24    4   23 1
    25    9   24 1
    26   12   25 1
    27   14   26 1
    28   17   27 1
    29   21   28 1
@<TRIPOS>PROPERTY_DATA
  Total_Score	| 2.7207
  Crash		| -0.7804
  Polar		| 1.1543
  FragIndex	| 1
  FragRMSD	| 1.124

