@<TRIPOS>MOLECULE
BindingDB_91957
 35 37 0 0 0
SMALL
NO_CHARGES


@<TRIPOS>ATOM
1    O        25.4214   -5.5762    9.1133  O     
2    C        24.9522   -4.6493    8.2462  C     
3    O        25.8609   -4.1025    7.4065  O     
4    C        23.5884   -4.2567    8.2324  C     
5    C        23.1258   -3.2721    7.3276  C     
6    C        21.7802   -2.8657    7.3225  C     
7    C        20.8608   -3.4283    8.2309  C     
8    C        19.5191   -2.9873    8.2751  C     
9    C        18.6152   -3.5182    9.2149  C     
10   N        17.3787   -2.9460    9.3242  N     
11   C        16.2269   -3.5807    9.4701  C     
12   O        16.1534   -4.7882    9.2732  O     
13   N        15.1959   -2.8707    9.9084  N     
14   C        14.0632   -3.3495   10.4808  C     
15   C        13.1862   -2.4704   11.1492  C     
16   N        12.1392   -2.9825   11.8508  N     
17   C        11.8866   -4.3160   11.9191  C     
18   C        12.7341   -5.1985   11.2255  C     
19   N        13.7862   -4.6811   10.5498  N     
20   C        10.9199   -4.7759   12.6486  C     
21   N        10.0872   -5.2312   13.2942  N     
22   C        19.0644   -4.5214   10.1057  C     
23   C        20.3901   -4.9829   10.0604  C     
24   C        21.3037   -4.4306    9.1380  C     
25   C        22.6568   -4.8350    9.1270  C     
26   H        23.7657   -2.8339    6.6606  H     
27   H        21.4809   -2.1480    6.6578  H     
28   H        19.1961   -2.2618    7.6281  H     
29   H        17.3649   -1.9842    9.4612  H     
30   H        15.3115   -1.9070    9.9296  H     
31   H        13.3521   -1.4617   11.1526  H     
32   H        12.5969   -6.2110   11.2458  H     
33   H        18.4422   -4.8904   10.8282  H     
34   H        20.6904   -5.6962   10.7304  H     
35   H        22.9660   -5.5507    9.7908  H     
@<TRIPOS>BOND
     1    1    2 1
     2    2    3 2
     3    2    4 1
     4    4    5 ar
     5    5    6 ar
     6    6    7 ar
     7    7    8 ar
     8    8    9 ar
     9    9   10 1
    10   10   11 am
    11   11   12 2
    12   11   13 am
    13   13   14 1
    14   14   15 ar
    15   15   16 ar
    16   16   17 ar
    17   17   18 ar
    18   18   19 ar
    19   14   19 ar
    20   17   20 1
    21   20   21 3
    22    9   22 ar
    23   22   23 ar
    24   23   24 ar
    25    7   24 ar
    26   24   25 ar
    27    4   25 ar
    28    5   26 1
    29    6   27 1
    30    8   28 1
    31   10   29 1
    32   13   30 1
    33   15   31 1
    34   18   32 1
    35   22   33 1
    36   23   34 1
    37   25   35 1
@<TRIPOS>PROPERTY_DATA
  Total_Score	| 3.5261
  Crash		| -0.7058
  Polar		| 1.0073
  FragIndex	| 1
  FragRMSD	| 0.908

