@<TRIPOS>MOLECULE
BindingDB_91854
 29 30 0 0 0
SMALL
NO_CHARGES


@<TRIPOS>ATOM
1    N        18.2631   -5.1390   10.8773  N     
2    C        19.0445   -4.5662    9.9395  C     
3    C        20.3475   -5.0826    9.7742  C     
4    C        21.2397   -4.4908    8.8667  C     
5    C        20.8324   -3.3729    8.1169  C     
6    Cl       21.9101   -2.6446    7.0355  Cl    
7    C        19.5325   -2.8545    8.2768  C     
8    C        18.6187   -3.4499    9.1693  C     
9    N        17.3987   -2.8470    9.3151  N     
10   C        16.2232   -3.4550    9.3607  C     
11   O        16.1245   -4.6306    9.0279  O     
12   N        15.2052   -2.7776    9.8716  N     
13   C        14.0904   -3.3020   10.4418  C     
14   C        13.1896   -2.4556   11.1208  C     
15   N        12.1850   -3.0074   11.8536  N     
16   C        11.9883   -4.3488   11.9376  C     
17   C        12.8485   -5.1995   11.2183  C     
18   N        13.8652   -4.6443   10.5184  N     
19   C        11.0676   -4.8364   12.7099  C     
20   N        10.2749   -5.3022   13.3971  N     
21   H        17.3686   -4.7993   11.0504  H     
22   H        18.5984   -5.8871   11.3969  H     
23   H        20.6609   -5.8878   10.3257  H     
24   H        22.1838   -4.8684    8.7620  H     
25   H        19.2521   -2.0328    7.7343  H     
26   H        17.4106   -1.8929    9.4994  H     
27   H        15.3365   -1.8222    9.9899  H     
28   H        13.3186   -1.4380   11.1249  H     
29   H        12.7456   -6.2199   11.2348  H     
@<TRIPOS>BOND
     1    1    2 1
     2    2    3 ar
     3    3    4 ar
     4    4    5 ar
     5    5    6 1
     6    5    7 ar
     7    7    8 ar
     8    2    8 ar
     9    8    9 1
    10    9   10 am
    11   10   11 2
    12   10   12 am
    13   12   13 1
    14   13   14 ar
    15   14   15 ar
    16   15   16 ar
    17   16   17 ar
    18   17   18 ar
    19   13   18 ar
    20   16   19 1
    21   19   20 3
    22    1   21 1
    23    1   22 1
    24    3   23 1
    25    4   24 1
    26    7   25 1
    27    9   26 1
    28   12   27 1
    29   14   28 1
    30   17   29 1
@<TRIPOS>PROPERTY_DATA
  Total_Score	| 3.5826
  Crash		| -0.7412
  Polar		| 1.2107
  FragIndex	| 1
  FragRMSD	| 0.958

