@<TRIPOS>MOLECULE
BindingDB_14245
 27 28 0 0 0
SMALL
NO_CHARGES


@<TRIPOS>ATOM
1    C        44.8675   15.2388    1.1512  C     
2    C        45.8498   14.8501    2.0721  C     
3    C        46.2749   13.5112    1.9270  C     
4    C        45.6369   12.7885    0.9020  C     
5    S        44.5142   13.8679    0.1740  S     
6    O        46.3736   15.7331    2.9759  O     
7    C        46.0556   15.4904    4.3561  C     
8    C        45.8142   16.7955    5.0068  C     
9    O        46.7845   17.3713    5.7560  O     
10   O        44.5353   17.1744    5.2600  O     
11   C        44.2378   16.4935    1.0057  C     
12   O        43.2901   16.6918    0.0645  O     
13   O        44.5513   17.5459    1.7909  O     
14   Br       47.5086   12.7330    3.0789  Br    
15   C        45.8365   11.4442    0.5020  C     
16   C        44.7389   10.5615    0.3615  C     
17   C        44.9434    9.2144    0.0119  C     
18   C        46.2465    8.7323   -0.2073  C     
19   C        47.3439    9.6017   -0.0960  C     
20   C        47.1416   10.9498    0.2561  C     
21   H        45.1638   14.8739    4.4858  H     
22   H        46.8992   14.9928    4.8408  H     
23   H        43.7842   10.8902    0.5283  H     
24   H        44.1421    8.5835   -0.0708  H     
25   H        46.3948    7.7496   -0.4511  H     
26   H        48.2917    9.2518   -0.2643  H     
27   H        47.9548   11.5673    0.3121  H     
@<TRIPOS>BOND
     1    1    2 2
     2    1    5 1
     3    1   11 1
     4    2    3 1
     5    2    6 1
     6    3    4 2
     7    3   14 1
     8    4    5 1
     9    4   15 1
    10    6    7 1
    11    7    8 1
    12    8    9 2
    13    8   10 1
    14   11   12 2
    15   11   13 1
    16   15   16 2
    17   15   20 1
    18   16   17 1
    19   17   18 2
    20   18   19 1
    21   19   20 2
    22    7   21 1
    23    7   22 1
    24   16   23 1
    25   17   24 1
    26   18   25 1
    27   19   26 1
    28   20   27 1
@<TRIPOS>PROPERTY_DATA
  Total_Score	| 7.9497
  Crash		| -1.2194
  Polar		| 7.6079
  FragIndex	| 1
  FragRMSD	| 1.459

