@<TRIPOS>MOLECULE
BindingDB_14255
 35 36 0 0 0
SMALL
NO_CHARGES


@<TRIPOS>ATOM
1    C        44.8367   15.4367    1.3245  C     
2    C        45.6355   15.0750    2.4204  C     
3    C        46.0326   13.7266    2.4197  C     
4    C        45.6420   12.9836    1.2921  C     
5    S        44.6891   14.0421    0.3234  S     
6    O        46.0129   15.9016    3.4462  O     
7    C        47.2551   16.6005    3.2077  C     
8    C        47.8563   17.0002    4.4907  C     
9    O        49.1959   17.0296    4.6518  O     
10   O        47.0976   17.5650    5.4557  O     
11   C        44.2244   16.6676    1.0431  C     
12   O        44.2665   17.7030    1.9103  O     
13   O        43.4541   16.8122   -0.0559  O     
14   Br       46.9041   13.0081    3.8966  Br    
15   C        45.9977   11.6626    0.9548  C     
16   C        47.7407    9.9558    0.7186  C     
17   C        47.3549   11.2735    0.9725  C     
18   C        45.0351   10.7033    0.5455  C     
19   C        45.4261    9.3927    0.2355  C     
20   C        46.7853    8.9830    0.3343  C     
21   N        47.1746    7.7107    0.0561  N     
22   C        47.2869    7.2845   -1.3204  C     
23   C        47.5087    6.8116    1.1433  C     
24   H        47.9957   16.0127    2.6444  H     
25   H        47.0455   17.5079    2.6400  H     
26   H        48.7384    9.7326    0.7339  H     
27   H        48.0960   11.9550    1.1628  H     
28   H        44.0452   10.9503    0.4880  H     
29   H        44.6962    8.7169   -0.0049  H     
30   H        46.3702    7.4770   -1.8780  H     
31   H        47.5161    6.2233   -1.4284  H     
32   H        48.0935    7.8449   -1.8010  H     
33   H        48.3549    7.1808    1.7296  H     
34   H        47.7671    5.8044    0.8117  H     
35   H        46.6369    6.7255    1.8018  H     
@<TRIPOS>BOND
     1    1    2 2
     2    1    5 1
     3    1   11 1
     4    2    3 1
     5    2    6 1
     6    3    4 2
     7    3   14 1
     8    4    5 1
     9    4   15 1
    10    6    7 1
    11    7    8 1
    12    8    9 2
    13    8   10 1
    14   11   12 2
    15   11   13 1
    16   15   17 2
    17   15   18 1
    18   16   17 1
    19   16   20 2
    20   18   19 2
    21   19   20 1
    22   20   21 1
    23   21   22 1
    24   21   23 1
    25    7   24 1
    26    7   25 1
    27   16   26 1
    28   17   27 1
    29   18   28 1
    30   19   29 1
    31   22   30 1
    32   22   31 1
    33   22   32 1
    34   23   33 1
    35   23   34 1
    36   23   35 1
@<TRIPOS>PROPERTY_DATA
  Total_Score	| 8.9689
  Crash		| -1.0237
  Polar		| 6.1909
  FragIndex	| 1
  FragRMSD	| 0.804

