@<TRIPOS>MOLECULE
BindingDB_14254
 29 30 0 0 0
SMALL
NO_CHARGES


@<TRIPOS>ATOM
1    C        44.8072   15.2809    1.1636  C     
2    C        45.7865   14.8977    2.0948  C     
3    C        46.2043   13.5532    1.9769  C     
4    C        45.5868   12.8313    0.9436  C     
5    S        44.4716   13.9057    0.1895  S     
6    O        46.3326   15.7999    2.9676  O     
7    C        46.0996   15.5294    4.3616  C     
8    C        45.8591   16.8279    5.0087  C     
9    O        46.8173   17.3796    5.7855  O     
10   O        44.5765   17.1882    5.2492  O     
11   C        44.1813   16.5295    0.9986  C     
12   O        43.2056   16.6913    0.0802  O     
13   O        44.4761   17.5969    1.7707  O     
14   Br       47.4138   12.7792    3.1586  Br    
15   C        45.8716   11.5296    0.4816  C     
16   C        45.1427    9.3473   -0.3556  C     
17   C        44.8394   10.6226    0.1620  C     
18   C        47.2163   11.1411    0.2588  C     
19   C        47.5216    9.8640   -0.2464  C     
20   C        46.4866    8.9685   -0.5683  C     
21   N        46.7914    7.7656   -1.0928  N     
22   H        45.2242   14.8809    4.5368  H     
23   H        46.9790   15.0579    4.8108  H     
24   H        44.3793    8.6985   -0.5856  H     
25   H        43.8575   10.8740    0.3043  H     
26   H        47.9879   11.7894    0.4319  H     
27   H        48.4998    9.6055   -0.4045  H     
28   H        47.7247    7.5271   -1.2298  H     
29   H        46.0781    7.1676   -1.3729  H     
@<TRIPOS>BOND
     1    1    2 2
     2    1    5 1
     3    1   11 1
     4    2    3 1
     5    2    6 1
     6    3    4 2
     7    3   14 1
     8    4    5 1
     9    4   15 1
    10    6    7 1
    11    7    8 1
    12    8    9 2
    13    8   10 1
    14   11   12 2
    15   11   13 1
    16   15   17 2
    17   15   18 1
    18   16   17 1
    19   16   20 2
    20   18   19 2
    21   19   20 1
    22   20   21 1
    23    7   22 1
    24    7   23 1
    25   16   24 1
    26   17   25 1
    27   18   26 1
    28   19   27 1
    29   21   28 1
    30   21   29 1
@<TRIPOS>PROPERTY_DATA
  Total_Score	| 9.3473
  Crash		| -1.3008
  Polar		| 9.0503
  FragIndex	| 1
  FragRMSD	| 1.440

