@<TRIPOS>MOLECULE
BindingDB_14251
 31 32 0 0 0
SMALL
NO_CHARGES


@<TRIPOS>ATOM
1    C        44.8070   15.2712    1.1375  C     
2    C        45.7882   14.9101    2.0750  C     
3    C        46.2111   13.5655    1.9767  C     
4    C        45.6102   12.8237    0.9422  C     
5    S        44.4867   13.8793    0.1789  S     
6    O        46.3199   15.8332    2.9279  O     
7    C        46.2182   15.5706    4.3334  C     
8    C        45.8928   16.8364    5.0038  C     
9    O        46.8136   17.4111    5.8098  O     
10   O        44.5898   17.1232    5.2304  O     
11   C        44.1856   16.5180    0.9549  C     
12   O        44.4950   17.5988    1.7078  O     
13   O        43.2337   16.6814    0.0097  O     
14   Br       47.4132   12.8085    3.1810  Br    
15   C        45.8727   11.4931    0.5406  C     
16   C        45.1112    9.2089    0.0877  C     
17   C        44.8270   10.5478    0.4205  C     
18   C        47.1961   11.0769    0.2574  C     
19   C        47.4808    9.7395   -0.0771  C     
20   C        46.4354    8.7948   -0.1602  C     
21   O        46.7022    7.4731   -0.3845  O     
22   C        47.4235    7.1962   -1.5951  C     
23   H        45.4378   14.8419    4.5744  H     
24   H        47.1789   15.2051    4.7015  H     
25   H        44.3473    8.5265    0.0438  H     
26   H        43.8594   10.8133    0.6056  H     
27   H        47.9740   11.7457    0.2839  H     
28   H        48.4474    9.4544   -0.2429  H     
29   H        46.9097    7.5971   -2.4719  H     
30   H        47.4830    6.1114   -1.7045  H     
31   H        48.4362    7.5970   -1.5416  H     
@<TRIPOS>BOND
     1    1    2 2
     2    1    5 1
     3    1   11 1
     4    2    3 1
     5    2    6 1
     6    3    4 2
     7    3   14 1
     8    4    5 1
     9    4   15 1
    10    6    7 1
    11    7    8 1
    12    8    9 2
    13    8   10 1
    14   11   12 2
    15   11   13 1
    16   15   17 1
    17   15   18 2
    18   16   17 2
    19   16   20 1
    20   18   19 1
    21   19   20 2
    22   20   21 1
    23   21   22 1
    24    7   23 1
    25    7   24 1
    26   16   25 1
    27   17   26 1
    28   18   27 1
    29   19   28 1
    30   22   29 1
    31   22   30 1
    32   22   31 1
@<TRIPOS>PROPERTY_DATA
  Total_Score	| 8.3196
  Crash		| -1.3807
  Polar		| 7.6183
  FragIndex	| 1
  FragRMSD	| 1.206

