@<TRIPOS>MOLECULE
BindingDB_14266
 57 59 0 0 0
SMALL
NO_CHARGES


@<TRIPOS>ATOM
1    C        44.8274   15.3594    1.3639  C     
2    C        45.6716   14.9047    2.3883  C     
3    C        46.0676   13.5577    2.2657  C     
4    C        45.6257   12.9063    1.1027  C     
5    S        44.6496   14.0511    0.2639  S     
6    O        46.0691   15.6666    3.4534  O     
7    C        47.2134   16.5023    3.1840  C     
8    C        47.8118   16.9432    4.4521  C     
9    O        47.0588   17.5571    5.3880  O     
10   O        49.1581   16.9953    4.5968  O     
11   C        44.2318   16.6223    1.1929  C     
12   O        43.3833   16.8430    0.1684  O     
13   O        44.4411   17.6450    2.0398  O     
14   Br       46.9867   12.7036    3.6450  Br    
15   C        45.9481   11.6054    0.6328  C     
16   C        45.3012    9.3322   -0.0178  C     
17   C        44.9557   10.6107    0.4582  C     
18   C        47.2785   11.2952    0.2693  C     
19   C        47.6231   10.0122   -0.1734  C     
20   C        46.6506    8.9915   -0.3007  C     
21   N        46.8986    7.7045   -0.6780  N     
22   C        47.8668    6.7356   -0.2081  C     
23   C        49.3372    6.9403   -0.6674  C     
24   C        50.1540    5.4614    1.2680  C     
25   C        48.7026    5.3506    1.8709  C     
26   C        47.8008    6.5323    1.3400  C     
27   C        48.8032    5.4665    3.4392  C     
28   C        48.0388    3.9584    1.5772  C     
29   C        50.0595    4.4850   -1.1793  C     
30   C        50.3023    5.7586   -0.2826  C     
31   C        51.7768    6.2241   -0.5720  C     
32   H        47.9740   15.9727    2.6059  H     
33   H        46.9020   17.3783    2.6142  H     
34   H        44.5615    8.6260   -0.1049  H     
35   H        43.9769   10.7950    0.6949  H     
36   H        48.0122   12.0084    0.3079  H     
37   H        48.5856    9.8631   -0.4536  H     
38   H        46.2382    7.3307   -1.2951  H     
39   H        47.5225    5.8138   -0.6739  H     
40   H        49.3551    7.1246   -1.7484  H     
41   H        49.7134    7.8269   -0.1710  H     
42   H        50.6512    6.2806    1.8025  H     
43   H        50.7249    4.5591    1.5048  H     
44   H        48.1201    7.4698    1.8119  H     
45   H        46.7592    6.3742    1.6499  H     
46   H        49.4211    4.6547    3.8424  H     
47   H        47.8128    5.4170    3.9075  H     
48   H        49.2507    6.4126    3.7485  H     
49   H        47.7365    3.8365    0.5377  H     
50   H        47.1290    3.8342    2.1716  H     
51   H        48.7249    3.1439    1.8224  H     
52   H        49.0290    4.1634   -1.1736  H     
53   H        50.6660    3.6396   -0.8453  H     
54   H        50.3098    4.6997   -2.2227  H     
55   H        51.9085    6.4772   -1.6317  H     
56   H        52.4945    5.4385   -0.3225  H     
57   H        52.0260    7.1144    0.0218  H     
@<TRIPOS>BOND
     1    1    2 2
     2    1    5 1
     3    1   11 1
     4    2    3 1
     5    2    6 1
     6    3    4 2
     7    3   14 1
     8    4    5 1
     9    4   15 1
    10    6    7 1
    11    7    8 1
    12    8    9 2
    13    8   10 1
    14   11   12 2
    15   11   13 1
    16   15   17 2
    17   15   18 1
    18   16   17 1
    19   16   20 2
    20   18   19 2
    21   19   20 1
    22   20   21 1
    23   21   22 1
    24   22   23 1
    25   22   26 1
    26   23   30 1
    27   24   25 1
    28   24   30 1
    29   25   26 1
    30   25   27 1
    31   25   28 1
    32   29   30 1
    33   30   31 1
    34    7   32 1
    35    7   33 1
    36   16   34 1
    37   17   35 1
    38   18   36 1
    39   19   37 1
    40   21   38 1
    41   22   39 1
    42   23   40 1
    43   23   41 1
    44   24   42 1
    45   24   43 1
    46   26   44 1
    47   26   45 1
    48   27   46 1
    49   27   47 1
    50   27   48 1
    51   28   49 1
    52   28   50 1
    53   28   51 1
    54   29   52 1
    55   29   53 1
    56   29   54 1
    57   31   55 1
    58   31   56 1
    59   31   57 1
@<TRIPOS>PROPERTY_DATA
  Total_Score	| 10.1808
  Crash		| -1.0144
  Polar		| 7.0923
  FragIndex	| 1
  FragRMSD	| 0.745

