@<TRIPOS>MOLECULE
BindingDB_50219603
 29 30 0 0 0
SMALL
NO_CHARGES


@<TRIPOS>ATOM
1    S        44.6069   13.8458    0.1732  S     
2    C        44.9330   15.1798    1.2104  C     
3    C        45.8403   14.7267    2.1816  C     
4    C        46.2035   13.3656    2.0476  C     
5    C        45.6298   12.6963    0.9486  C     
6    C        44.3724   16.4594    1.0677  C     
7    O        44.6379   17.4701    1.9250  O     
8    O        43.5068   16.7237    0.0628  O     
9    C        45.8538   11.3761    0.4839  C     
10   C        44.8096   10.5973   -0.0721  C     
11   C        45.0492    9.2937   -0.5571  C     
12   C        46.3499    8.7423   -0.4701  C     
13   C        47.4007    9.5144    0.0535  C     
14   C        47.1699   10.8293    0.4997  C     
15   Br       47.2793   12.5060    3.3018  Br    
16   O        46.3990   15.5801    3.0928  O     
17   C        45.9796   15.4242    4.4605  C     
18   C        45.8368   16.7775    5.0321  C     
19   O        46.8666   17.3096    5.7292  O     
20   O        44.5987   17.2476    5.2934  O     
21   N        44.0654    8.5609   -1.1064  N     
22   H        43.8547   10.9763   -0.1294  H     
23   H        46.5417    7.7943   -0.8157  H     
24   H        48.3484    9.1226    0.0991  H     
25   H        47.9606   11.3934    0.8214  H     
26   H        45.0197   14.8996    4.5534  H     
27   H        46.7364   14.8573    5.0156  H     
28   H        44.2666    7.6853   -1.4770  H     
29   H        43.1672    8.9324   -1.1752  H     
@<TRIPOS>BOND
     1    1    2 1
     2    1    5 1
     3    2    3 2
     4    2    6 1
     5    3    4 1
     6    3   16 1
     7    4    5 2
     8    4   15 1
     9    5    9 1
    10    6    7 2
    11    6    8 1
    12    9   10 2
    13    9   14 1
    14   10   11 1
    15   11   12 2
    16   11   21 1
    17   12   13 1
    18   13   14 2
    19   16   17 1
    20   17   18 1
    21   18   19 1
    22   18   20 2
    23   10   22 1
    24   12   23 1
    25   13   24 1
    26   14   25 1
    27   17   26 1
    28   17   27 1
    29   21   28 1
    30   21   29 1
@<TRIPOS>PROPERTY_DATA
  Total_Score	| 8.6961
  Crash		| -1.0223
  Polar		| 7.9498
  FragIndex	| 1
  FragRMSD	| 1.070

