@<TRIPOS>MOLECULE
BindingDB_17054
 63 70 0 0 0
SMALL
NO_CHARGES


@<TRIPOS>ATOM
1    C         0.7038   30.6965    6.6715  C     
2    C        -1.3096   30.9947    7.7058  C     
3    N        -0.2652   31.5459    6.9213  N     
4    O         1.7173   31.0324    6.0832  O     
5    O        -1.4390   31.7014    8.9351  O     
6    C         0.4198   29.4882    7.2384  C     
7    C        -0.8021   29.6332    7.9070  C     
8    C        -0.6235   27.3617    8.8199  C     
9    C        -1.3069   28.5772    8.7007  C     
10   C         1.0762   28.2357    7.2517  C     
11   C         0.5203   27.1735    7.9953  C     
12   C        -2.2686   27.3210   10.3086  C     
13   C        -2.4103   28.4866    9.5304  C     
14   C        -3.4819   29.3888    9.6806  C     
15   C        -3.0384   27.3109   11.5316  C     
16   C        -4.1690   28.1551   11.6369  C     
17   C        -4.4192   29.1605   10.6930  C     
18   C         2.2275   27.7392    6.6330  C     
19   C         2.2959   26.3813    6.9694  C     
20   C         3.2111   28.3018    5.7885  C     
21   C         4.2593   27.4966    5.3019  C     
22   C         4.3203   26.1310    5.6385  C     
23   C         3.3343   25.5655    6.4683  C     
24   N         1.2491   26.0614    7.7680  N     
25   N        -1.2332   26.5687    9.7606  N     
26   C         1.9249   24.2310    9.2845  C     
27   O        -0.4790   24.6205    8.5837  O     
28   C        -0.9239   25.1149    9.8758  C     
29   C        -2.2609   24.3275   10.0493  C     
30   C         0.9168   24.7427    8.2077  C     
31   C         0.1153   24.6163   10.9784  C     
32   C         1.1705   23.5891   10.4611  C     
33   O         0.7556   25.7775   11.5837  O     
34   C        -0.0639   26.3729   12.6080  C     
35   N         2.0975   22.9460   11.4440  N     
36   C         1.6887   22.7121   12.8405  C     
37   H        -2.2497   30.9886    7.1503  H     
38   H        -0.2547   32.4661    6.6148  H     
39   H        -2.0282   32.4576    8.7311  H     
40   H        -3.6066   30.1840    9.0569  H     
41   H        -2.8106   26.9164   12.4662  H     
42   H        -4.7742   28.0979   12.4569  H     
43   H        -5.2171   29.7910   10.8088  H     
44   H         3.1890   29.2766    5.5124  H     
45   H         4.9737   27.9025    4.6930  H     
46   H         5.0791   25.5491    5.2758  H     
47   H         3.3805   24.5723    6.6987  H     
48   H         2.6001   23.4953    8.8401  H     
49   H         2.5419   25.0523    9.6666  H     
50   H        -2.7005   24.5299   11.0261  H     
51   H        -2.0987   23.2508    9.9660  H     
52   H        -2.9826   24.6150    9.2859  H     
53   H         0.9931   24.0886    7.3354  H     
54   H        -0.4071   24.0310   11.7491  H     
55   H         0.6117   22.7443   10.0415  H     
56   H        -0.0764   27.4703   12.6077  H     
57   H         0.2186   26.0150   13.5968  H     
58   H        -1.0732   26.0392   12.3992  H     
59   H         2.3443   22.0277   11.0669  H     
60   H         2.9555   23.4990   11.4840  H     
61   H         0.8422   22.0244   12.8811  H     
62   H         1.4420   23.6569   13.3260  H     
63   H         2.5227   22.2599   13.3800  H     
@<TRIPOS>BOND
     1    1    3 1
     2    1    4 2
     3    1    6 1
     4    2    3 1
     5    2    5 1
     6    2    7 1
     7    6    7 2
     8    6   10 1
     9    7    9 1
    10    8    9 2
    11    8   11 1
    12    8   25 1
    13    9   13 1
    14   10   11 2
    15   10   18 1
    16   11   24 1
    17   12   13 2
    18   12   15 1
    19   12   25 1
    20   13   14 1
    21   14   17 2
    22   15   16 2
    23   16   17 1
    24   18   19 2
    25   18   20 1
    26   19   23 1
    27   19   24 1
    28   20   21 2
    29   21   22 1
    30   22   23 2
    31   24   30 1
    32   25   28 1
    33   26   30 1
    34   26   32 1
    35   27   28 1
    36   27   30 1
    37   28   29 1
    38   28   31 1
    39   31   32 1
    40   31   33 1
    41   32   35 1
    42   33   34 1
    43   35   36 1
    44    2   37 1
    45    3   38 1
    46    5   39 1
    47   14   40 1
    48   15   41 1
    49   16   42 1
    50   17   43 1
    51   20   44 1
    52   21   45 1
    53   22   46 1
    54   23   47 1
    55   26   48 1
    56   26   49 1
    57   29   50 1
    58   29   51 1
    59   29   52 1
    60   30   53 1
    61   31   54 1
    62   32   55 1
    63   34   56 1
    64   34   57 1
    65   34   58 1
    66   35   59 1
    67   35   60 1
    68   36   61 1
    69   36   62 1
    70   36   63 1
@<TRIPOS>PROPERTY_DATA
  Total_Score	| 11.6176
  Crash		| -1.7021
  Polar		| 3.9175
  FragIndex	| 1
  FragRMSD	| 0.358

