@<TRIPOS>MOLECULE
BindingDB_2579
 62 69 0 0 0
SMALL
NO_CHARGES


@<TRIPOS>ATOM
1    C        -1.2220   31.0200    7.8635  C     
2    C         0.6630   30.7232    6.6153  C     
3    N        -0.2492   31.5825    7.0032  N     
4    O         1.6380   31.0775    5.9750  O     
5    C         0.3917   29.4883    7.1318  C     
6    C        -0.7473   29.6340    7.9285  C     
7    C         1.0365   28.2320    7.0767  C     
8    C         0.5398   27.1479    7.8270  C     
9    C         2.3755   26.4572    6.8669  C     
10   C         2.1834   27.7751    6.4349  C     
11   C         3.4910   25.7194    6.4185  C     
12   C         4.3965   26.3153    5.5212  C     
13   C         4.1845   27.6301    5.0664  C     
14   C         3.0774   28.3666    5.5203  C     
15   N         1.3758   26.0981    7.7076  N     
16   C        -0.6077   27.2891    8.6436  C     
17   C        -1.2236   28.5472    8.6936  C     
18   C        -2.1914   27.1591   10.1634  C     
19   C        -2.2287   28.4618    9.6430  C     
20   C        -3.0954   26.8487   11.2105  C     
21   C        -3.1368   29.4368   10.1059  C     
22   C        -4.0270   29.1045   11.1401  C     
23   C        -3.9985   27.8150   11.6967  C     
24   N        -1.2219   26.4342    9.5136  N     
25   C         2.0879   24.5883    9.5832  C     
26   C         1.2079   24.8163    8.3230  C     
27   C        -0.9009   25.0079    9.6620  C     
28   C        -0.1312   24.6146   10.9792  C     
29   O        -0.1698   24.4909    8.5292  O     
30   C         1.4098   24.8941   10.9539  C     
31   N         1.9035   26.1233   11.6340  N     
32   C         1.0721   27.3154   11.8527  C     
33   O        -0.7555   25.2292   12.1244  O     
34   C        -0.7043   24.5380   13.3817  C     
35   C        -2.1880   24.1291    9.5119  C     
36   H        -1.1862   31.5056    8.8409  H     
37   H        -2.2203   31.0849    7.4248  H     
38   H        -0.2306   32.5200    6.7572  H     
39   H         3.6530   24.7621    6.7369  H     
40   H         5.2094   25.7885    5.1915  H     
41   H         4.8389   28.0491    4.4016  H     
42   H         2.9386   29.2996    5.1507  H     
43   H        -3.1028   25.9386   11.6604  H     
44   H        -3.1596   30.3757    9.7108  H     
45   H        -4.6887   29.8019   11.4905  H     
46   H        -4.6409   27.5778   12.4567  H     
47   H         2.3706   23.5297    9.5806  H     
48   H         3.0195   25.1522    9.4934  H     
49   H         1.5101   24.0751    7.5765  H     
50   H        -0.2341   23.5248   11.0696  H     
51   H         1.8309   24.1347   11.6223  H     
52   H         2.2048   25.8294   12.5630  H     
53   H         2.7438   26.4313   11.1401  H     
54   H         1.6871   28.0559   12.3620  H     
55   H         0.2170   27.1069   12.4931  H     
56   H         0.7403   27.7495   10.9191  H     
57   H        -1.2427   23.5901   13.3190  H     
58   H        -1.1916   25.1608   14.1328  H     
59   H         0.3222   24.3526   13.6991  H     
60   H        -2.8489   24.2095   10.3647  H     
61   H        -1.9362   23.0687    9.4166  H     
62   H        -2.7427   24.4145    8.6193  H     
@<TRIPOS>BOND
     1    1    3 1
     2    1    6 1
     3    2    3 1
     4    2    4 2
     5    2    5 1
     6    5    6 2
     7    5    7 1
     8    6   17 1
     9    7    8 2
    10    7   10 1
    11    8   15 1
    12    8   16 1
    13    9   10 2
    14    9   11 1
    15    9   15 1
    16   10   14 1
    17   11   12 2
    18   12   13 1
    19   13   14 2
    20   26   15 1
    21   16   17 2
    22   16   24 1
    23   17   19 1
    24   18   19 2
    25   18   20 1
    26   18   24 1
    27   19   21 1
    28   20   23 2
    29   21   22 2
    30   22   23 1
    31   27   24 1
    32   25   26 1
    33   25   30 1
    34   26   29 1
    35   27   28 1
    36   27   29 1
    37   27   35 1
    38   28   30 1
    39   28   33 1
    40   30   31 1
    41   31   32 1
    42   33   34 1
    43    1   36 1
    44    1   37 1
    45    3   38 1
    46   11   39 1
    47   12   40 1
    48   13   41 1
    49   14   42 1
    50   20   43 1
    51   21   44 1
    52   22   45 1
    53   23   46 1
    54   25   47 1
    55   25   48 1
    56   26   49 1
    57   28   50 1
    58   30   51 1
    59   31   52 1
    60   31   53 1
    61   32   54 1
    62   32   55 1
    63   32   56 1
    64   34   57 1
    65   34   58 1
    66   34   59 1
    67   35   60 1
    68   35   61 1
    69   35   62 1
@<TRIPOS>PROPERTY_DATA
  Total_Score	| 10.8132
  Crash		| -1.5614
  Polar		| 3.5355
  FragIndex	| 1
  FragRMSD	| 1.327

