@<TRIPOS>MOLECULE
BindingDB_7131
 32 34 0 0 0
SMALL
NO_CHARGES


@<TRIPOS>ATOM
1    C        13.5513   45.9716   22.3444  C     
2    C        12.7699   45.8616   23.4702  C     
3    C        11.6273   46.6366   23.2338  C     
4    N        12.8652   46.7499   21.4737  N     
5    N        11.7616   47.1633   21.9992  N     
6    N        10.5540   46.9078   24.0222  N     
7    C        10.2739   46.4596   25.2445  C     
8    O        10.9873   45.5950   25.7406  O     
9    C        14.9002   45.4207   22.1265  C     
10   C        15.2901   44.0709   22.7659  C     
11   C        14.9603   44.1460   21.2693  C     
12   C         9.1840   46.9338   25.9907  C     
13   C         8.4423   48.0838   25.5979  C     
14   C         8.8093   46.3122   27.2107  C     
15   C         7.7735   46.8202   28.0172  C     
16   C         7.0655   47.9903   27.6358  C     
17   C         7.4130   48.5998   26.4061  C     
18   C         6.0769   48.5506   28.4821  C     
19   O         5.8192   48.0325   29.7046  O     
20   O         5.4018   49.6785   28.1479  O     
21   H        13.0256   45.3681   24.3295  H     
22   H        13.1912   47.0100   20.6003  H     
23   H         9.9050   47.5181   23.6294  H     
24   H        15.7239   46.1146   21.9379  H     
25   H        16.3420   43.9075   22.9903  H     
26   H        14.5348   43.5651   23.3670  H     
27   H        14.0166   43.6600   21.0218  H     
28   H        15.8363   44.0242   20.6206  H     
29   H         8.6655   48.5850   24.7353  H     
30   H         9.3044   45.4761   27.5433  H     
31   H         7.5675   46.3336   28.8905  H     
32   H         6.9184   49.4392   26.0892  H     
@<TRIPOS>BOND
     1    1    2 2
     2    1    4 1
     3    1    9 1
     4    2    3 1
     5    3    5 2
     6    3    6 1
     7    4    5 1
     8    6    7 am
     9    7    8 2
    10    7   12 1
    11    9   10 1
    12    9   11 1
    13   10   11 1
    14   12   13 2
    15   12   14 1
    16   13   17 1
    17   14   15 2
    18   15   16 1
    19   16   17 2
    20   16   18 1
    21   18   19 2
    22   18   20 1
    23    2   21 1
    24    4   22 1
    25    6   23 1
    26    9   24 1
    27   10   25 1
    28   10   26 1
    29   11   27 1
    30   11   28 1
    31   13   29 1
    32   14   30 1
    33   15   31 1
    34   17   32 1
@<TRIPOS>PROPERTY_DATA
  Total_Score	| 6.6667
  Crash		| -0.3605
  Polar		| 3.2386
  FragIndex	| 1
  FragRMSD	| 0.606

