@<TRIPOS>MOLECULE
BindingDB_50351575
 23 24 0 0 0
SMALL
NO_CHARGES


@<TRIPOS>ATOM
1    N         1.6140    3.0879    8.7263  N     
2    C         2.7907    3.4973    8.1898  C     
3    N         2.8071    4.1389    6.9915  N     
4    C         0.4463    3.2916    8.1139  C     
5    C         0.4124    3.9336    6.8811  C     
6    C         1.6442    4.3521    6.3235  C     
7    N         1.6426    4.9496    5.1094  N     
8    C         0.5106    5.1858    4.3839  C     
9    C        -0.7229    4.7779    4.9606  C     
10   N        -0.7292    4.1671    6.1761  N     
11   O        -0.5783    2.9038    8.6473  O     
12   N         3.9248    3.2417    8.8565  N     
13   C         0.6336    5.8098    3.1476  C     
14   O         1.7539    6.0948    2.7365  O     
15   N        -0.4286    6.0949    2.4148  N     
16   N        -0.3930    6.6680    1.2892  N     
17   H         1.6470    2.6114    9.5721  H     
18   H        -1.6132    4.9285    4.4913  H     
19   H         4.7762    3.4441    8.4502  H     
20   H         3.8772    2.8243    9.7305  H     
21   H        -1.3005    5.8444    2.7542  H     
22   H        -1.1918    6.8213    0.8269  H     
23   H         0.4216    6.9273    0.9116  H     
@<TRIPOS>BOND
     1    1    2 1
     2    1    4 1
     3    2    3 2
     4    2   12 1
     5    3    6 1
     6    4    5 1
     7    4   11 2
     8    5    6 2
     9    5   10 1
    10    6    7 1
    11    7    8 2
    12    8    9 1
    13    8   13 1
    14    9   10 2
    15   13   14 2
    16   13   15 am
    17   15   16 1
    18    1   17 1
    19    9   18 1
    20   12   19 1
    21   12   20 1
    22   15   21 1
    23   16   22 1
    24   16   23 1
@<TRIPOS>PROPERTY_DATA
  Total_Score	| 6.3674
  Crash		| -1.6622
  Polar		| 5.4104
  FragIndex	| 1
  FragRMSD	| 0.313

