@<TRIPOS>MOLECULE
BindingDB_50351573
 34 36 0 0 0
SMALL
NO_CHARGES


@<TRIPOS>ATOM
1    N         1.6319    3.3457    8.8404  N     
2    C         2.7266    4.0140    8.3800  C     
3    N         2.6995    4.6086    7.1624  N     
4    C         0.5070    3.2791    8.1254  C     
5    C         0.4230    3.8720    6.8729  C     
6    C         1.5830    4.5288    6.3922  C     
7    N         1.5639    5.0869    5.1621  N     
8    C         0.4753    5.0758    4.3449  C     
9    C        -0.6967    4.4342    4.8397  C     
10   N        -0.6831    3.8533    6.0719  N     
11   O        -0.4537    2.6726    8.5928  O     
12   N         3.8310    4.0931    9.1366  N     
13   C         0.5967    5.6874    3.1040  C     
14   O         1.7164    5.9280    2.6573  O     
15   N        -0.4876    6.0737    2.4320  N     
16   C        -0.4851    6.7293    1.1568  C     
17   C        -1.1332    8.0688    1.1823  C     
18   C        -0.6427    9.1130    0.3535  C     
19   C        -1.1950   10.4102    0.4276  C     
20   C        -2.2624   10.6743    1.3086  C     
21   C        -2.8033    9.6288    2.0825  C     
22   C        -2.2550    8.3316    2.0030  C     
23   F        -2.7873   11.8666    1.3762  F     
24   H         1.7077    2.8898    9.6903  H     
25   H        -1.5555    4.3892    4.2817  H     
26   H         4.6063    4.5560    8.7917  H     
27   H         3.8453    3.7246   10.0336  H     
28   H        -1.3531    5.9437    2.8583  H     
29   H         0.5503    6.8536    0.8219  H     
30   H        -0.9986    6.1021    0.4231  H     
31   H         0.1266    8.9392   -0.3006  H     
32   H        -0.8269   11.1520   -0.1722  H     
33   H        -3.6033    9.8041    2.6866  H     
34   H        -2.6684    7.5782    2.5573  H     
@<TRIPOS>BOND
     1    1    2 1
     2    1    4 1
     3    2    3 2
     4    2   12 1
     5    3    6 1
     6    4    5 1
     7    4   11 2
     8    5    6 2
     9    5   10 1
    10    6    7 1
    11    7    8 2
    12    8    9 1
    13    8   13 1
    14    9   10 2
    15   13   14 2
    16   13   15 am
    17   15   16 1
    18   16   17 1
    19   17   18 2
    20   17   22 1
    21   18   19 1
    22   19   20 2
    23   20   21 1
    24   20   23 1
    25   21   22 2
    26    1   24 1
    27    9   25 1
    28   12   26 1
    29   12   27 1
    30   15   28 1
    31   16   29 1
    32   16   30 1
    33   18   31 1
    34   19   32 1
    35   21   33 1
    36   22   34 1
@<TRIPOS>PROPERTY_DATA
  Total_Score	| 7.3290
  Crash		| -1.9760
  Polar		| 4.7921
  FragIndex	| 1
  FragRMSD	| 0.489

