@<TRIPOS>MOLECULE
BindingDB_50351576
 25 26 0 0 0
SMALL
NO_CHARGES


@<TRIPOS>ATOM
1    N         1.2451    3.1364    8.5811  N     
2    C         2.4644    3.5584    8.1655  C     
3    N         2.5825    4.2325    6.9927  N     
4    C         0.1385    3.3591    7.8769  C     
5    C         0.2165    3.9881    6.6398  C     
6    C         1.4894    4.4385    6.2120  C     
7    N         1.5932    5.0543    5.0095  N     
8    C         0.5338    5.2635    4.1766  C     
9    C        -0.7317    4.7850    4.6045  C     
10   N        -0.8439    4.1748    5.8146  N     
11   O        -0.9360    2.9844    8.3250  O     
12   N         3.5521    3.3088    8.9140  N     
13   C         0.7560    5.9345    2.9711  C     
14   O         1.9172    6.1303    2.6163  O     
15   C        -0.2974    6.4744    2.1188  C     
16   C        -1.1209    7.5879    2.8141  C     
17   H         1.1802    2.6631    9.4199  H     
18   H        -1.5646    4.8917    4.0242  H     
19   H         4.4233    3.6025    8.6125  H     
20   H         3.4645    2.8403    9.7623  H     
21   H         0.1254    6.9024    1.2031  H     
22   H        -0.9680    5.6650    1.8007  H     
23   H        -1.6905    7.1644    3.6513  H     
24   H        -1.8236    8.0331    2.0975  H     
25   H        -0.4502    8.3720    3.1943  H     
@<TRIPOS>BOND
     1    1    2 1
     2    1    4 1
     3    2    3 2
     4    2   12 1
     5    3    6 1
     6    4    5 1
     7    4   11 2
     8    5    6 2
     9    5   10 1
    10    6    7 1
    11    7    8 2
    12    8    9 1
    13    8   13 1
    14    9   10 2
    15   13   14 2
    16   13   15 1
    17   15   16 1
    18    1   17 1
    19    9   18 1
    20   12   19 1
    21   12   20 1
    22   15   21 1
    23   15   22 1
    24   16   23 1
    25   16   24 1
    26   16   25 1
@<TRIPOS>PROPERTY_DATA
  Total_Score	| 7.1454
  Crash		| -1.5716
  Polar		| 5.0881
  FragIndex	| 1
  FragRMSD	| 0.292

