@<TRIPOS>MOLECULE
BindingDB_50351572
 31 33 0 0 0
SMALL
NO_CHARGES


@<TRIPOS>ATOM
1    C         2.5791    3.6122    8.2082  C     
2    N         3.6947    3.3772    8.9099  N     
3    O        -0.8071    3.0172    8.5197  O     
4    C         0.2399    3.4164    8.0381  C     
5    N         1.3743    3.2152    8.6986  N     
6    O         1.7860    6.0805    2.6755  O     
7    C         0.2538    4.0340    6.7913  C     
8    N         2.6367    4.2361    7.0029  N     
9    O         0.1204    9.2857    1.4326  O     
10   C         1.5098    4.4372    6.2806  C     
11   N         1.5588    5.0223    5.0633  N     
12   C         0.4616    5.2515    4.2903  C     
13   N        -0.8512    4.2568    6.0398  N     
14   C        -0.7949    4.8455    4.8155  C     
15   N        -0.3944    6.2251    2.3028  N     
16   C         0.6415    5.8575    3.0509  C     
17   C        -0.3453    6.8824    1.0353  C     
18   C        -0.7536    8.2843    1.1868  C     
19   C        -2.0413    8.8214    1.1368  C     
20   C        -1.9188   10.1900    1.3390  C     
21   C        -0.5663   10.4442    1.5291  C     
22   H         4.5596    3.5923    8.5277  H     
23   H         3.6337    2.9576    9.7811  H     
24   H         1.3488    2.7507    9.5453  H     
25   H        -1.6666    4.9826    4.3000  H     
26   H        -1.2810    6.0676    2.6648  H     
27   H         0.6577    6.8548    0.5958  H     
28   H        -1.0153    6.3505    0.3549  H     
29   H        -2.9115    8.3107    0.9943  H     
30   H        -2.6771   10.8708    1.3564  H     
31   H        -0.1610   11.3669    1.7102  H     
@<TRIPOS>BOND
     1    1    2 1
     2    1    5 1
     3    1    8 2
     4    3    4 2
     5    4    5 1
     6    4    7 1
     7    6   16 2
     8    7   10 1
     9    7   13 2
    10    8   10 1
    11    9   18 1
    12    9   21 1
    13   10   11 2
    14   11   12 1
    15   12   14 2
    16   12   16 1
    17   13   14 1
    18   15   16 am
    19   15   17 1
    20   17   18 1
    21   18   19 2
    22   19   20 1
    23   20   21 2
    24    2   22 1
    25    2   23 1
    26    5   24 1
    27   14   25 1
    28   15   26 1
    29   17   27 1
    30   17   28 1
    31   19   29 1
    32   20   30 1
    33   21   31 1
@<TRIPOS>PROPERTY_DATA
  Total_Score	| 7.2588
  Crash		| -1.9000
  Polar		| 5.4554
  FragIndex	| 1
  FragRMSD	| 0.651

