@<TRIPOS>MOLECULE
BindingDB_50351570
 24 25 0 0 0
SMALL
NO_CHARGES


@<TRIPOS>ATOM
1    N         1.2298    3.0457    8.5572  N     
2    C         2.4621    3.4046    8.1198  C     
3    N         2.5775    4.0863    6.9513  N     
4    C         0.1202    3.3347    7.8820  C     
5    C         0.1979    3.9981    6.6624  C     
6    C         1.4796    4.3675    6.1968  C     
7    N         1.5878    5.0168    5.0146  N     
8    C         0.5195    5.3396    4.2318  C     
9    C        -0.7641    4.9629    4.7108  C     
10   N        -0.8795    4.3131    5.8997  N     
11   O        -0.9540    2.9768    8.3339  O     
12   N         3.5538    3.1056    8.8411  N     
13   C         0.7435    6.0150    3.0311  C     
14   O         1.8988    6.2823    2.7176  O     
15   N        -0.2510    6.3613    2.2212  N     
16   C        -0.1076    7.0487    0.9804  C     
17   H         1.1568    2.5726    9.3957  H     
18   H        -1.6169    5.1689    4.1869  H     
19   H         4.4241    3.3625    8.5016  H     
20   H         3.4726    2.6565    9.7037  H     
21   H        -1.1562    6.1284    2.4866  H     
22   H         0.3531    8.0270    1.1358  H     
23   H        -1.0926    7.1942    0.5401  H     
24   H         0.5030    6.4713    0.2836  H     
@<TRIPOS>BOND
     1    1    2 1
     2    1    4 1
     3    2    3 2
     4    2   12 1
     5    3    6 1
     6    4    5 1
     7    4   11 2
     8    5    6 2
     9    5   10 1
    10    6    7 1
    11    7    8 2
    12    8    9 1
    13    8   13 1
    14    9   10 2
    15   13   14 2
    16   13   15 am
    17   15   16 1
    18    1   17 1
    19    9   18 1
    20   12   19 1
    21   12   20 1
    22   15   21 1
    23   16   22 1
    24   16   23 1
    25   16   24 1
@<TRIPOS>PROPERTY_DATA
  Total_Score	| 6.2721
  Crash		| -1.6210
  Polar		| 5.2437
  FragIndex	| 1
  FragRMSD	| 0.224

