@<TRIPOS>MOLECULE
BindingDB_50351577
 22 23 0 0 0
SMALL
NO_CHARGES


@<TRIPOS>ATOM
1    N         1.6175    3.0764    8.7271  N     
2    C         2.7922    3.5101    8.2067  C     
3    N         2.7998    4.1656    7.0171  N     
4    C         0.4527    3.2753    8.1103  C     
5    C         0.4081    3.9301    6.8831  C     
6    C         1.6378    4.3674    6.3380  C     
7    N         1.6340    4.9820    5.1355  N     
8    C         0.5107    5.2244    4.4065  C     
9    C        -0.7226    4.8008    4.9782  C     
10   N        -0.7315    4.1699    6.1806  N     
11   O        -0.5645    2.8380    8.6251  O     
12   N         3.9243    3.2609    8.8782  N     
13   C         0.6414    5.8736    3.1795  C     
14   O         1.7630    6.0271    2.7065  O     
15   C        -0.4758    6.4259    2.4348  C     
16   H         1.6444    2.5963    9.5717  H     
17   H        -1.6113    4.9512    4.5010  H     
18   H         4.7774    3.4828    8.4825  H     
19   H         3.8831    2.8310    9.7477  H     
20   H        -1.1677    5.6325    2.1509  H     
21   H        -0.1453    6.9272    1.5230  H     
22   H        -1.0000    7.1572    3.0515  H     
@<TRIPOS>BOND
     1    1    2 1
     2    1    4 1
     3    2    3 2
     4    2   12 1
     5    3    6 1
     6    4    5 1
     7    4   11 2
     8    5    6 2
     9    5   10 1
    10    6    7 1
    11    7    8 2
    12    8    9 1
    13    8   13 1
    14    9   10 2
    15   13   14 2
    16   13   15 1
    17    1   16 1
    18    9   17 1
    19   12   18 1
    20   12   19 1
    21   15   20 1
    22   15   21 1
    23   15   22 1
@<TRIPOS>PROPERTY_DATA
  Total_Score	| 6.7861
  Crash		| -1.6521
  Polar		| 5.3278
  FragIndex	| 1
  FragRMSD	| 0.330

