@<TRIPOS>MOLECULE
BindingDB_50351574
 39 41 0 0 0
SMALL
NO_CHARGES


@<TRIPOS>ATOM
1    N         1.2904    3.0658    8.6371  N     
2    C         2.5185    3.4909    8.2204  C     
3    N         2.6335    4.1872    7.0622  N     
4    C         0.1901    3.3216    7.9440  C     
5    C         0.2560    3.9972    6.7285  C     
6    C         1.5343    4.4148    6.2836  C     
7    N         1.6428    5.0187    5.0750  N     
8    C         0.5850    5.2541    4.2481  C     
9    C        -0.6968    4.8445    4.7208  C     
10   N        -0.8177    4.2216    5.9219  N     
11   O        -0.8779    2.9000    8.3628  O     
12   N         3.5850    3.1980    8.9711  N     
13   C         0.8086    5.8415    3.0170  C     
14   O         1.9626    6.0119    2.6298  O     
15   N        -0.2134    6.2419    2.2575  N     
16   C        -0.2035    6.8076    0.9485  C     
17   C        -0.8105    8.2411    0.9412  C     
18   N        -2.0127    8.3317    1.7226  N     
19   C        -2.2426    9.0810    2.8393  C     
20   C        -1.2471    9.7385    3.6135  C     
21   C        -1.5940   10.5560    4.7111  C     
22   C        -2.9400   10.6906    5.0851  C     
23   C        -3.9389    9.9950    4.3811  C     
24   C        -3.5892    9.1997    3.2727  C     
25   H         1.2622    2.5501    9.4536  H     
26   H        -1.5364    4.9604    4.1631  H     
27   H         4.4671    3.4340    8.6555  H     
28   H         3.4835    2.7519    9.8199  H     
29   H        -1.0918    6.1359    2.6529  H     
30   H         0.8069    6.8580    0.5251  H     
31   H        -0.8035    6.1433    0.3060  H     
32   H        -0.0282    8.9526    1.2291  H     
33   H        -1.0820    8.4918   -0.0878  H     
34   H        -2.7910    7.8392    1.3738  H     
35   H        -0.2573    9.6561    3.3887  H     
36   H        -0.8583   11.0429    5.2389  H     
37   H        -3.1905   11.2792    5.8823  H     
38   H        -4.9263   10.1147    4.6365  H     
39   H        -4.3304    8.7130    2.7658  H     
@<TRIPOS>BOND
     1    1    2 1
     2    1    4 1
     3    2    3 2
     4    2   12 1
     5    3    6 1
     6    4    5 1
     7    4   11 2
     8    5    6 2
     9    5   10 1
    10    6    7 1
    11    7    8 2
    12    8    9 1
    13    8   13 1
    14    9   10 2
    15   13   14 2
    16   13   15 am
    17   15   16 1
    18   16   17 1
    19   17   18 1
    20   18   19 1
    21   19   20 2
    22   19   24 1
    23   20   21 1
    24   21   22 2
    25   22   23 1
    26   23   24 2
    27    1   25 1
    28    9   26 1
    29   12   27 1
    30   12   28 1
    31   15   29 1
    32   16   30 1
    33   16   31 1
    34   17   32 1
    35   17   33 1
    36   18   34 1
    37   20   35 1
    38   21   36 1
    39   22   37 1
    40   23   38 1
    41   24   39 1
@<TRIPOS>PROPERTY_DATA
  Total_Score	| 8.1485
  Crash		| -2.3581
  Polar		| 6.1110
  FragIndex	| 1
  FragRMSD	| 0.228

