@<TRIPOS>MOLECULE
BindingDB_50351571
 33 35 0 0 0
SMALL
NO_CHARGES


@<TRIPOS>ATOM
1    N         1.7519    3.3068    8.8358  N     
2    C         2.8398    3.9929    8.4064  C     
3    N         2.8149    4.6186    7.2011  N     
4    C         0.6258    3.2585    8.1263  C     
5    C         0.5453    3.8904    6.8877  C     
6    C         1.6998    4.5630    6.4186  C     
7    N         1.6599    5.1596    5.2000  N     
8    C         0.5578    5.1621    4.3963  C     
9    C        -0.5965    4.5036    4.8935  C     
10   N        -0.5670    3.8982    6.1080  N     
11   O        -0.3277    2.6498    8.5873  O     
12   N         3.9133    4.0787    9.2022  N     
13   C         0.6139    5.7896    3.1530  C     
14   O         1.7049    6.0458    2.6651  O     
15   N        -0.4995    6.0082    2.4603  N     
16   C        -0.6356    6.6023    1.1680  C     
17   C        -1.1007    8.0075    1.2101  C     
18   C        -0.7463    8.9352    0.2051  C     
19   C        -1.2906   10.2321    0.2477  C     
20   C        -2.1662   10.6004    1.2888  C     
21   C        -2.5042    9.6463    2.2622  C     
22   N        -1.9711    8.4001    2.1857  N     
23   H         1.8024    2.8675    9.6995  H     
24   H        -1.4597    4.4469    4.3513  H     
25   H         4.6671    4.6231    8.9351  H     
26   H         3.9136    3.6408   10.0695  H     
27   H        -1.3301    5.7445    2.8800  H     
28   H         0.2909    6.4864    0.6006  H     
29   H        -1.4052    6.0363    0.6419  H     
30   H        -0.1223    8.6669   -0.5626  H     
31   H        -1.0433   10.9116   -0.4757  H     
32   H        -2.5616   11.5422    1.3286  H     
33   H        -3.1420    9.8879    3.0253  H     
@<TRIPOS>BOND
     1    1    2 1
     2    1    4 1
     3    2    3 2
     4    2   12 1
     5    3    6 1
     6    4    5 1
     7    4   11 2
     8    5    6 2
     9    5   10 1
    10    6    7 1
    11    7    8 2
    12    8    9 1
    13    8   13 1
    14    9   10 2
    15   13   14 2
    16   13   15 am
    17   15   16 1
    18   16   17 1
    19   17   18 2
    20   17   22 1
    21   18   19 1
    22   19   20 2
    23   20   21 1
    24   21   22 2
    25    1   23 1
    26    9   24 1
    27   12   25 1
    28   12   26 1
    29   15   27 1
    30   16   28 1
    31   16   29 1
    32   18   30 1
    33   19   31 1
    34   20   32 1
    35   21   33 1
@<TRIPOS>PROPERTY_DATA
  Total_Score	| 7.5835
  Crash		| -1.6486
  Polar		| 4.6408
  FragIndex	| 1
  FragRMSD	| 0.606

