@<TRIPOS>MOLECULE
BindingDB_50351569
 19 20 0 0 0
SMALL
NO_CHARGES


@<TRIPOS>ATOM
1    C         2.4291    3.2086    8.1986  C     
2    N         3.5328    2.8666    8.8812  N     
3    O        -0.9984    3.0089    8.5152  O     
4    C         0.0872    3.3080    8.0411  C     
5    N         1.1893    2.9648    8.7007  N     
6    O        -0.3585    6.1809    2.3089  O     
7    C         0.1727    3.9430    6.8117  C     
8    N         2.5586    3.8121    6.9924  N     
9    O         1.9278    6.0332    2.6368  O     
10   C         1.4623    4.1948    6.2843  C     
11   N         1.5615    4.8028    5.0762  N     
12   C         0.4773    5.1753    4.3387  C     
13   N        -0.9124    4.3028    6.0794  N     
14   C        -0.8062    4.9037    4.8680  C     
15   C         0.6766    5.8122    3.0994  C     
16   H         4.4005    3.0446    8.4847  H     
17   H         3.4679    2.5030    9.7813  H     
18   H         3.4469    3.9637    6.6340  H     
19   H        -1.6615    5.1484    4.3607  H     
@<TRIPOS>BOND
     1    1    2 1
     2    1    5 2
     3    1    8 1
     4    3    4 2
     5    4    5 1
     6    4    7 1
     7    6   15 1
     8    7   10 1
     9    7   13 2
    10    8   10 1
    11    9   15 2
    12   10   11 2
    13   11   12 1
    14   12   14 2
    15   12   15 1
    16   13   14 1
    17    2   16 1
    18    2   17 1
    19    8   18 1
    20   14   19 1
@<TRIPOS>PROPERTY_DATA
  Total_Score	| 10.5439
  Crash		| -0.3878
  Polar		| 7.8007
  FragIndex	| 1
  FragRMSD	| 0.041

