@<TRIPOS>MOLECULE
BindingDB_50041362
 50 53 0 0 0
SMALL
NO_CHARGES


@<TRIPOS>ATOM
1    C        86.6972   52.0186   45.1550  C     
2    C        86.1735   51.5873   46.4986  C     
3    C        85.2837   54.2129   45.5489  C     
4    C        85.0904   56.0980   43.7026  C     
5    C        86.4833   53.5634   44.7951  C     
6    C        85.0278   55.7283   45.2194  C     
7    C        85.5178   54.0075   47.0684  C     
8    C        86.0920   50.2537   46.7814  C     
9    C        85.5802   52.5133   47.4888  C     
10   C        85.3104   57.5350   43.7486  C     
11   C        86.3141   55.4202   42.9909  C     
12   C        86.4069   53.9009   43.2682  C     
13   C        86.0216   51.0493   44.1029  C     
14   C        85.9538   56.7889   45.8688  C     
15   C        86.2986   49.2851   45.8607  C     
16   C        85.7390   58.0519   45.0178  C     
17   O        85.2812   58.2500   42.7574  O     
18   O        86.5418   48.1408   46.2382  O     
19   C        86.2279   49.5400   44.4342  C     
20   C        88.2529   51.7660   45.1522  C     
21   C        83.7423   55.7729   42.9841  C     
22   C        86.2709   52.4220   48.8868  C     
23   H        84.3798   53.6609   45.2672  H     
24   H        87.3619   54.1152   45.1487  H     
25   H        84.0202   55.9511   45.5960  H     
26   H        86.4523   54.5022   47.3539  H     
27   H        84.7113   54.4920   47.6270  H     
28   H        85.7494   49.9574   47.6677  H     
29   H        84.5353   52.2015   47.6224  H     
30   H        86.2523   55.5794   41.9111  H     
31   H        87.2550   55.8726   43.3228  H     
32   H        87.3004   53.5201   42.7652  H     
33   H        85.5388   53.4160   42.8153  H     
34   H        84.9440   51.2527   44.0723  H     
35   H        86.4171   51.2163   43.0988  H     
36   H        85.7021   56.9737   46.9162  H     
37   H        86.9972   56.4739   45.8010  H     
38   H        86.6686   58.6200   44.9171  H     
39   H        84.9594   58.6944   45.4376  H     
40   H        85.4121   48.9511   44.0091  H     
41   H        87.1629   49.2032   43.9740  H     
42   H        88.7338   52.4021   45.8994  H     
43   H        88.6729   52.0000   44.1687  H     
44   H        88.5249   50.7355   45.3898  H     
45   H        83.5305   54.7038   43.0247  H     
46   H        83.7824   56.0747   41.9356  H     
47   H        82.9096   56.3001   43.4574  H     
48   H        86.0496   51.4715   49.3785  H     
49   H        85.9157   53.2241   49.5410  H     
50   H        87.3557   52.5163   48.7743  H     
@<TRIPOS>BOND
     1    1    2 1
     2    1    5 1
     3    1   13 1
     4    1   20 1
     5    2    8 2
     6    2    9 1
     7    3    5 1
     8    3    6 1
     9    3    7 1
    10    4    6 1
    11    4   10 1
    12    4   11 1
    13    4   21 1
    14    5   12 1
    15    6   14 1
    16    7    9 1
    17    8   15 1
    18    9   22 1
    19   10   16 1
    20   10   17 2
    21   11   12 1
    22   13   19 1
    23   14   16 1
    24   15   18 2
    25   15   19 1
    26    3   23 1
    27    5   24 1
    28    6   25 1
    29    7   26 1
    30    7   27 1
    31    8   28 1
    32    9   29 1
    33   11   30 1
    34   11   31 1
    35   12   32 1
    36   12   33 1
    37   13   34 1
    38   13   35 1
    39   14   36 1
    40   14   37 1
    41   16   38 1
    42   16   39 1
    43   19   40 1
    44   19   41 1
    45   20   42 1
    46   20   43 1
    47   20   44 1
    48   21   45 1
    49   21   46 1
    50   21   47 1
    51   22   48 1
    52   22   49 1
    53   22   50 1
@<TRIPOS>PROPERTY_DATA
  Total_Score	| 2.7132
  Crash		| -2.9958
  Polar		| 1.0795
  FragIndex	| 1
  FragRMSD	| 1.374

