@<TRIPOS>MOLECULE
BindingDB_50041364
 56 59 0 0 0
SMALL
NO_CHARGES


@<TRIPOS>ATOM
1    C        86.2155   51.9900   47.3485  C     
2    C        86.5539   52.1733   45.8938  C     
3    C        86.3994   54.7289   46.2616  C     
4    C        86.0233   56.4177   44.2895  C     
5    C        85.9625   53.5350   45.3418  C     
6    C        85.8752   56.1226   45.8144  C     
7    C        85.5397   53.0608   48.1430  C     
8    C        86.1759   54.4384   47.7835  C     
9    C        86.4647   50.7840   47.9167  C     
10   C        85.0589   57.4902   44.1063  C     
11   C        85.6081   55.1925   43.3940  C     
12   C        85.9401   50.9296   45.1491  C     
13   C        86.2676   53.8660   43.8430  C     
14   C        84.3909   56.4020   46.0570  C     
15   C        86.7868   49.6915   47.1694  C     
16   C        84.1258   57.6472   45.1927  C     
17   O        84.9282   58.0935   43.0508  O     
18   O        87.4483   48.7935   47.6803  O     
19   C        83.9443   52.9421   48.1527  C     
20   C        86.4582   49.5869   45.7527  C     
21   C        88.1202   52.1377   45.6893  C     
22   C        87.4648   56.9050   43.9678  C     
23   C        83.4761   52.3132   49.5082  C     
24   C        83.0427   54.2148   47.9272  C     
25   H        87.4790   54.8376   46.1310  H     
26   H        84.8740   53.4542   45.4044  H     
27   H        86.4284   56.8772   46.3957  H     
28   H        85.8468   52.9412   49.1898  H     
29   H        87.1582   54.4763   48.2652  H     
30   H        85.6118   55.2310   48.2689  H     
31   H        86.3610   50.6646   48.8987  H     
32   H        84.5236   55.0487   43.4137  H     
33   H        85.8723   55.3842   42.3504  H     
34   H        84.8473   50.9562   45.2381  H     
35   H        86.1765   50.9463   44.0824  H     
36   H        87.3422   53.9457   43.6709  H     
37   H        85.8894   53.0681   43.2021  H     
38   H        83.8146   55.5670   45.6689  H     
39   H        84.1754   56.5717   47.1097  H     
40   H        84.3442   58.5725   45.7392  H     
41   H        83.0918   57.6601   44.8390  H     
42   H        83.6476   52.2390   47.3714  H     
43   H        85.7095   48.8068   45.6045  H     
44   H        87.3590   49.2830   45.2111  H     
45   H        88.6080   52.9792   46.1620  H     
46   H        88.3824   52.1410   44.6308  H     
47   H        88.5909   51.2582   46.1212  H     
48   H        87.6802   57.8532   44.4637  H     
49   H        87.5659   57.0541   42.8981  H     
50   H        88.2133   56.1764   44.2765  H     
51   H        84.0192   51.4001   49.7345  H     
52   H        82.4104   52.0647   49.4875  H     
53   H        83.6488   53.0129   50.3318  H     
54   H        83.4226   55.0620   48.5016  H     
55   H        82.0192   54.0260   48.2608  H     
56   H        82.9194   54.5187   46.8822  H     
@<TRIPOS>BOND
     1    1    2 1
     2    1    7 1
     3    1    9 2
     4    2    5 1
     5    2   12 1
     6    2   21 1
     7    3    5 1
     8    3    6 1
     9    3    8 1
    10    4    6 1
    11    4   10 1
    12    4   11 1
    13    4   22 1
    14    5   13 1
    15    6   14 1
    16    7    8 1
    17    7   19 1
    18    9   15 1
    19   10   16 1
    20   10   17 2
    21   11   13 1
    22   12   20 1
    23   14   16 1
    24   15   18 2
    25   15   20 1
    26   19   23 1
    27   19   24 1
    28    3   25 1
    29    5   26 1
    30    6   27 1
    31    7   28 1
    32    8   29 1
    33    8   30 1
    34    9   31 1
    35   11   32 1
    36   11   33 1
    37   12   34 1
    38   12   35 1
    39   13   36 1
    40   13   37 1
    41   14   38 1
    42   14   39 1
    43   16   40 1
    44   16   41 1
    45   19   42 1
    46   20   43 1
    47   20   44 1
    48   21   45 1
    49   21   46 1
    50   21   47 1
    51   22   48 1
    52   22   49 1
    53   22   50 1
    54   23   51 1
    55   23   52 1
    56   23   53 1
    57   24   54 1
    58   24   55 1
    59   24   56 1
@<TRIPOS>PROPERTY_DATA
  Total_Score	| 1.1284
  Crash		| -6.7139
  Polar		| 0.9134
  FragIndex	| 1
  FragRMSD	| 1.407

