@<TRIPOS>MOLECULE
BindingDB_50014322
 53 56 0 0 0
SMALL
NO_CHARGES


@<TRIPOS>ATOM
1    C        86.5187   52.0633   45.6828  C     
2    C        85.3736   56.1531   44.0266  C     
3    C        86.7080   52.0518   47.1836  C     
4    C        86.5536   53.5996   45.2295  C     
5    C        85.6362   55.9804   45.5516  C     
6    C        85.5199   54.4944   46.0212  C     
7    C        87.5787   51.2174   47.8047  C     
8    C        85.3744   57.6045   43.9507  C     
9    C        86.5337   55.4066   43.2880  C     
10   C        86.5781   53.8975   43.6850  C     
11   C        87.7522   51.3288   45.0114  C     
12   C        85.8070   54.3805   47.5496  C     
13   C        84.7992   57.1057   46.1940  C     
14   C        85.8599   52.9154   48.0335  C     
15   C        88.4022   50.3643   47.1454  C     
16   C        84.9781   58.2610   45.1791  C     
17   O        85.5529   58.2196   42.9062  O     
18   O        89.3451   49.8473   47.7439  O     
19   C        88.1937   50.0416   45.7515  C     
20   C        85.1593   51.2722   45.4022  C     
21   C        83.9702   55.6825   43.4870  C     
22   C        84.3507   51.2006   44.0577  C     
23   C        85.0294   50.6781   42.7700  C     
24   H        87.5348   53.9698   45.5535  H     
25   H        86.6781   56.2689   45.7643  H     
26   H        84.5022   54.1358   45.8365  H     
27   H        87.6494   51.2291   48.7963  H     
28   H        86.4027   55.4981   42.2053  H     
29   H        87.4902   55.8723   43.5293  H     
30   H        87.4691   53.4638   43.2257  H     
31   H        85.7246   53.4253   43.2101  H     
32   H        87.5759   51.0907   43.9709  H     
33   H        88.6243   51.9904   45.0134  H     
34   H        86.7698   54.8555   47.7854  H     
35   H        85.0301   54.9044   48.1096  H     
36   H        83.7526   56.8196   46.2830  H     
37   H        85.1785   57.3748   47.1831  H     
38   H        84.8450   52.5146   48.0632  H     
39   H        86.1974   52.9436   49.0736  H     
40   H        85.7608   58.9447   45.5049  H     
41   H        84.0480   58.8194   45.0521  H     
42   H        87.4242   49.2709   45.6734  H     
43   H        89.1051   49.6414   45.2946  H     
44   H        85.2983   50.2252   45.7049  H     
45   H        84.4090   51.6751   46.0876  H     
46   H        83.7995   54.6212   43.6434  H     
47   H        83.8968   55.8628   42.4134  H     
48   H        83.1413   56.2038   43.9725  H     
49   H        83.5082   50.5186   44.2381  H     
50   H        83.8956   52.1630   43.8474  H     
51   H        85.8979   51.2884   42.4760  H     
52   H        84.2978   50.7401   41.9530  H     
53   H        85.3400   49.6307   42.8828  H     
@<TRIPOS>BOND
     1    1    3 1
     2    1    4 1
     3    1   11 1
     4    1   20 1
     5    2    5 1
     6    2    8 1
     7    2    9 1
     8    2   21 1
     9    3    7 2
    10    3   14 1
    11    4    6 1
    12    4   10 1
    13    5    6 1
    14    5   13 1
    15    6   12 1
    16    7   15 1
    17    8   16 1
    18    8   17 2
    19    9   10 1
    20   11   19 1
    21   12   14 1
    22   13   16 1
    23   15   18 2
    24   15   19 1
    25   20   22 1
    26   22   23 1
    27    4   24 1
    28    5   25 1
    29    6   26 1
    30    7   27 1
    31    9   28 1
    32    9   29 1
    33   10   30 1
    34   10   31 1
    35   11   32 1
    36   11   33 1
    37   12   34 1
    38   12   35 1
    39   13   36 1
    40   13   37 1
    41   14   38 1
    42   14   39 1
    43   16   40 1
    44   16   41 1
    45   19   42 1
    46   19   43 1
    47   20   44 1
    48   20   45 1
    49   21   46 1
    50   21   47 1
    51   21   48 1
    52   22   49 1
    53   22   50 1
    54   23   51 1
    55   23   52 1
    56   23   53 1
@<TRIPOS>PROPERTY_DATA
  Total_Score	| 7.7673
  Crash		| -0.5704
  Polar		| 1.1705
  FragIndex	| 1
  FragRMSD	| 0.112

