@<TRIPOS>MOLECULE
BindingDB_50041363
 56 59 0 0 0
SMALL
NO_CHARGES


@<TRIPOS>ATOM
1    C        86.0864   51.5628   46.5735  C     
2    C        86.5729   52.2978   45.3678  C     
3    C        84.7604   54.1755   45.6941  C     
4    C        85.7695   56.1011   44.1081  C     
5    C        85.3442   53.0896   44.7379  C     
6    C        85.4319   55.6058   45.5606  C     
7    C        85.0013   52.1302   47.4300  C     
8    C        84.7047   53.6578   47.1696  C     
9    C        86.5605   50.3204   46.8105  C     
10   C        84.5230   56.7379   43.7260  C     
11   C        86.1931   54.9633   43.1128  C     
12   C        87.1496   51.2836   44.2951  C     
13   C        85.4058   53.6552   43.2846  C     
14   C        84.4677   56.7081   46.0782  C     
15   C        87.6782   49.8190   46.2389  C     
16   C        83.7118   57.1751   44.8192  C     
17   O        84.2450   57.0285   42.5768  O     
18   O        88.5043   49.2654   46.9550  O     
19   C        85.1719   51.8860   48.9890  C     
20   C        88.1012   50.2217   44.9101  C     
21   C        87.7456   53.2059   45.8503  C     
22   C        86.9074   57.1732   44.0976  C     
23   C        86.6324   52.1341   49.4934  C     
24   C        84.0869   52.5838   49.8678  C     
25   H        83.7226   54.2970   45.3747  H     
26   H        84.5568   52.3316   44.6538  H     
27   H        86.3364   55.6448   46.1669  H     
28   H        84.0959   51.6039   47.1231  H     
29   H        85.3865   54.2592   47.7663  H     
30   H        83.7268   53.8944   47.5792  H     
31   H        86.0734   49.7071   47.4196  H     
32   H        86.0548   55.3137   42.0870  H     
33   H        87.2568   54.7290   43.2046  H     
34   H        86.3087   50.7406   43.8350  H     
35   H        87.7044   51.8117   43.5054  H     
36   H        85.7951   52.9139   42.5941  H     
37   H        84.3865   53.8463   42.9465  H     
38   H        83.7818   56.3492   46.8505  H     
39   H        85.0433   57.5301   46.5213  H     
40   H        83.6167   58.2678   44.8098  H     
41   H        82.7352   56.6936   44.7695  H     
42   H        85.0012   50.8212   49.1899  H     
43   H        88.1436   49.3368   44.2647  H     
44   H        89.1194   50.6300   44.9572  H     
45   H        87.4902   53.8513   46.7025  H     
46   H        88.0800   53.8534   45.0364  H     
47   H        88.5878   52.6010   46.1904  H     
48   H        86.6746   58.0120   44.7390  H     
49   H        87.0746   57.5441   43.0867  H     
50   H        87.8418   56.7346   44.4575  H     
51   H        87.3395   51.7981   48.7405  H     
52   H        86.8120   51.5658   50.4228  H     
53   H        86.8122   53.2103   49.6745  H     
54   H        84.1411   53.6848   49.7780  H     
55   H        84.2225   52.3211   50.9213  H     
56   H        83.0909   52.2402   49.5518  H     
@<TRIPOS>BOND
     1    1    2 1
     2    1    7 1
     3    1    9 2
     4    2    5 1
     5    2   12 1
     6    2   21 1
     7    3    5 1
     8    3    6 1
     9    3    8 1
    10    4    6 1
    11    4   10 1
    12    4   11 1
    13    4   22 1
    14    5   13 1
    15    6   14 1
    16    7    8 1
    17    7   19 1
    18    9   15 1
    19   10   16 1
    20   10   17 2
    21   11   13 1
    22   12   20 1
    23   14   16 1
    24   15   18 2
    25   15   20 1
    26   19   23 1
    27   19   24 1
    28    3   25 1
    29    5   26 1
    30    6   27 1
    31    7   28 1
    32    8   29 1
    33    8   30 1
    34    9   31 1
    35   11   32 1
    36   11   33 1
    37   12   34 1
    38   12   35 1
    39   13   36 1
    40   13   37 1
    41   14   38 1
    42   14   39 1
    43   16   40 1
    44   16   41 1
    45   19   42 1
    46   20   43 1
    47   20   44 1
    48   21   45 1
    49   21   46 1
    50   21   47 1
    51   22   48 1
    52   22   49 1
    53   22   50 1
    54   23   51 1
    55   23   52 1
    56   23   53 1
    57   24   54 1
    58   24   55 1
    59   24   56 1
@<TRIPOS>PROPERTY_DATA
  Total_Score	| 0.0429
  Crash		| -6.8803
  Polar		| 0.0006
  FragIndex	| 1
  FragRMSD	| 1.298

