@<TRIPOS>MOLECULE
BindingDB_50014311
 50 53 0 0 0
SMALL
NO_CHARGES


@<TRIPOS>ATOM
1    C        86.5807   51.9992   45.6328  C     
2    C        85.3678   56.1265   43.9898  C     
3    C        86.6785   51.9813   47.1306  C     
4    C        86.5259   53.5264   45.1427  C     
5    C        85.6204   55.9063   45.5113  C     
6    C        85.4765   54.4084   45.9375  C     
7    C        87.4887   51.1160   47.7895  C     
8    C        85.4022   57.5797   43.9585  C     
9    C        86.5059   55.3513   43.2428  C     
10   C        86.5033   53.8268   43.5823  C     
11   C        87.8769   51.3250   45.0132  C     
12   C        85.6990   54.2618   47.4731  C     
13   C        84.7993   57.0295   46.1825  C     
14   C        85.7243   52.7803   47.9186  C     
15   C        88.3759   50.2928   47.1752  C     
16   C        84.9915   58.2050   45.1944  C     
17   O        85.5191   58.2302   42.9265  O     
18   O        89.3896   49.9789   47.7798  O     
19   C        88.2834   50.0224   45.7534  C     
20   C        85.2862   51.1430   45.3163  C     
21   C        83.9575   55.6949   43.4460  C     
22   C        85.1132   50.5152   43.9205  C     
23   H        87.4951   53.9397   45.4577  H     
24   H        86.6628   56.1668   45.7439  H     
25   H        84.4619   54.0735   45.7138  H     
26   H        87.4720   51.0940   48.7838  H     
27   H        86.3906   55.4886   42.1673  H     
28   H        87.4803   55.7792   43.5001  H     
29   H        87.3961   53.3950   43.1206  H     
30   H        85.6407   53.3933   43.0780  H     
31   H        87.7509   51.1083   43.9496  H     
32   H        88.7262   52.0139   45.0866  H     
33   H        86.6475   54.7309   47.7567  H     
34   H        84.8974   54.7843   48.0047  H     
35   H        83.7503   56.7418   46.2683  H     
36   H        85.1791   57.2831   47.1759  H     
37   H        84.7231   52.3536   47.8120  H     
38   H        85.9586   52.7635   48.9892  H     
39   H        85.7754   58.8822   45.5423  H     
40   H        84.0616   58.7658   45.0661  H     
41   H        87.5307   49.2451   45.5975  H     
42   H        89.2316   49.6486   45.3526  H     
43   H        85.2236   50.2866   46.0011  H     
44   H        84.3984   51.7510   45.5119  H     
45   H        83.7932   54.6244   43.5495  H     
46   H        83.8691   55.9352   42.3866  H     
47   H        83.1431   56.1952   43.9651  H     
48   H        85.4862   51.1955   43.1752  H     
49   H        84.0552   50.3341   43.7294  H     
50   H        85.6613   49.5699   43.8303  H     
@<TRIPOS>BOND
     1    1    3 1
     2    1    4 1
     3    1   11 1
     4    1   20 1
     5    2    5 1
     6    2    8 1
     7    2    9 1
     8    2   21 1
     9    3    7 2
    10    3   14 1
    11    4    6 1
    12    4   10 1
    13    5    6 1
    14    5   13 1
    15    6   12 1
    16    7   15 1
    17    8   16 1
    18    8   17 2
    19    9   10 1
    20   11   19 1
    21   12   14 1
    22   13   16 1
    23   15   18 2
    24   15   19 1
    25   20   22 1
    26    4   23 1
    27    5   24 1
    28    6   25 1
    29    7   26 1
    30    9   27 1
    31    9   28 1
    32   10   29 1
    33   10   30 1
    34   11   31 1
    35   11   32 1
    36   12   33 1
    37   12   34 1
    38   13   35 1
    39   13   36 1
    40   14   37 1
    41   14   38 1
    42   16   39 1
    43   16   40 1
    44   19   41 1
    45   19   42 1
    46   20   43 1
    47   20   44 1
    48   21   45 1
    49   21   46 1
    50   21   47 1
    51   22   48 1
    52   22   49 1
    53   22   50 1
@<TRIPOS>PROPERTY_DATA
  Total_Score	| 7.5730
  Crash		| -0.3554
  Polar		| 1.1590
  FragIndex	| 1
  FragRMSD	| 0.111

