@<TRIPOS>MOLECULE
BindingDB_50039160
 44 47 0 0 0
SMALL
NO_CHARGES


@<TRIPOS>ATOM
1    C        86.0338   55.9459   44.3554  C     
2    C        85.7802   55.6050   45.8713  C     
3    C        86.7447   52.1422   47.1589  C     
4    C        84.9378   54.2901   46.1399  C     
5    C        85.3513   53.0745   45.2443  C     
6    C        86.7067   52.4134   45.7017  C     
7    C        87.5074   51.1437   47.6647  C     
8    C        84.8530   56.7340   44.0299  C     
9    C        86.2281   54.6912   43.4378  C     
10   C        85.2668   53.5228   43.7518  C     
11   C        84.9152   53.8181   47.6260  C     
12   C        85.0190   56.8692   46.3702  C     
13   C        87.0056   51.1104   44.8884  C     
14   C        86.2435   53.1713   48.0798  C     
15   C        88.2833   50.3354   46.9003  C     
16   C        84.1742   57.3079   45.1580  C     
17   O        84.5444   57.0430   42.8857  O     
18   O        89.1909   49.7097   47.4378  O     
19   C        88.2278   50.3373   45.4484  C     
20   C        87.2834   56.8685   44.1670  C     
21   H        86.7388   55.5160   46.3897  H     
22   H        83.8943   54.5166   45.8871  H     
23   H        84.5740   52.3120   45.3666  H     
24   H        87.5233   53.1198   45.5134  H     
25   H        87.5599   51.0307   48.6528  H     
26   H        86.1035   54.9704   42.3873  H     
27   H        87.2481   54.3158   43.5326  H     
28   H        85.4782   52.6866   43.0837  H     
29   H        84.2446   53.8453   43.5283  H     
30   H        84.6884   54.6510   48.2926  H     
31   H        84.1125   53.0824   47.7518  H     
32   H        84.3832   56.6868   47.2384  H     
33   H        85.7332   57.6520   46.6416  H     
34   H        86.1337   50.4523   44.9185  H     
35   H        87.2122   51.3500   43.8452  H     
36   H        86.0746   52.7645   49.0850  H     
37   H        87.0060   53.9509   48.1755  H     
38   H        84.1238   58.3982   45.0871  H     
39   H        83.1629   56.8974   45.2192  H     
40   H        88.1889   49.3035   45.0885  H     
41   H        89.1461   50.7933   45.0652  H     
42   H        87.2062   57.7911   44.7473  H     
43   H        87.3912   57.1391   43.1128  H     
44   H        88.1909   56.3502   44.4870  H     
@<TRIPOS>BOND
     1    1    2 1
     2    1    8 1
     3    1    9 1
     4    1   20 1
     5    2    4 1
     6    2   12 1
     7    3    6 1
     8    3    7 2
     9    3   14 1
    10    4    5 1
    11    4   11 1
    12    5    6 1
    13    5   10 1
    14    6   13 1
    15    7   15 1
    16    8   16 1
    17    8   17 2
    18    9   10 1
    19   11   14 1
    20   12   16 1
    21   13   19 1
    22   15   18 2
    23   15   19 1
    24    2   21 1
    25    4   22 1
    26    5   23 1
    27    6   24 1
    28    7   25 1
    29    9   26 1
    30    9   27 1
    31   10   28 1
    32   10   29 1
    33   11   30 1
    34   11   31 1
    35   12   32 1
    36   12   33 1
    37   13   34 1
    38   13   35 1
    39   14   36 1
    40   14   37 1
    41   16   38 1
    42   16   39 1
    43   19   40 1
    44   19   41 1
    45   20   42 1
    46   20   43 1
    47   20   44 1
@<TRIPOS>PROPERTY_DATA
  Total_Score	| 3.7083
  Crash		| -1.0920
  Polar		| 0.0057
  FragIndex	| 1
  FragRMSD	| 0.728

