@<TRIPOS>MOLECULE
BindingDB_50041376
 53 56 0 0 0
SMALL
NO_CHARGES


@<TRIPOS>ATOM
1    C        86.5769   52.1906   45.6978  C     
2    C        86.1582   51.9904   47.1184  C     
3    C        86.1447   54.7723   45.9459  C     
4    C        85.1092   56.1165   43.9182  C     
5    C        85.9168   53.4938   45.0711  C     
6    C        85.1669   55.9130   45.4798  C     
7    C        86.1051   54.4798   47.4818  C     
8    C        86.2674   50.7634   47.6902  C     
9    C        85.5442   53.0787   47.8983  C     
10   C        85.3155   57.5449   43.7473  C     
11   C        86.2274   55.3046   43.1748  C     
12   C        86.2321   53.7933   43.5594  C     
13   C        86.1172   50.9184   44.8851  C     
14   C        85.5063   57.3098   46.0749  C     
15   C        86.6566   49.6681   46.9958  C     
16   C        85.2799   58.3288   44.9470  C     
17   O        85.3361   58.0989   42.6567  O     
18   O        87.1961   48.7567   47.6123  O     
19   C        86.6168   49.5935   45.5412  C     
20   C        88.1432   52.2715   45.6675  C     
21   C        83.7076   55.7470   43.3287  C     
22   C        83.9721   52.9985   47.8841  C     
23   C        83.3794   52.3967   49.1836  C     
24   H        87.1613   55.1269   45.7428  H     
25   H        84.8357   53.3135   45.1096  H     
26   H        84.1670   55.6438   45.8383  H     
27   H        87.1315   54.5422   47.8699  H     
28   H        85.5480   55.2594   48.0147  H     
29   H        86.0131   50.6421   48.6415  H     
30   H        85.8779   52.9770   48.9418  H     
31   H        86.1251   55.3903   42.0876  H     
32   H        87.2112   55.7164   43.4257  H     
33   H        87.2033   53.3858   43.2745  H     
34   H        85.4885   53.2705   42.9468  H     
35   H        85.0171   50.8870   44.8459  H     
36   H        86.4744   50.9554   43.8512  H     
37   H        84.8726   57.5348   46.9373  H     
38   H        86.5505   57.3583   46.3981  H     
39   H        86.0662   59.0931   44.9516  H     
40   H        84.3043   58.8128   45.0446  H     
41   H        85.9651   48.7673   45.2405  H     
42   H        87.6248   49.3818   45.1744  H     
43   H        88.4842   53.1969   46.1279  H     
44   H        88.5285   52.2230   44.6450  H     
45   H        88.6039   51.4449   46.2168  H     
46   H        83.4909   54.6934   43.5008  H     
47   H        83.6745   55.9321   42.2532  H     
48   H        82.9196   56.3377   43.8045  H     
49   H        83.5517   53.9985   47.7592  H     
50   H        83.6204   52.3967   47.0392  H     
51   H        83.7181   51.3641   49.3115  H     
52   H        82.2896   52.4078   49.1261  H     
53   H        83.6997   52.9817   50.0508  H     
@<TRIPOS>BOND
     1    1    2 1
     2    1    5 1
     3    1   13 1
     4    1   20 1
     5    2    8 2
     6    2    9 1
     7    3    5 1
     8    3    6 1
     9    3    7 1
    10    4    6 1
    11    4   10 1
    12    4   11 1
    13    4   21 1
    14    5   12 1
    15    6   14 1
    16    7    9 1
    17    8   15 1
    18    9   22 1
    19   10   16 1
    20   10   17 2
    21   11   12 1
    22   13   19 1
    23   14   16 1
    24   15   18 2
    25   15   19 1
    26   22   23 1
    27    3   24 1
    28    5   25 1
    29    6   26 1
    30    7   27 1
    31    7   28 1
    32    8   29 1
    33    9   30 1
    34   11   31 1
    35   11   32 1
    36   12   33 1
    37   12   34 1
    38   13   35 1
    39   13   36 1
    40   14   37 1
    41   14   38 1
    42   16   39 1
    43   16   40 1
    44   19   41 1
    45   19   42 1
    46   20   43 1
    47   20   44 1
    48   20   45 1
    49   21   46 1
    50   21   47 1
    51   21   48 1
    52   22   49 1
    53   22   50 1
    54   23   51 1
    55   23   52 1
    56   23   53 1
@<TRIPOS>PROPERTY_DATA
  Total_Score	| 4.3072
  Crash		| -3.7952
  Polar		| 1.1322
  FragIndex	| 1
  FragRMSD	| 1.195

