@<TRIPOS>MOLECULE
BindingDB_50041369
 56 59 0 0 0
SMALL
NO_CHARGES


@<TRIPOS>ATOM
1    C        86.6859   51.9750   45.3285  C     
2    C        86.1566   51.5064   46.6507  C     
3    C        85.7974   54.4028   45.9035  C     
4    C        85.0325   55.9899   43.8889  C     
5    C        85.9330   53.2817   44.8095  C     
6    C        84.9190   55.6197   45.4113  C     
7    C        85.2233   53.7751   47.2158  C     
8    C        86.0979   50.1774   46.9307  C     
9    C        86.0274   52.5332   47.7332  C     
10   C        85.0631   57.4472   43.8885  C     
11   C        86.3519   55.4144   43.2739  C     
12   C        86.4760   53.8705   43.4513  C     
13   C        86.4991   50.8506   44.2300  C     
14   C        85.2187   56.9509   46.1652  C     
15   C        86.4938   49.2087   46.0626  C     
16   C        84.8914   58.0740   45.1645  C     
17   O        85.1817   58.1139   42.8690  O     
18   O        86.2345   48.0300   46.3314  O     
19   C        87.0226   49.4783   44.7355  C     
20   C        88.2299   52.2005   45.5236  C     
21   C        83.7816   55.5250   43.0622  C     
22   C        85.5878   52.1596   49.2075  C     
23   C        84.0869   52.3945   49.6451  C     
24   C        83.5240   51.3338   50.6309  C     
25   H        86.7997   54.7646   46.1316  H     
26   H        84.8985   52.9725   44.6088  H     
27   H        83.8742   55.3743   45.6197  H     
28   H        85.2135   54.5436   47.9925  H     
29   H        84.1903   53.4694   47.0192  H     
30   H        85.8326   49.8974   47.8395  H     
31   H        87.0518   52.8941   47.8684  H     
32   H        86.4066   55.6528   42.2088  H     
33   H        87.2171   55.8858   43.7534  H     
34   H        87.5279   53.6291   43.3028  H     
35   H        85.9404   53.3866   42.6302  H     
36   H        85.4291   50.7311   43.9959  H     
37   H        87.0187   51.0910   43.2978  H     
38   H        84.6115   57.0425   47.0676  H     
39   H        86.2748   57.0289   46.4424  H     
40   H        85.5678   58.9276   45.2896  H     
41   H        83.8546   58.4136   45.2746  H     
42   H        86.7269   48.6883   44.0164  H     
43   H        88.1203   49.4797   44.8027  H     
44   H        88.4219   53.1735   45.9714  H     
45   H        88.7709   52.1469   44.5814  H     
46   H        88.6664   51.4420   46.1830  H     
47   H        83.6766   54.4397   43.1029  H     
48   H        83.8784   55.8198   42.0133  H     
49   H        82.8653   55.9709   43.4605  H     
50   H        85.8967   51.1426   49.4420  H     
51   H        86.1861   52.8087   49.8767  H     
52   H        84.0589   53.3757   50.1639  H     
53   H        83.4238   52.4314   48.7716  H     
54   H        83.3414   50.3905   50.1040  H     
55   H        82.5763   51.6956   51.0417  H     
56   H        84.2293   51.1606   51.4554  H     
@<TRIPOS>BOND
     1    1    2 1
     2    1    5 1
     3    1   13 1
     4    1   20 1
     5    2    8 2
     6    2    9 1
     7    3    5 1
     8    3    6 1
     9    3    7 1
    10    4    6 1
    11    4   10 1
    12    4   11 1
    13    4   21 1
    14    5   12 1
    15    6   14 1
    16    7    9 1
    17    8   15 1
    18    9   22 1
    19   10   16 1
    20   10   17 2
    21   11   12 1
    22   13   19 1
    23   14   16 1
    24   15   18 2
    25   15   19 1
    26   22   23 1
    27   23   24 1
    28    3   25 1
    29    5   26 1
    30    6   27 1
    31    7   28 1
    32    7   29 1
    33    8   30 1
    34    9   31 1
    35   11   32 1
    36   11   33 1
    37   12   34 1
    38   12   35 1
    39   13   36 1
    40   13   37 1
    41   14   38 1
    42   14   39 1
    43   16   40 1
    44   16   41 1
    45   19   42 1
    46   19   43 1
    47   20   44 1
    48   20   45 1
    49   20   46 1
    50   21   47 1
    51   21   48 1
    52   21   49 1
    53   22   50 1
    54   22   51 1
    55   23   52 1
    56   23   53 1
    57   24   54 1
    58   24   55 1
    59   24   56 1
@<TRIPOS>PROPERTY_DATA
  Total_Score	| 3.5142
  Crash		| -4.2803
  Polar		| 1.2955
  FragIndex	| 1
  FragRMSD	| 1.458

