@<TRIPOS>MOLECULE
BindingDB_50014299
 53 56 0 0 0
SMALL
NO_CHARGES


@<TRIPOS>ATOM
1    C        85.9932   52.4651   45.6816  C     
2    C        85.2692   56.5717   43.9539  C     
3    C        86.3089   52.4430   47.1420  C     
4    C        86.2193   53.9373   45.1150  C     
5    C        85.8476   56.4379   45.3955  C     
6    C        85.5337   55.0426   46.0036  C     
7    C        86.9975   51.4307   47.7172  C     
8    C        86.9615   51.4902   44.9000  C     
9    C        87.4334   50.3264   47.0586  C     
10   C        87.3349   50.1367   45.6032  C     
11   C        85.5319   57.9794   43.7401  C     
12   C        86.0581   55.5698   43.0511  C     
13   C        85.9152   54.1094   43.5762  C     
14   C        86.0206   54.9108   47.4718  C     
15   C        85.4045   57.7378   46.0896  C     
16   C        85.7452   53.4891   48.0106  C     
17   C        85.5598   58.7711   44.9488  C     
18   O        87.8267   49.3890   47.7500  O     
19   O        85.5856   58.4743   42.6228  O     
20   C        84.5033   52.0129   45.4819  C     
21   C        83.7210   56.3710   43.7843  C     
22   C        88.7223   49.6796   45.0416  C     
23   C        86.2940   49.0144   45.2797  C     
24   H        87.2951   54.1399   45.2046  H     
25   H        86.9466   56.5006   45.3545  H     
26   H        84.4522   54.9158   46.0172  H     
27   H        87.1596   51.4645   48.7012  H     
28   H        86.5705   51.2820   43.9013  H     
29   H        87.8945   52.0337   44.7392  H     
30   H        85.6982   55.6252   42.0195  H     
31   H        87.1202   55.8345   43.0330  H     
32   H        86.6011   53.4917   42.9938  H     
33   H        84.9101   53.7550   43.3550  H     
34   H        87.0922   55.1262   47.5390  H     
35   H        85.4901   55.6344   48.0966  H     
36   H        84.3668   57.6708   46.4305  H     
37   H        86.0451   57.9767   46.9430  H     
38   H        84.6661   53.3387   48.0821  H     
39   H        86.1367   53.4496   49.0321  H     
40   H        86.5200   59.2871   45.0193  H     
41   H        84.7493   59.5033   44.9627  H     
42   H        84.2767   51.1597   46.1148  H     
43   H        84.3020   51.7280   44.4475  H     
44   H        83.7873   52.7884   45.7476  H     
45   H        83.4109   55.3512   44.0005  H     
46   H        83.4188   56.5918   42.7584  H     
47   H        83.1545   57.0244   44.4482  H     
48   H        88.6784   49.5190   43.9627  H     
49   H        89.0545   48.7507   45.5079  H     
50   H        89.4820   50.4386   45.2378  H     
51   H        85.3028   49.2584   45.6498  H     
52   H        86.5834   48.0662   45.7391  H     
53   H        86.2187   48.8550   44.2016  H     
@<TRIPOS>BOND
     1    1    3 1
     2    1    4 1
     3    1    8 1
     4    1   20 1
     5    2    5 1
     6    2   11 1
     7    2   12 1
     8    2   21 1
     9    3    7 2
    10    3   16 1
    11    4    6 1
    12    4   13 1
    13    5    6 1
    14    5   15 1
    15    6   14 1
    16    7    9 1
    17    8   10 1
    18    9   10 1
    19    9   18 2
    20   10   22 1
    21   10   23 1
    22   11   17 1
    23   11   19 2
    24   12   13 1
    25   14   16 1
    26   15   17 1
    27    4   24 1
    28    5   25 1
    29    6   26 1
    30    7   27 1
    31    8   28 1
    32    8   29 1
    33   12   30 1
    34   12   31 1
    35   13   32 1
    36   13   33 1
    37   14   34 1
    38   14   35 1
    39   15   36 1
    40   15   37 1
    41   16   38 1
    42   16   39 1
    43   17   40 1
    44   17   41 1
    45   20   42 1
    46   20   43 1
    47   20   44 1
    48   21   45 1
    49   21   46 1
    50   21   47 1
    51   22   48 1
    52   22   49 1
    53   22   50 1
    54   23   51 1
    55   23   52 1
    56   23   53 1
@<TRIPOS>PROPERTY_DATA
  Total_Score	| 3.0072
  Crash		| -3.8601
  Polar		| 0.7633
  FragIndex	| 1
  FragRMSD	| 0.702

