@<TRIPOS>MOLECULE
BindingDB_8592
 47 50 0 0 0
SMALL
NO_CHARGES


@<TRIPOS>ATOM
1    C        85.2451   54.3870   45.8827  C     
2    C        85.4732   54.2718   47.4189  C     
3    C        86.3342   53.5521   45.1240  C     
4    C        85.5110   52.7950   47.8818  C     
5    C        86.4583   52.0429   45.6342  C     
6    C        86.5089   52.0151   47.1309  C     
7    C        88.3238   50.4559   47.2083  C     
8    C        87.3921   51.2375   47.8141  C     
9    C        88.2608   50.1533   45.7945  C     
10   C        87.7791   51.4095   45.0306  C     
11   C        86.1318   55.1860   43.1165  C     
12   C        86.1219   53.7061   43.5810  C     
13   C        85.0596   56.0712   43.8482  C     
14   C        85.1010   55.8732   45.4012  C     
15   O        89.1580   49.8651   47.9017  O     
16   C        85.2433   51.1513   45.1804  C     
17   C        86.1887   56.8816   45.8461  C     
18   C        85.4131   57.4764   43.7173  C     
19   C        86.0332   58.0647   44.8712  C     
20   O        85.3312   58.1061   42.6630  O     
21   C        83.6347   55.8187   43.2636  C     
22   H        84.2792   53.9212   45.6755  H     
23   H        86.4163   54.7496   47.6985  H     
24   H        84.6695   54.7877   47.9489  H     
25   H        87.2918   54.0358   45.3488  H     
26   H        85.6923   52.7906   48.9609  H     
27   H        84.5251   52.3499   47.7310  H     
28   H        87.3692   51.2423   48.8095  H     
29   H        89.2467   49.8667   45.4177  H     
30   H        87.5783   49.3150   45.6283  H     
31   H        87.6496   51.1486   43.9801  H     
32   H        88.5914   52.1390   45.0854  H     
33   H        87.1387   55.5815   43.2867  H     
34   H        85.9651   55.2188   42.0348  H     
35   H        86.9138   53.1873   43.0369  H     
36   H        85.1747   53.2536   43.2886  H     
37   H        84.1582   56.2444   45.8267  H     
38   H        84.2862   51.6140   45.4193  H     
39   H        85.2671   50.1761   45.6712  H     
40   H        85.2643   50.9747   44.1050  H     
41   H        86.0563   57.2002   46.8822  H     
42   H        87.1823   56.4397   45.7362  H     
43   H        85.3882   58.8461   45.2856  H     
44   H        87.0070   58.4894   44.6138  H     
45   H        83.6158   56.0271   42.1897  H     
46   H        82.8906   56.4621   43.7401  H     
47   H        83.3319   54.7829   43.4151  H     
@<TRIPOS>BOND
     1    1    2 1
     2    1    3 1
     3    1   14 1
     4    2    4 1
     5    3    5 1
     6    3   12 1
     7    4    6 1
     8    5    6 1
     9    5   10 1
    10    5   16 1
    11    6    8 2
    12    7    8 1
    13    7    9 1
    14    7   15 2
    15    9   10 1
    16   11   12 1
    17   11   13 1
    18   13   14 1
    19   13   18 1
    20   13   21 1
    21   14   17 1
    22   17   19 1
    23   18   19 1
    24   18   20 2
    25    1   22 1
    26    2   23 1
    27    2   24 1
    28    3   25 1
    29    4   26 1
    30    4   27 1
    31    8   28 1
    32    9   29 1
    33    9   30 1
    34   10   31 1
    35   10   32 1
    36   11   33 1
    37   11   34 1
    38   12   35 1
    39   12   36 1
    40   14   37 1
    41   16   38 1
    42   16   39 1
    43   16   40 1
    44   17   41 1
    45   17   42 1
    46   19   43 1
    47   19   44 1
    48   21   45 1
    49   21   46 1
    50   21   47 1
@<TRIPOS>PROPERTY_DATA
  Total_Score	| 6.3806
  Crash		| -1.0410
  Polar		| 1.0900
  FragIndex	| 1
  FragRMSD	| 0.395

