@<TRIPOS>MOLECULE
BindingDB_50041375
 50 53 0 0 0
SMALL
NO_CHARGES


@<TRIPOS>ATOM
1    C        86.4859   52.0491   45.7371  C     
2    C        86.2918   51.9193   47.2146  C     
3    C        86.1663   54.6507   45.9353  C     
4    C        84.8558   56.0154   44.0789  C     
5    C        85.7322   53.3318   45.2050  C     
6    C        85.2128   55.8569   45.6019  C     
7    C        86.3864   54.4533   47.4741  C     
8    C        86.4401   50.7069   47.8125  C     
9    C        85.9542   53.0778   48.0690  C     
10   C        85.9157   56.8861   43.6074  C     
11   C        84.7552   54.6656   43.2829  C     
12   C        85.7986   53.5949   43.6686  C     
13   C        85.9423   50.7417   45.0391  C     
14   C        85.8855   57.2211   45.9344  C     
15   C        86.7484   49.5910   47.1123  C     
16   C        86.5983   57.6261   44.6276  C     
17   O        86.0162   57.2221   42.4344  O     
18   O        87.2583   48.6436   47.6978  O     
19   C        86.5062   49.4418   45.6886  C     
20   C        88.0134   52.1368   45.4415  C     
21   C        83.5065   56.7788   43.8847  C     
22   C        84.4533   53.0651   48.4787  C     
23   H        87.1462   54.9221   45.5220  H     
24   H        84.6731   53.1669   45.4392  H     
25   H        84.2997   55.7320   46.1957  H     
26   H        87.4543   54.5763   47.6759  H     
27   H        85.9003   55.2500   48.0446  H     
28   H        86.3406   50.6323   48.7968  H     
29   H        86.5225   52.9943   49.0043  H     
30   H        83.7707   54.2154   43.4587  H     
31   H        84.8227   54.8508   42.2079  H     
32   H        86.7962   53.9262   43.3631  H     
33   H        85.5628   52.6942   43.1021  H     
34   H        84.8492   50.7158   45.0965  H     
35   H        86.2111   50.7161   43.9788  H     
36   H        85.1194   57.9607   46.1902  H     
37   H        86.5942   57.1816   46.7656  H     
38   H        87.6484   57.3302   44.6326  H     
39   H        86.5213   58.7049   44.4634  H     
40   H        85.8156   48.6162   45.5135  H     
41   H        87.4582   49.1902   45.2086  H     
42   H        88.4474   53.0234   45.8943  H     
43   H        88.2008   52.1680   44.3674  H     
44   H        88.5550   51.2804   45.8438  H     
45   H        82.6790   56.2192   44.3125  H     
46   H        83.3102   56.9264   42.8202  H     
47   H        83.5333   57.7587   44.3650  H     
48   H        83.8021   53.1789   47.6118  H     
49   H        84.2430   53.8791   49.1773  H     
50   H        84.2012   52.1300   48.9801  H     
@<TRIPOS>BOND
     1    1    2 1
     2    1    5 1
     3    1   13 1
     4    1   20 1
     5    2    8 2
     6    2    9 1
     7    3    5 1
     8    3    6 1
     9    3    7 1
    10    4    6 1
    11    4   10 1
    12    4   11 1
    13    4   21 1
    14    5   12 1
    15    6   14 1
    16    7    9 1
    17    8   15 1
    18    9   22 1
    19   10   16 1
    20   10   17 2
    21   11   12 1
    22   13   19 1
    23   14   16 1
    24   15   18 2
    25   15   19 1
    26    3   23 1
    27    5   24 1
    28    6   25 1
    29    7   26 1
    30    7   27 1
    31    8   28 1
    32    9   29 1
    33   11   30 1
    34   11   31 1
    35   12   32 1
    36   12   33 1
    37   13   34 1
    38   13   35 1
    39   14   36 1
    40   14   37 1
    41   16   38 1
    42   16   39 1
    43   19   40 1
    44   19   41 1
    45   20   42 1
    46   20   43 1
    47   20   44 1
    48   21   45 1
    49   21   46 1
    50   21   47 1
    51   22   48 1
    52   22   49 1
    53   22   50 1
@<TRIPOS>PROPERTY_DATA
  Total_Score	| 0.8877
  Crash		| -4.8395
  Polar		| 0.0012
  FragIndex	| 1
  FragRMSD	| 1.145

