@<TRIPOS>MOLECULE
BindingDB_50041365
 59 62 0 0 0
SMALL
NO_CHARGES


@<TRIPOS>ATOM
1    C        86.5243   52.3773   45.7259  C     
2    C        86.0324   52.2474   47.1510  C     
3    C        86.1895   54.9830   45.9094  C     
4    C        85.0758   56.2462   43.8694  C     
5    C        85.9288   53.6841   45.0700  C     
6    C        85.1938   56.1066   45.4404  C     
7    C        86.2315   54.7415   47.4591  C     
8    C        86.1346   51.0288   47.7530  C     
9    C        85.5813   53.4089   47.9508  C     
10   C        85.2260   57.6717   43.6530  C     
11   C        86.1989   55.4394   43.1226  C     
12   C        86.3037   53.9503   43.5654  C     
13   C        86.0487   51.0937   44.9448  C     
14   C        85.5795   57.5146   45.9621  C     
15   C        86.5417   49.9101   47.0923  C     
16   C        85.2525   58.4920   44.8299  C     
17   O        85.1748   58.1856   42.5440  O     
18   O        87.0253   48.9891   47.7700  O     
19   C        86.5233   49.7829   45.6428  C     
20   C        88.0941   52.4091   45.7424  C     
21   C        83.6710   55.8154   43.3342  C     
22   C        84.0236   53.5705   48.0605  C     
23   C        83.2204   52.4614   48.8030  C     
24   C        83.6512   52.2165   50.2680  C     
25   C        82.7189   51.2012   50.9871  C     
26   H        87.1980   55.3306   45.6569  H     
27   H        84.8476   53.5353   45.0817  H     
28   H        84.2118   55.8608   45.8586  H     
29   H        87.2778   54.7027   47.7756  H     
30   H        85.8064   55.5867   47.9965  H     
31   H        85.8701   50.9338   48.7206  H     
32   H        85.9138   53.2737   48.9927  H     
33   H        86.0426   55.4813   42.0380  H     
34   H        87.1683   55.9204   43.3101  H     
35   H        87.3226   53.6258   43.3628  H     
36   H        85.6488   53.3480   42.9375  H     
37   H        84.9589   51.0815   44.8967  H     
38   H        86.4215   51.1107   43.9238  H     
39   H        85.0342   57.7724   46.8727  H     
40   H        86.6483   57.5710   46.1756  H     
41   H        86.0197   59.2666   44.7511  H     
42   H        84.2736   58.9615   44.9733  H     
43   H        85.8624   48.9622   45.3632  H     
44   H        87.5272   49.5382   45.2900  H     
45   H        88.4642   53.3602   46.1067  H     
46   H        88.4871   52.2423   44.7433  H     
47   H        88.5121   51.6334   46.3835  H     
48   H        83.4934   54.7537   43.5029  H     
49   H        83.5971   55.9984   42.2597  H     
50   H        82.8745   56.3754   43.8290  H     
51   H        83.7920   54.5174   48.5890  H     
52   H        83.5962   53.6750   47.0549  H     
53   H        82.1603   52.7149   48.7644  H     
54   H        83.3341   51.5235   48.2403  H     
55   H        84.6798   51.8522   50.2694  H     
56   H        83.6188   53.1650   50.8190  H     
57   H        81.6959   51.6004   51.0573  H     
58   H        83.0938   51.0248   52.0046  H     
59   H        82.6937   50.2523   50.4390  H     
@<TRIPOS>BOND
     1    1    2 1
     2    1    5 1
     3    1   13 1
     4    1   20 1
     5    2    8 2
     6    2    9 1
     7    3    5 1
     8    3    6 1
     9    3    7 1
    10    4    6 1
    11    4   10 1
    12    4   11 1
    13    4   21 1
    14    5   12 1
    15    6   14 1
    16    7    9 1
    17    8   15 1
    18    9   22 1
    19   10   16 1
    20   10   17 2
    21   11   12 1
    22   13   19 1
    23   14   16 1
    24   15   18 2
    25   15   19 1
    26   22   23 1
    27   23   24 1
    28   24   25 1
    29    3   26 1
    30    5   27 1
    31    6   28 1
    32    7   29 1
    33    7   30 1
    34    8   31 1
    35    9   32 1
    36   11   33 1
    37   11   34 1
    38   12   35 1
    39   12   36 1
    40   13   37 1
    41   13   38 1
    42   14   39 1
    43   14   40 1
    44   16   41 1
    45   16   42 1
    46   19   43 1
    47   19   44 1
    48   20   45 1
    49   20   46 1
    50   20   47 1
    51   21   48 1
    52   21   49 1
    53   21   50 1
    54   22   51 1
    55   22   52 1
    56   23   53 1
    57   23   54 1
    58   24   55 1
    59   24   56 1
    60   25   57 1
    61   25   58 1
    62   25   59 1
@<TRIPOS>PROPERTY_DATA
  Total_Score	| 3.6717
  Crash		| -5.3977
  Polar		| 1.0713
  FragIndex	| 1
  FragRMSD	| 1.258

