@<TRIPOS>MOLECULE
BindingDB_50329767
 47 49 0 0 0
SMALL
NO_CHARGES


@<TRIPOS>ATOM
1    N        -3.3800   10.1615   12.0768  N     
2    C        -2.6151    9.5305   12.9831  C     
3    N        -2.8898    8.2452   13.2819  N     
4    C        -3.9215    7.5698   12.7180  C     
5    C        -4.8091    8.2238   11.7980  C     
6    C        -4.4637    9.5848   11.5074  C     
7    N        -3.9984    6.2382   12.9973  N     
8    C        -4.0257    4.4068   14.6099  C     
9    C        -3.3370    3.4112   15.3349  C     
10   C        -4.0280    2.4083   16.0354  C     
11   C        -5.4341    2.3872   16.0385  C     
12   C        -6.1453    3.3815   15.3358  C     
13   C        -5.4499    4.3884   14.6362  C     
14   S        -6.2840    1.1669   16.9338  S     
15   O        -6.1824   -0.1624   16.0718  O     
16   O        -5.5766    0.8700   18.3249  O     
17   N        -7.9384    1.4010   17.1020  N     
18   N        -5.8387    7.5873   11.1604  N     
19   O        -6.5056    8.1131   10.1661  O     
20   O        -6.1936    6.4575   11.3918  O     
21   N        -5.1008   10.4649   10.7111  N     
22   C        -6.3707   11.0512   11.0373  C     
23   C        -6.3091   12.5408   11.1417  C     
24   C        -5.1746   13.2070   11.6702  C     
25   C        -5.1489   14.6043   11.8222  C     
26   C        -6.2783   15.3654   11.4807  C     
27   C        -7.4286   14.7274   10.9802  C     
28   C        -7.4410   13.3282   10.8059  C     
29   C        -3.2273    5.4490   13.8999  C     
30   H        -1.8293   10.0094   13.4322  H     
31   H        -4.6377    5.7367   12.4591  H     
32   H        -2.3078    3.4176   15.3522  H     
33   H        -3.4983    1.6864   16.5420  H     
34   H        -7.1655    3.3912   15.3212  H     
35   H        -6.0073    5.0992   14.1750  H     
36   H        -8.5405    0.6949   16.8223  H     
37   H        -8.2834    2.2944   17.2533  H     
38   H        -4.4842   11.0975   10.2708  H     
39   H        -7.0370   10.7866   10.2206  H     
40   H        -6.8049   10.6611   11.9728  H     
41   H        -4.3458   12.6868   11.9619  H     
42   H        -4.3190   15.0580   12.2011  H     
43   H        -6.2672   16.3782   11.6131  H     
44   H        -8.2534   15.2831   10.7470  H     
45   H        -8.2924   12.8879   10.4518  H     
46   H        -2.4594    4.9583   13.2971  H     
47   H        -2.7168    6.0518   14.6547  H     
@<TRIPOS>BOND
     1    1    2 2
     2    1    6 1
     3    2    3 1
     4    3    4 2
     5    4    5 1
     6    4    7 1
     7    5    6 2
     8    5   18 am
     9    6   21 1
    10    7   29 1
    11    8    9 2
    12    8   13 1
    13    8   29 1
    14    9   10 1
    15   10   11 2
    16   11   12 1
    17   11   14 1
    18   12   13 2
    19   14   15 2
    20   14   16 2
    21   14   17 am
    22   18   19 1
    23   18   20 2
    24   21   22 1
    25   22   23 1
    26   23   24 2
    27   23   28 1
    28   24   25 1
    29   25   26 2
    30   26   27 1
    31   27   28 2
    32    2   30 1
    33    7   31 1
    34    9   32 1
    35   10   33 1
    36   12   34 1
    37   13   35 1
    38   17   36 1
    39   17   37 1
    40   21   38 1
    41   22   39 1
    42   22   40 1
    43   24   41 1
    44   25   42 1
    45   26   43 1
    46   27   44 1
    47   28   45 1
    48   29   46 1
    49   29   47 1
@<TRIPOS>PROPERTY_DATA
  Total_Score	| 6.9136
  Crash		| -1.2842
  Polar		| 3.9120
  FragIndex	| 1
  FragRMSD	| 0.988

