@<TRIPOS>MOLECULE
BindingDB_50329769
 47 49 0 0 0
SMALL
NO_CHARGES


@<TRIPOS>ATOM
1    C        -4.1287    4.6406   14.8210  C     
2    C        -3.4075    3.5660   15.3758  C     
3    C        -4.0805    2.4956   16.0040  C     
4    C        -5.4829    2.5103   16.1141  C     
5    C        -6.2143    3.5928   15.5665  C     
6    C        -5.5344    4.6447   14.9227  C     
7    S        -6.2795    1.1950   16.9124  S     
8    O        -6.4847   -0.0421   15.9349  O     
9    O        -5.3019    0.6902   18.0599  O     
10   N        -7.7142    1.5231   17.7106  N     
11   N        -3.4648    5.6467   14.2100  N     
12   N        -3.9444    7.5717   10.6238  N     
13   C        -3.1392    8.0344   11.6069  C     
14   N        -3.0246    7.3249   12.7574  N     
15   C        -3.7003    6.1694   12.9752  C     
16   C        -4.5222    5.6520   11.9373  C     
17   C        -4.6514    6.4113   10.7380  C     
18   N        -5.4526    6.0022    9.7189  N     
19   C        -5.5332    6.5854    8.4172  C     
20   C        -4.5012    6.1461    7.4358  C     
21   C        -3.5434    5.1374    7.7124  C     
22   C        -2.6071    4.7461    6.7385  C     
23   C        -2.6156    5.3528    5.4685  C     
24   C        -3.5525    6.3589    5.1816  C     
25   C        -4.4877    6.7492    6.1547  C     
26   S        -2.2579    9.5190   11.3687  S     
27   C        -2.9323   10.4001   12.7934  C     
28   C        -5.0473    4.4693   12.0466  C     
29   N        -5.5199    3.4184   12.1198  N     
30   H        -2.3858    3.5355   15.3125  H     
31   H        -3.5329    1.7145   16.3798  H     
32   H        -7.2415    3.6111   15.6281  H     
33   H        -6.0733    5.4232   14.5480  H     
34   H        -7.8194    1.2477   18.6416  H     
35   H        -8.4604    1.9292   17.2309  H     
36   H        -2.7611    6.0816   14.7401  H     
37   H        -6.0023    5.2195    9.8878  H     
38   H        -6.5101    6.3126    8.0229  H     
39   H        -5.5147    7.6740    8.5073  H     
40   H        -3.5210    4.6712    8.6212  H     
41   H        -1.9196    4.0204    6.9492  H     
42   H        -1.9430    5.0609    4.7547  H     
43   H        -3.5572    6.8022    4.2603  H     
44   H        -5.1641    7.4780    5.9240  H     
45   H        -4.0167   10.4759   12.7047  H     
46   H        -2.5092   11.4015   12.8247  H     
47   H        -2.6734    9.8832   13.7179  H     
@<TRIPOS>BOND
     1    1    2 2
     2    1    6 1
     3    1   11 1
     4    2    3 1
     5    3    4 2
     6    4    5 1
     7    4    7 1
     8    5    6 2
     9    7    8 2
    10    7    9 2
    11    7   10 am
    12   11   15 1
    13   12   13 2
    14   12   17 1
    15   13   14 1
    16   13   26 1
    17   14   15 2
    18   15   16 1
    19   16   17 2
    20   16   28 1
    21   17   18 1
    22   18   19 1
    23   19   20 1
    24   20   21 2
    25   20   25 1
    26   21   22 1
    27   22   23 2
    28   23   24 1
    29   24   25 2
    30   26   27 1
    31   28   29 3
    32    2   30 1
    33    3   31 1
    34    5   32 1
    35    6   33 1
    36   10   34 1
    37   10   35 1
    38   11   36 1
    39   18   37 1
    40   19   38 1
    41   19   39 1
    42   21   40 1
    43   22   41 1
    44   23   42 1
    45   24   43 1
    46   25   44 1
    47   27   45 1
    48   27   46 1
    49   27   47 1
@<TRIPOS>PROPERTY_DATA
  Total_Score	| 5.6758
  Crash		| -1.7623
  Polar		| 3.0501
  FragIndex	| 1
  FragRMSD	| 1.270

