@<TRIPOS>MOLECULE
BindingDB_50329760
 32 33 0 0 0
SMALL
NO_CHARGES


@<TRIPOS>ATOM
1    C        -5.2235    2.7117   15.5922  C     
2    C        -5.9274    3.8950   15.2864  C     
3    C        -5.2568    4.9928   14.7078  C     
4    C        -3.8821    4.9136   14.3870  C     
5    C        -3.1997    3.7087   14.6599  C     
6    C        -3.8600    2.6163   15.2494  C     
7    S        -5.9953    1.4091   16.4542  S     
8    O        -6.4267    0.2042   15.5177  O     
9    O        -4.8958    0.6865   17.3405  O     
10   N        -7.2487    1.7755   17.5084  N     
11   N        -3.1032    5.9867   14.0756  N     
12   C        -2.3398    9.3740   13.5178  C     
13   N        -2.3508    8.0684   13.8644  N     
14   C        -3.3484    7.2100   13.5455  C     
15   C        -4.4235    7.6969   12.7535  C     
16   C        -4.3877    9.0640   12.3687  C     
17   N        -3.3606    9.8540   12.7703  N     
18   S        -1.0452   10.4167   14.0214  S     
19   C        -0.4960    9.4737   15.4697  C     
20   C        -5.3489    6.9071   12.2922  C     
21   N        -6.1636    6.2219   11.8669  N     
22   Cl       -5.5679    9.8211   11.4137  Cl    
23   H        -6.9149    3.9903   15.5369  H     
24   H        -5.7624    5.8721   14.5973  H     
25   H        -2.1959    3.6331   14.4747  H     
26   H        -3.3297    1.7687   15.4633  H     
27   H        -7.1193    1.6466   18.4619  H     
28   H        -8.1443    1.9100   17.1603  H     
29   H        -2.1897    5.8903   14.3954  H     
30   H        -1.3400    9.2951   16.1425  H     
31   H         0.2653   10.0429   16.0003  H     
32   H        -0.0661    8.5143   15.1666  H     
@<TRIPOS>BOND
     1    1    2 1
     2    1    6 2
     3    1    7 1
     4    2    3 2
     5    3    4 1
     6    4    5 2
     7    4   11 1
     8    5    6 1
     9    7    8 2
    10    7    9 2
    11    7   10 am
    12   11   14 1
    13   12   13 1
    14   12   17 2
    15   12   18 1
    16   13   14 2
    17   14   15 1
    18   15   16 2
    19   15   20 1
    20   16   17 1
    21   16   22 1
    22   18   19 1
    23   20   21 3
    24    2   23 1
    25    3   24 1
    26    5   25 1
    27    6   26 1
    28   10   27 1
    29   10   28 1
    30   11   29 1
    31   19   30 1
    32   19   31 1
    33   19   32 1
@<TRIPOS>PROPERTY_DATA
  Total_Score	| 6.8068
  Crash		| -1.0087
  Polar		| 4.7998
  FragIndex	| 1
  FragRMSD	| 0.914

