@<TRIPOS>MOLECULE
BindingDB_50329772
 33 34 0 0 0
SMALL
NO_CHARGES


@<TRIPOS>ATOM
1    N        -4.4496    9.8242   12.1792  N     
2    C        -3.2036    9.5073   12.6206  C     
3    N        -2.9230    8.2042   12.8772  N     
4    C        -3.8436    7.2310   12.7005  C     
5    C        -5.0885    7.5469   12.2373  C     
6    C        -5.3679    8.8751   11.9929  C     
7    N        -3.4927    6.0006   12.9401  N     
8    C        -3.7890    4.4686   14.7823  C     
9    C        -3.1932    3.3731   15.4497  C     
10   C        -3.9800    2.3940   16.0841  C     
11   C        -5.3867    2.4855   16.0648  C     
12   C        -5.9942    3.5793   15.4220  C     
13   C        -5.2047    4.5719   14.8095  C     
14   S        -6.3404    1.2918   16.8873  S     
15   O        -6.3138    0.0103   15.9492  O     
16   O        -5.6605    0.8462   18.2530  O     
17   N        -7.9733    1.6470   17.0366  N     
18   N        -5.9934    6.6294   12.0400  N     
19   O        -6.9888    6.5416   12.8400  O     
20   O        -6.0914    6.1278   10.9850  O     
21   O        -6.4725    9.2352   11.6176  O     
22   C        -2.9489    5.5175   14.1400  C     
23   H        -4.6731   10.7505   12.0109  H     
24   H        -2.5010   10.2383   12.7658  H     
25   H        -3.7153    5.3659   12.2851  H     
26   H        -2.1764    3.3001   15.5064  H     
27   H        -3.5155    1.6246   16.5711  H     
28   H        -7.0128    3.6750   15.4017  H     
29   H        -5.6786    5.3833   14.3700  H     
30   H        -8.6173    1.0211   16.6652  H     
31   H        -8.2387    2.5646   17.2093  H     
32   H        -1.9655    5.1103   13.8881  H     
33   H        -2.7988    6.3129   14.8747  H     
@<TRIPOS>BOND
     1    1    2 1
     2    1    6 1
     3    2    3 2
     4    3    4 1
     5    4    5 2
     6    4    7 1
     7    5    6 1
     8    5   18 am
     9    6   21 2
    10    7   22 1
    11    8    9 2
    12    8   13 1
    13    8   22 1
    14    9   10 1
    15   10   11 2
    16   11   12 1
    17   11   14 1
    18   12   13 2
    19   14   15 2
    20   14   16 2
    21   14   17 am
    22   18   19 1
    23   18   20 2
    24    1   23 1
    25    2   24 1
    26    7   25 1
    27    9   26 1
    28   10   27 1
    29   12   28 1
    30   13   29 1
    31   17   30 1
    32   17   31 1
    33   22   32 1
    34   22   33 1
@<TRIPOS>PROPERTY_DATA
  Total_Score	| 7.4052
  Crash		| -0.8825
  Polar		| 4.8839
  FragIndex	| 1
  FragRMSD	| 1.257

