@<TRIPOS>MOLECULE
BindingDB_50329764
 36 37 0 0 0
SMALL
NO_CHARGES


@<TRIPOS>ATOM
1    N        -3.2830   10.1256   12.7659  N     
2    C        -2.4688    9.3293   13.4925  C     
3    N        -2.7408    8.0073   13.5311  N     
4    C        -3.7889    7.4329   12.8783  C     
5    C        -4.6738    8.2591   12.1187  C     
6    C        -4.3562    9.6487   12.0862  C     
7    N        -3.9256    6.0827   12.9419  N     
8    C        -3.9617    4.2320   14.5508  C     
9    C        -3.2734    3.2990   15.3601  C     
10   C        -3.9737    2.3525   16.1263  C     
11   C        -5.3820    2.3422   16.1297  C     
12   C        -6.0832    3.2821   15.3453  C     
13   C        -5.3812    4.2234   14.5723  C     
14   S        -6.2442    1.1213   17.0137  S     
15   O        -6.5728   -0.1106   16.0696  O     
16   O        -5.3273    0.5652   18.1870  O     
17   N        -7.6714    1.6236   17.7328  N     
18   C        -5.8020    7.7694   11.4526  C     
19   O        -6.3434    6.7043   11.7178  O     
20   Cl       -5.2432   10.8412   11.2665  Cl    
21   S        -1.0936   10.0180   14.3048  S     
22   C        -0.9648    8.9128   15.7293  C     
23   C        -3.1548    5.1593   13.7172  C     
24   H        -4.6103    5.6862   12.3866  H     
25   H        -2.2494    3.2831   15.3797  H     
26   H        -3.4495    1.6706   16.6763  H     
27   H        -7.1072    3.2836   15.3193  H     
28   H        -5.9180    4.8822   14.0033  H     
29   H        -7.8556    1.3691   18.6542  H     
30   H        -8.3544    2.0816   17.2059  H     
31   H        -6.2644    8.3234   10.7702  H     
32   H        -1.8982    8.9114   16.2900  H     
33   H        -0.1622    9.2672   16.3760  H     
34   H        -0.7266    7.8959   15.4043  H     
35   H        -2.5729    4.5629   13.0136  H     
36   H        -2.4470    5.6747   14.3703  H     
@<TRIPOS>BOND
     1    1    2 2
     2    1    6 1
     3    2    3 1
     4    2   21 1
     5    3    4 2
     6    4    5 1
     7    4    7 1
     8    5    6 2
     9    5   18 1
    10    6   20 1
    11    7   23 1
    12    8    9 2
    13    8   13 1
    14    8   23 1
    15    9   10 1
    16   10   11 2
    17   11   12 1
    18   11   14 1
    19   12   13 2
    20   14   15 2
    21   14   16 2
    22   14   17 am
    23   18   19 2
    24   21   22 1
    25    7   24 1
    26    9   25 1
    27   10   26 1
    28   12   27 1
    29   13   28 1
    30   17   29 1
    31   17   30 1
    32   18   31 1
    33   22   32 1
    34   22   33 1
    35   22   34 1
    36   23   35 1
    37   23   36 1
@<TRIPOS>PROPERTY_DATA
  Total_Score	| 7.1682
  Crash		| -1.3546
  Polar		| 3.8219
  FragIndex	| 1
  FragRMSD	| 0.836

