@<TRIPOS>MOLECULE
BindingDB_50329761
 35 36 0 0 0
SMALL
NO_CHARGES


@<TRIPOS>ATOM
1    C        -5.5369    2.3297   16.0371  C     
2    C        -4.1342    2.4194   15.9238  C     
3    C        -3.5552    3.2610   14.9565  C     
4    C        -4.3667    4.0032   14.0665  C     
5    C        -5.7707    3.9425   14.2188  C     
6    C        -6.3512    3.1147   15.1961  C     
7    S        -6.2658    1.1641   17.1021  S     
8    O        -6.5200   -0.1908   16.3157  O     
9    O        -5.2868    0.8080   18.3009  O     
10   N        -7.7253    1.6128   17.7896  N     
11   C        -3.7532    4.7674   12.9527  C     
12   N        -3.1323    5.9534   13.4407  N     
13   C        -2.2984    9.3773   13.5776  C     
14   N        -2.3674    8.0323   13.7071  N     
15   C        -3.3504    7.2667   13.1715  C     
16   C        -4.3863    7.9234   12.4462  C     
17   C        -4.2814    9.3301   12.2812  C     
18   N        -3.2499   10.0035   12.8488  N     
19   S        -1.0129   10.3076   14.2886  S     
20   C        -0.7195    9.3251   15.7792  C     
21   C        -5.4416    7.3020   11.9984  C     
22   N        -6.3782    6.7572   11.6159  N     
23   Cl       -5.3960   10.2816   11.4253  Cl    
24   H        -3.5257    1.8489   16.5162  H     
25   H        -2.5359    3.2922   14.8738  H     
26   H        -6.3830    4.4773   13.5990  H     
27   H        -7.3701    3.0609   15.2608  H     
28   H        -7.8887    1.3784   18.7165  H     
29   H        -8.4741    1.8275   17.2124  H     
30   H        -2.9721    4.1570   12.4939  H     
31   H        -4.4745    4.9496   12.1620  H     
32   H        -2.3707    5.7858   14.0199  H     
33   H        -1.6427    9.2211   16.3517  H     
34   H         0.0228    9.8322   16.3938  H     
35   H        -0.3405    8.3378   15.5138  H     
@<TRIPOS>BOND
     1    1    2 1
     2    1    6 2
     3    1    7 1
     4    2    3 2
     5    3    4 1
     6    4    5 2
     7    4   11 1
     8    5    6 1
     9    7    8 2
    10    7    9 2
    11    7   10 am
    12   11   12 1
    13   12   15 1
    14   13   14 1
    15   13   18 2
    16   13   19 1
    17   14   15 2
    18   15   16 1
    19   16   17 2
    20   16   21 1
    21   17   18 1
    22   17   23 1
    23   19   20 1
    24   21   22 3
    25    2   24 1
    26    3   25 1
    27    5   26 1
    28    6   27 1
    29   10   28 1
    30   10   29 1
    31   11   30 1
    32   11   31 1
    33   12   32 1
    34   20   33 1
    35   20   34 1
    36   20   35 1
@<TRIPOS>PROPERTY_DATA
  Total_Score	| 6.7191
  Crash		| -1.4440
  Polar		| 3.9205
  FragIndex	| 1
  FragRMSD	| 0.983

