@<TRIPOS>MOLECULE
BindingDB_50329768
 50 52 0 0 0
SMALL
NO_CHARGES


@<TRIPOS>ATOM
1    C        -4.1439    4.4007   14.4066  C     
2    C        -3.4067    3.4787   15.1855  C     
3    C        -4.0577    2.4932   15.9462  C     
4    C        -5.4681    2.4225   15.9687  C     
5    C        -6.2123    3.3249   15.1777  C     
6    C        -5.5544    4.3040   14.4032  C     
7    S        -6.2708    1.2199   16.9333  S     
8    O        -6.5415   -0.0996   16.0926  O     
9    O        -5.3597    0.8653   18.1873  O     
10   N        -7.7393    1.7182   17.5791  N     
11   C        -3.4654    5.4198   13.5608  C     
12   N        -4.4207    7.4769   12.5792  N     
13   N        -8.3703    7.7679   11.5312  N     
14   C        -7.9955    7.3401   12.7520  C     
15   N        -6.6796    7.2777   13.0486  N     
16   C        -5.7099    7.6399   12.1661  C     
17   C        -6.0773    8.1184   10.8579  C     
18   C        -7.4851    8.1659   10.5748  C     
19   N        -8.0016    8.5849    9.3825  N     
20   C        -8.5950    7.7568    8.3735  C     
21   C        -8.4128    8.2983    7.0054  C     
22   C        -9.4271    9.0531    6.3680  C     
23   C        -9.2597    9.5336    5.0560  C     
24   C        -8.0617    9.2792    4.3601  C     
25   C        -7.0412    8.5355    4.9781  C     
26   C        -7.2198    8.0310    6.2824  C     
27   N        -5.1340    8.4858    9.9253  N     
28   O        -5.3941    8.8303    8.8000  O     
29   O        -3.8436    8.4933   10.1355  O     
30   C        -3.9377    6.8883   13.7985  C     
31   H        -2.3850    3.5095   15.1989  H     
32   H        -3.4998    1.8334   16.4924  H     
33   H        -7.2347    3.2822   15.1612  H     
34   H        -6.1106    4.9479   13.8272  H     
35   H        -8.0057    1.3729   18.4458  H     
36   H        -8.1995    2.4797   17.1929  H     
37   H        -2.3831    5.3772   13.7047  H     
38   H        -3.6469    5.1360   12.5155  H     
39   H        -3.7265    7.7040   11.9459  H     
40   H        -8.6914    7.0682   13.4438  H     
41   H        -7.9271    9.5234    9.1678  H     
42   H        -8.1298    6.7713    8.4248  H     
43   H        -9.6619    7.6448    8.5902  H     
44   H       -10.3057    9.2470    6.8516  H     
45   H       -10.0079   10.0649    4.6038  H     
46   H        -7.9431    9.6235    3.4045  H     
47   H        -6.1709    8.3509    4.4737  H     
48   H        -6.4739    7.4767    6.7006  H     
49   H        -4.6853    6.9324   14.5953  H     
50   H        -3.0797    7.4952   14.1241  H     
@<TRIPOS>BOND
     1    1    2 2
     2    1    6 1
     3    1   11 1
     4    2    3 1
     5    3    4 2
     6    4    5 1
     7    4    7 1
     8    5    6 2
     9    7    8 2
    10    7    9 2
    11    7   10 am
    12   11   30 1
    13   12   16 1
    14   12   30 1
    15   13   14 2
    16   13   18 1
    17   14   15 1
    18   15   16 2
    19   16   17 1
    20   17   18 2
    21   17   27 am
    22   18   19 1
    23   19   20 1
    24   20   21 1
    25   21   22 2
    26   21   26 1
    27   22   23 1
    28   23   24 2
    29   24   25 1
    30   25   26 2
    31   27   28 2
    32   27   29 1
    33    2   31 1
    34    3   32 1
    35    5   33 1
    36    6   34 1
    37   10   35 1
    38   10   36 1
    39   11   37 1
    40   11   38 1
    41   12   39 1
    42   14   40 1
    43   19   41 1
    44   20   42 1
    45   20   43 1
    46   22   44 1
    47   23   45 1
    48   24   46 1
    49   25   47 1
    50   26   48 1
    51   30   49 1
    52   30   50 1
@<TRIPOS>PROPERTY_DATA
  Total_Score	| 7.4025
  Crash		| -1.9721
  Polar		| 2.9870
  FragIndex	| 1
  FragRMSD	| 1.194

