@<TRIPOS>MOLECULE
BindingDB_50329765
 39 40 0 0 0
SMALL
NO_CHARGES


@<TRIPOS>ATOM
1    C        -3.5468    3.3778   14.1903  C     
2    C        -4.9022    3.3080   13.7989  C     
3    C        -5.8673    2.7447   14.6539  C     
4    C        -5.4874    2.2395   15.9154  C     
5    C        -4.1439    2.3155   16.3176  C     
6    C        -3.1844    2.8961   15.4709  C     
7    S        -6.6505    1.4764   16.9515  S     
8    O        -6.8899    0.0386   16.3139  O     
9    O        -6.1410    1.3143   18.4542  O     
10   N        -8.1059    2.3129   16.9271  N     
11   N        -3.4029   10.3160   12.7632  N     
12   C        -2.4774    9.6354   13.4680  C     
13   N        -2.5548    8.2861   13.4799  N     
14   C        -3.5414    7.5828   12.8645  C     
15   C        -4.5629    8.2805   12.1566  C     
16   C        -4.4162    9.6993   12.1044  C     
17   Cl       -5.4701   10.7577   11.3069  Cl    
18   N        -3.4602    6.2281   12.9084  N     
19   S        -1.1971   10.4949   14.2762  S     
20   C        -0.8440    9.3552   15.6322  C     
21   C        -2.3715    5.4899   13.4741  C     
22   C        -2.5301    3.9624   13.2835  C     
23   C        -5.6284    7.6460   11.5159  C     
24   O        -5.9923    6.5041   11.7764  O     
25   H        -5.1969    3.6625   12.8858  H     
26   H        -6.8400    2.7025   14.3408  H     
27   H        -3.8509    1.9533   17.2213  H     
28   H        -2.2160    2.9531   15.7876  H     
29   H        -8.9459    1.8370   17.0731  H     
30   H        -8.1088    3.2845   16.8042  H     
31   H        -4.1467    5.7175   12.4548  H     
32   H        -1.7525    9.1579   16.1998  H     
33   H        -0.1066    9.8101   16.2943  H     
34   H        -0.4391    8.4199   15.2484  H     
35   H        -1.4456    5.7959   12.9777  H     
36   H        -2.2737    5.7171   14.5404  H     
37   H        -1.5636    3.4893   13.4608  H     
38   H        -2.7834    3.7481   12.2407  H     
39   H        -6.2273    8.1562   10.9154  H     
@<TRIPOS>BOND
     1    1    2 2
     2    1    6 1
     3    1   22 1
     4    2    3 1
     5    3    4 2
     6    4    5 1
     7    4    7 1
     8    5    6 2
     9    7    8 2
    10    7    9 2
    11    7   10 am
    12   11   12 2
    13   11   16 1
    14   12   13 1
    15   12   19 1
    16   13   14 2
    17   14   15 1
    18   14   18 1
    19   15   16 2
    20   15   23 1
    21   16   17 1
    22   18   21 1
    23   19   20 1
    24   21   22 1
    25   23   24 2
    26    2   25 1
    27    3   26 1
    28    5   27 1
    29    6   28 1
    30   10   29 1
    31   10   30 1
    32   18   31 1
    33   20   32 1
    34   20   33 1
    35   20   34 1
    36   21   35 1
    37   21   36 1
    38   22   37 1
    39   22   38 1
    40   23   39 1
@<TRIPOS>PROPERTY_DATA
  Total_Score	| 5.6022
  Crash		| -1.9351
  Polar		| 2.9721
  FragIndex	| 1
  FragRMSD	| 0.910

