@<TRIPOS>MOLECULE
BindingDB_50329762
 38 39 0 0 0
SMALL
NO_CHARGES


@<TRIPOS>ATOM
1    C        -5.2265    2.2730   16.1431  C     
2    C        -3.8268    2.1741   16.2305  C     
3    C        -3.0068    3.1363   15.6160  C     
4    C        -3.5771    4.2028   14.8868  C     
5    C        -4.9857    4.2928   14.8068  C     
6    C        -5.8052    3.3257   15.4076  C     
7    S        -6.2301    1.0899   16.9280  S     
8    O        -6.3488   -0.1164   15.9076  O     
9    O        -5.4850    0.5808   18.2347  O     
10   N        -7.7696    1.6590   17.2950  N     
11   C        -2.8961    5.3607   12.7036  C     
12   N        -3.7985    6.3900   12.2756  N     
13   C        -2.3497    9.4884   13.4442  C     
14   N        -2.5841    8.1783   13.2070  N     
15   C        -3.6218    7.7249   12.4499  C     
16   C        -4.4874    8.6802   11.8543  C     
17   C        -4.2040   10.0486   12.0752  C     
18   N        -3.1596   10.4059   12.8597  N     
19   S        -1.0139   10.0089   14.4190  S     
20   C        -1.0621    8.7199   15.6875  C     
21   C        -5.4860    8.3163   11.0924  C     
22   N        -6.3645    8.0077   10.4143  N     
23   Cl       -5.0916   11.3218   11.3833  Cl    
24   C        -2.7315    5.2351   14.2511  C     
25   H        -3.3851    1.4148   16.7502  H     
26   H        -1.9948    3.0724   15.7297  H     
27   H        -5.4326    5.0472   14.2862  H     
28   H        -6.8141    3.4030   15.2779  H     
29   H        -8.4706    1.0221   17.4879  H     
30   H        -7.9958    2.5795   17.1037  H     
31   H        -3.2414    4.4129   12.2810  H     
32   H        -1.9309    5.5690   12.2383  H     
33   H        -4.5568    6.1095   11.7414  H     
34   H        -2.0554    8.6695   16.1356  H     
35   H        -0.3378    8.9662   16.4624  H     
36   H        -0.8017    7.7488   15.2626  H     
37   H        -2.9774    6.1701   14.7490  H     
38   H        -1.6716    5.0485   14.4569  H     
@<TRIPOS>BOND
     1    1    2 1
     2    1    6 2
     3    1    7 1
     4    2    3 2
     5    3    4 1
     6    4    5 2
     7    4   24 1
     8    5    6 1
     9    7    8 2
    10    7    9 2
    11    7   10 am
    12   11   12 1
    13   11   24 1
    14   12   15 1
    15   13   14 1
    16   13   18 2
    17   13   19 1
    18   14   15 2
    19   15   16 1
    20   16   17 2
    21   16   21 1
    22   17   18 1
    23   17   23 1
    24   19   20 1
    25   21   22 3
    26    2   25 1
    27    3   26 1
    28    5   27 1
    29    6   28 1
    30   10   29 1
    31   10   30 1
    32   11   31 1
    33   11   32 1
    34   12   33 1
    35   20   34 1
    36   20   35 1
    37   20   36 1
    38   24   37 1
    39   24   38 1
@<TRIPOS>PROPERTY_DATA
  Total_Score	| 5.2453
  Crash		| -1.5125
  Polar		| 2.5199
  FragIndex	| 1
  FragRMSD	| 1.018

