@<TRIPOS>MOLECULE
BindingDB_50329770
 36 37 0 0 0
SMALL
NO_CHARGES


@<TRIPOS>ATOM
1    N        -3.4857   10.2845   12.1514  N     
2    C        -2.6543    9.6695   13.0165  C     
3    N        -2.8877    8.3815   13.3410  N     
4    C        -3.9241    7.6638   12.8254  C     
5    C        -4.8144    8.2746   11.8883  C     
6    C        -4.5475    9.6453   11.5969  C     
7    N        -4.0768    6.3879   13.2601  N     
8    C        -4.0401    4.5815   14.8293  C     
9    C        -5.4463    4.6277   14.9732  C     
10   C        -6.1476    3.5622   15.5618  C     
11   C        -5.4500    2.4345   16.0333  C     
12   C        -4.0513    2.3688   15.8771  C     
13   C        -3.3538    3.4298   15.2721  C     
14   S        -6.2953    1.1814   16.8874  S     
15   O        -6.1497   -0.1562   16.0452  O     
16   O        -5.5923    0.8646   18.2770  O     
17   N        -7.9521    1.3935   17.0478  N     
18   N        -5.8690    7.6207   11.2997  N     
19   O        -6.6584    8.1791   10.4236  O     
20   O        -6.1625    6.4744   11.5134  O     
21   O        -5.2931   10.3867   10.7204  O     
22   C        -6.2216   11.2740   11.3685  C     
23   C        -3.3145    5.7566   14.2901  C     
24   H        -1.8647   10.1719   13.4228  H     
25   H        -4.8140    5.8771   12.9050  H     
26   H        -5.9705    5.4526   14.6708  H     
27   H        -7.1629    3.6348   15.6700  H     
28   H        -3.5266    1.5623   16.2254  H     
29   H        -2.3365    3.3695   15.1895  H     
30   H        -8.5508    0.8391   16.5268  H     
31   H        -8.2885    2.2044   17.4538  H     
32   H        -6.9385   10.7236   11.9833  H     
33   H        -6.7770   11.8068   10.5967  H     
34   H        -5.7025   12.0115   11.9859  H     
35   H        -2.3347    5.4842   13.8887  H     
36   H        -3.1615    6.4553   15.1175  H     
@<TRIPOS>BOND
     1    1    2 2
     2    1    6 1
     3    2    3 1
     4    3    4 2
     5    4    5 1
     6    4    7 1
     7    5    6 2
     8    5   18 am
     9    6   21 1
    10    7   23 1
    11    8    9 2
    12    8   13 1
    13    8   23 1
    14    9   10 1
    15   10   11 2
    16   11   12 1
    17   11   14 1
    18   12   13 2
    19   14   15 2
    20   14   16 2
    21   14   17 am
    22   18   19 1
    23   18   20 2
    24   21   22 1
    25    2   24 1
    26    7   25 1
    27    9   26 1
    28   10   27 1
    29   12   28 1
    30   13   29 1
    31   17   30 1
    32   17   31 1
    33   22   32 1
    34   22   33 1
    35   22   34 1
    36   23   35 1
    37   23   36 1
@<TRIPOS>PROPERTY_DATA
  Total_Score	| 6.3070
  Crash		| -1.0576
  Polar		| 3.9219
  FragIndex	| 1
  FragRMSD	| 1.033

