@<TRIPOS>MOLECULE
BindingDB_50329763
 33 34 0 0 0
SMALL
NO_CHARGES


@<TRIPOS>ATOM
1    N        -3.4723    9.7016   12.6985  N     
2    C        -2.4276    9.2719   13.4396  C     
3    N        -2.4077    7.9751   13.8164  N     
4    C        -3.3767    7.0794   13.5079  C     
5    C        -4.4621    7.4946   12.6780  C     
6    C        -4.4782    8.8754   12.3118  C     
7    N        -3.1087    5.8921   14.1093  N     
8    C        -3.8752    4.8339   14.4987  C     
9    C        -5.2766    4.8818   14.6843  C     
10   C        -5.9649    3.7961   15.2612  C     
11   C        -5.2583    2.6614   15.7086  C     
12   C        -3.8592    2.6157   15.5481  C     
13   C        -3.1794    3.6931   14.9522  C     
14   S        -6.0801    1.3658   16.5317  S     
15   O        -6.0002    0.0137   15.7007  O     
16   O        -5.3132    1.0049   17.8760  O     
17   N        -7.6980    1.5996   16.9176  N     
18   C        -5.3516    6.5577   12.1611  C     
19   O        -6.5695    6.6713   12.1488  O     
20   Cl       -5.6538    9.6376   11.3567  Cl    
21   S        -1.1806   10.3982   13.9042  S     
22   C        -0.5786    9.6168   15.4228  C     
23   H        -2.1960    5.8288   14.4360  H     
24   H        -5.8013    5.7253   14.4499  H     
25   H        -6.9780    3.8623   15.3898  H     
26   H        -3.3230    1.8126   15.8875  H     
27   H        -2.1597    3.6500   14.8765  H     
28   H        -8.3903    1.2386   16.3407  H     
29   H        -7.9359    1.9877   17.7736  H     
30   H        -4.9947    5.7602   11.6948  H     
31   H        -1.4006    9.4550   16.1206  H     
32   H         0.1578   10.2695   15.8906  H     
33   H        -0.1058    8.6629   15.1874  H     
@<TRIPOS>BOND
     1    1    2 2
     2    1    6 1
     3    2    3 1
     4    2   21 1
     5    3    4 2
     6    4    5 1
     7    4    7 1
     8    5    6 2
     9    5   18 1
    10    6   20 1
    11    7    8 1
    12    8    9 2
    13    8   13 1
    14    9   10 1
    15   10   11 2
    16   11   12 1
    17   11   14 1
    18   12   13 2
    19   14   15 2
    20   14   16 2
    21   14   17 am
    22   18   19 2
    23   21   22 1
    24    7   23 1
    25    9   24 1
    26   10   25 1
    27   12   26 1
    28   13   27 1
    29   17   28 1
    30   17   29 1
    31   18   30 1
    32   22   31 1
    33   22   32 1
    34   22   33 1
@<TRIPOS>PROPERTY_DATA
  Total_Score	| 6.4776
  Crash		| -0.7762
  Polar		| 4.2882
  FragIndex	| 1
  FragRMSD	| 0.965

