@<TRIPOS>MOLECULE
BindingDB_50295533
 52 56 0 0 0
SMALL
NO_CHARGES


@<TRIPOS>ATOM
1    C        23.7097   27.4261  116.0141  C     
2    C        24.1213   26.5766  114.7733  C     
3    C        24.0144   25.0536  115.0588  C     
4    N        24.7946   24.7017  116.2404  N     
5    C        24.3969   25.4035  117.4565  C     
6    C        24.5082   26.9411  117.2642  C     
7    C        25.8061   23.8096  116.2352  C     
8    O        26.4007   23.5632  117.2780  O     
9    N        26.2239   23.1708  115.1437  N     
10   C        22.2428   27.4120  116.2437  C     
11   O        21.6165   26.9302  117.3408  O     
12   N        20.3338   27.0865  117.1837  N     
13   C        20.1247   27.6745  115.9952  C     
14   N        21.3111   27.8743  115.3968  N     
15   C        18.8642   28.0007  115.4640  C     
16   C        17.6623   27.7476  116.1646  C     
17   C        16.4323   28.0664  115.5615  C     
18   C        16.4068   28.6380  114.2776  C     
19   C        17.6246   28.8919  113.6227  C     
20   N        18.7937   28.5624  114.2266  N     
21   C        27.2332   22.1432  115.0464  C     
22   C        28.6974   22.6744  115.0811  C     
23   C        27.1268   21.0496  116.1509  C     
24   C        28.4002   21.1431  116.8668  C     
25   C        29.2949   22.0080  116.2379  C     
26   C        30.6065   22.1666  116.7304  C     
27   C        30.9865   21.4883  117.9051  C     
28   C        30.0613   20.6571  118.5750  C     
29   C        28.7662   20.4713  118.0510  C     
30   H        23.9789   28.4688  115.8226  H     
31   H        23.5020   26.8362  113.9118  H     
32   H        25.1576   26.8068  114.5117  H     
33   H        22.9647   24.7923  115.2293  H     
34   H        24.3068   24.5261  114.1533  H     
35   H        23.3686   25.1279  117.6934  H     
36   H        24.9838   25.1398  118.3382  H     
37   H        25.5674   27.1967  117.1397  H     
38   H        24.1635   27.4598  118.1665  H     
39   H        25.7891   23.3974  114.3136  H     
40   H        17.6685   27.3306  117.0992  H     
41   H        15.5578   27.8776  116.0577  H     
42   H        15.5169   28.8664  113.8304  H     
43   H        17.6395   29.3218  112.6977  H     
44   H        27.0795   21.6613  114.0754  H     
45   H        29.2477   22.3943  114.1771  H     
46   H        28.7354   23.7593  115.2093  H     
47   H        26.2938   21.2239  116.8339  H     
48   H        27.0211   20.0536  115.7113  H     
49   H        31.2693   22.7686  116.2396  H     
50   H        31.9318   21.6080  118.2772  H     
51   H        30.3366   20.1856  119.4393  H     
52   H        28.0971   19.8674  118.5297  H     
@<TRIPOS>BOND
     1    1    2 1
     2    1    6 1
     3    1   10 1
     4    2    3 1
     5    3    4 1
     6    4    5 1
     7    4    7 1
     8    5    6 1
     9    7    8 2
    10    7    9 am
    11    9   21 1
    12   10   11 1
    13   10   14 2
    14   11   12 1
    15   12   13 2
    16   13   14 1
    17   13   15 1
    18   15   16 2
    19   15   20 1
    20   16   17 1
    21   17   18 2
    22   18   19 1
    23   19   20 2
    24   21   22 1
    25   21   23 1
    26   22   25 1
    27   23   24 1
    28   24   25 2
    29   24   29 1
    30   25   26 1
    31   26   27 2
    32   27   28 1
    33   28   29 2
    34    1   30 1
    35    2   31 1
    36    2   32 1
    37    3   33 1
    38    3   34 1
    39    5   35 1
    40    5   36 1
    41    6   37 1
    42    6   38 1
    43    9   39 1
    44   16   40 1
    45   17   41 1
    46   18   42 1
    47   19   43 1
    48   21   44 1
    49   22   45 1
    50   22   46 1
    51   23   47 1
    52   23   48 1
    53   26   49 1
    54   27   50 1
    55   28   51 1
    56   29   52 1
@<TRIPOS>PROPERTY_DATA
  Total_Score	| 7.6778
  Crash		| -1.5592
  Polar		| 1.9167
  FragIndex	| 1
  FragRMSD	| 1.060

