@<TRIPOS>MOLECULE
BindingDB_50295543
 52 56 0 0 0
SMALL
NO_CHARGES


@<TRIPOS>ATOM
1    C        24.1727   27.1314  117.4663  C     
2    C        23.4628   27.7239  116.2146  C     
3    C        23.9012   26.9464  114.9321  C     
4    C        23.8354   25.3976  115.1164  C     
5    N        24.5352   25.0042  116.3324  N     
6    C        23.9909   25.5959  117.5463  C     
7    C        25.6710   24.2712  116.3454  C     
8    N        26.2398   23.7544  115.2531  N     
9    O        26.2726   24.0943  117.4048  O     
10   C        27.5162   23.0815  115.2242  C     
11   C        27.7112   21.8153  116.0834  C     
12   C        27.4952   21.6833  114.5684  C     
13   C        29.0289   21.5302  116.7258  C     
14   C        29.0381   20.7897  117.9288  C     
15   C        30.2341   20.5177  118.6129  C     
16   C        31.4547   20.9886  118.1009  C     
17   C        31.4744   21.7089  116.8955  C     
18   C        30.2705   21.9841  116.2104  C     
19   C        21.9988   27.8264  116.4207  C     
20   N        21.0119   27.6728  115.5307  N     
21   C        19.8737   27.9594  116.1910  C     
22   N        20.1685   28.2697  117.4668  N     
23   O        21.4539   28.1838  117.6161  O     
24   C        18.6028   28.0693  115.6320  C     
25   C        17.9532   29.3342  115.5607  C     
26   C        16.7055   29.4622  114.9364  C     
27   C        16.1005   28.3221  114.3689  C     
28   N        16.7344   27.1148  114.4535  N     
29   C        17.9442   26.9624  115.0467  C     
30   H        25.2407   27.3562  117.4066  H     
31   H        23.8067   27.5939  118.3858  H     
32   H        23.8002   28.7565  116.0958  H     
33   H        23.2908   27.2504  114.0822  H     
34   H        24.9327   27.2124  114.6950  H     
35   H        22.7881   25.0840  115.1912  H     
36   H        24.2256   24.9247  114.2078  H     
37   H        24.4595   25.2391  118.4631  H     
38   H        22.9303   25.3479  117.6320  H     
39   H        25.8067   23.8882  114.3970  H     
40   H        28.4034   23.6546  114.9255  H     
41   H        26.8148   21.5369  116.6537  H     
42   H        26.5133   21.2912  114.2774  H     
43   H        28.3777   21.4000  113.9748  H     
44   H        28.1555   20.4435  118.3280  H     
45   H        30.2128   19.9825  119.4832  H     
46   H        32.3254   20.8029  118.6098  H     
47   H        32.3683   22.0368  116.5215  H     
48   H        30.3093   22.5258  115.3430  H     
49   H        18.4029   30.1676  115.9473  H     
50   H        16.2393   30.3776  114.8740  H     
51   H        15.2093   28.3973  113.8995  H     
52   H        18.3696   26.0304  115.0585  H     
@<TRIPOS>BOND
     1    1    2 1
     2    1    6 1
     3    2    3 1
     4    2   19 1
     5    3    4 1
     6    4    5 1
     7    5    6 1
     8    5    7 1
     9    7    8 am
    10    7    9 2
    11    8   10 1
    12   10   11 1
    13   10   12 1
    14   11   12 1
    15   11   13 1
    16   13   14 2
    17   13   18 1
    18   14   15 1
    19   15   16 2
    20   16   17 1
    21   17   18 2
    22   19   20 2
    23   19   23 1
    24   20   21 1
    25   21   22 2
    26   21   24 1
    27   22   23 1
    28   24   25 2
    29   24   29 1
    30   25   26 1
    31   26   27 2
    32   27   28 1
    33   28   29 2
    34    1   30 1
    35    1   31 1
    36    2   32 1
    37    3   33 1
    38    3   34 1
    39    4   35 1
    40    4   36 1
    41    6   37 1
    42    6   38 1
    43    8   39 1
    44   10   40 1
    45   11   41 1
    46   12   42 1
    47   12   43 1
    48   14   44 1
    49   15   45 1
    50   16   46 1
    51   17   47 1
    52   18   48 1
    53   25   49 1
    54   26   50 1
    55   27   51 1
    56   29   52 1
@<TRIPOS>PROPERTY_DATA
  Total_Score	| 8.5199
  Crash		| -1.1244
  Polar		| 1.8726
  FragIndex	| 1
  FragRMSD	| 1.151

