@<TRIPOS>MOLECULE
BindingDB_50295538
 46 49 0 0 0
SMALL
NO_CHARGES


@<TRIPOS>ATOM
1    C        23.7572   27.3678  117.6063  C     
2    C        23.2298   28.0299  116.2992  C     
3    C        24.0450   27.4870  115.0807  C     
4    C        24.1171   25.9341  115.0553  C     
5    N        24.5904   25.4110  116.3332  N     
6    C        23.8086   25.8219  117.4937  C     
7    C        25.6786   24.6247  116.4534  C     
8    N        26.3541   24.1532  115.4073  N     
9    O        26.0751   24.2911  117.5638  O     
10   C        27.5471   23.3671  115.4449  C     
11   C        27.6189   22.0058  116.1628  C     
12   C        27.3995   22.0558  114.6485  C     
13   C        28.9202   21.6672  116.8163  C     
14   C        30.1824   21.8606  116.2029  C     
15   C        31.3732   21.5223  116.8735  C     
16   C        31.3218   20.9817  118.1694  C     
17   C        30.0788   20.7841  118.7940  C     
18   C        28.8904   21.1311  118.1278  C     
19   C        21.7597   27.8550  116.1642  C     
20   O        20.8525   28.3562  117.0319  O     
21   N        19.6608   28.0082  116.6272  N     
22   C        19.8068   27.2810  115.5100  C     
23   N        21.1038   27.1814  115.2133  N     
24   C        18.7181   26.6529  114.7464  C     
25   H        24.7704   27.7325  117.8108  H     
26   H        23.1318   27.6505  118.4582  H     
27   H        23.4126   29.1030  116.3633  H     
28   H        23.6128   27.8547  114.1440  H     
29   H        25.0624   27.8738  115.1369  H     
30   H        23.1262   25.5205  114.8494  H     
31   H        24.7370   25.6677  114.2029  H     
32   H        24.1845   25.4331  118.4436  H     
33   H        22.7910   25.4342  117.3879  H     
34   H        26.0367   24.3822  114.5302  H     
35   H        28.4701   23.8805  115.1609  H     
36   H        26.7028   21.7504  116.7080  H     
37   H        26.3888   21.7463  114.3526  H     
38   H        28.2448   21.6995  114.0545  H     
39   H        30.2568   22.2618  115.2667  H     
40   H        32.2783   21.6730  116.4210  H     
41   H        32.1832   20.7396  118.6588  H     
42   H        30.0405   20.3917  119.7381  H     
43   H        27.9995   20.9893  118.6094  H     
44   H        18.1400   26.0009  115.3998  H     
45   H        19.1314   26.0577  113.9287  H     
46   H        18.0645   27.4202  114.3277  H     
@<TRIPOS>BOND
     1    1    2 1
     2    1    6 1
     3    2    3 1
     4    2   19 1
     5    3    4 1
     6    4    5 1
     7    5    6 1
     8    5    7 1
     9    7    8 am
    10    7    9 2
    11    8   10 1
    12   10   11 1
    13   10   12 1
    14   11   12 1
    15   11   13 1
    16   13   14 2
    17   13   18 1
    18   14   15 1
    19   15   16 2
    20   16   17 1
    21   17   18 2
    22   19   20 1
    23   19   23 2
    24   20   21 1
    25   21   22 2
    26   22   23 1
    27   22   24 1
    28    1   25 1
    29    1   26 1
    30    2   27 1
    31    3   28 1
    32    3   29 1
    33    4   30 1
    34    4   31 1
    35    6   32 1
    36    6   33 1
    37    8   34 1
    38   10   35 1
    39   11   36 1
    40   12   37 1
    41   12   38 1
    42   14   39 1
    43   15   40 1
    44   16   41 1
    45   17   42 1
    46   18   43 1
    47   24   44 1
    48   24   45 1
    49   24   46 1
@<TRIPOS>PROPERTY_DATA
  Total_Score	| 7.0265
  Crash		| -0.9459
  Polar		| 1.8058
  FragIndex	| 1
  FragRMSD	| 1.136

