@<TRIPOS>MOLECULE
BindingDB_50295546
 51 55 0 0 0
SMALL
NO_CHARGES


@<TRIPOS>ATOM
1    C        24.1992   27.2488  117.4851  C     
2    C        23.4978   27.8221  116.2032  C     
3    C        24.0412   27.0571  114.9507  C     
4    C        23.9575   25.5096  115.1155  C     
5    N        24.6315   25.1122  116.3472  N     
6    C        24.0726   25.6983  117.5560  C     
7    C        25.7365   24.3294  116.3840  C     
8    N        26.3163   23.8241  115.2936  N     
9    O        26.2775   24.0743  117.4566  O     
10   C        27.5895   23.1464  115.2669  C     
11   C        27.7470   21.8444  116.0990  C     
12   C        27.5521   21.7616  114.5776  C     
13   C        29.0673   21.6456  116.7707  C     
14   C        30.3099   21.8930  116.1337  C     
15   C        31.5236   21.6426  116.8129  C     
16   C        31.5056   21.1535  118.1357  C     
17   C        30.2732   20.8992  118.7756  C     
18   C        29.0683   21.1231  118.0920  C     
19   C        22.0200   27.7894  116.3377  C     
20   N        21.1347   27.9519  115.3311  N     
21   C        19.9313   27.7862  115.9049  C     
22   N        20.0677   27.5279  117.2253  N     
23   O        21.3388   27.5184  117.4843  O     
24   C        18.6941   27.8713  115.2500  C     
25   N        18.4367   28.9028  114.3780  N     
26   C        17.2526   28.9917  113.7407  C     
27   C        16.2363   28.0389  113.9725  C     
28   C        16.5250   26.9996  114.8839  C     
29   N        17.7243   26.9182  115.4861  N     
30   H        25.2645   27.5193  117.4606  H     
31   H        23.7658   27.6980  118.3953  H     
32   H        23.7795   28.8746  116.1065  H     
33   H        23.4858   27.3762  114.0595  H     
34   H        25.0985   27.3338  114.8090  H     
35   H        22.9118   25.1995  115.1551  H     
36   H        24.3734   25.0631  114.2085  H     
37   H        24.5586   25.3666  118.4805  H     
38   H        23.0192   25.4063  117.6384  H     
39   H        25.9167   24.0061  114.4278  H     
40   H        28.5190   23.7081  115.0336  H     
41   H        26.8427   21.6013  116.6663  H     
42   H        26.5831   21.3772  114.2601  H     
43   H        28.4173   21.5504  113.9533  H     
44   H        30.3406   22.2916  115.1890  H     
45   H        32.4175   21.8115  116.3470  H     
46   H        32.3848   20.9736  118.6335  H     
47   H        30.2596   20.5480  119.7339  H     
48   H        28.1787   20.9263  118.5747  H     
49   H        17.1024   29.7422  113.0730  H     
50   H        15.3498   28.0977  113.4977  H     
51   H        15.8217   26.2858  115.0843  H     
@<TRIPOS>BOND
     1    1    2 1
     2    1    6 1
     3    2    3 1
     4    2   19 1
     5    3    4 1
     6    4    5 1
     7    5    6 1
     8    5    7 1
     9    7    8 am
    10    7    9 2
    11    8   10 1
    12   10   11 1
    13   10   12 1
    14   11   12 1
    15   11   13 1
    16   13   14 2
    17   13   18 1
    18   14   15 1
    19   15   16 2
    20   16   17 1
    21   17   18 2
    22   19   20 2
    23   19   23 1
    24   20   21 1
    25   21   22 2
    26   21   24 1
    27   22   23 1
    28   24   25 2
    29   24   29 1
    30   25   26 1
    31   26   27 2
    32   27   28 1
    33   28   29 2
    34    1   30 1
    35    1   31 1
    36    2   32 1
    37    3   33 1
    38    3   34 1
    39    4   35 1
    40    4   36 1
    41    6   37 1
    42    6   38 1
    43    8   39 1
    44   10   40 1
    45   11   41 1
    46   12   42 1
    47   12   43 1
    48   14   44 1
    49   15   45 1
    50   16   46 1
    51   17   47 1
    52   18   48 1
    53   26   49 1
    54   27   50 1
    55   28   51 1
@<TRIPOS>PROPERTY_DATA
  Total_Score	| 8.0470
  Crash		| -1.7005
  Polar		| 1.8532
  FragIndex	| 1
  FragRMSD	| 1.064

