@<TRIPOS>MOLECULE
BindingDB_50295544
 52 56 0 0 0
SMALL
NO_CHARGES


@<TRIPOS>ATOM
1    C        23.5213   27.1502  117.6052  C     
2    C        23.1085   27.9938  116.3599  C     
3    C        24.1025   27.7043  115.1945  C     
4    C        24.2717   26.1851  114.9243  C     
5    N        24.6202   25.4846  116.1540  N     
6    C        23.6678   25.6511  117.2451  C     
7    C        25.7333   24.7423  116.2994  C     
8    N        26.5537   24.4317  115.2997  N     
9    O        26.0088   24.2836  117.4037  O     
10   C        27.7309   23.6246  115.3827  C     
11   C        27.7220   22.2515  116.0927  C     
12   C        27.6333   22.3201  114.5628  C     
13   C        28.9402   21.8472  116.8479  C     
14   C        30.2609   22.0322  116.3660  C     
15   C        31.3706   21.6226  117.1268  C     
16   C        31.1775   21.0168  118.3795  C     
17   C        29.8761   20.8196  118.8741  C     
18   C        28.7677   21.2362  118.1151  C     
19   C        21.6915   27.7853  115.9657  C     
20   N        20.6578   27.6640  116.8097  N     
21   C        19.5723   27.5078  116.0437  C     
22   N        19.9279   27.5451  114.7509  N     
23   O        21.2188   27.7149  114.6985  O     
24   C        18.2734   27.3080  116.5263  C     
25   C        17.8463   26.0173  116.9120  C     
26   C        16.5327   25.8410  117.3821  C     
27   N        15.6978   26.9085  117.4714  N     
28   C        16.0775   28.1647  117.1183  C     
29   C        17.3765   28.3948  116.6330  C     
30   H        24.4794   27.5155  117.9894  H     
31   H        22.7896   27.2571  118.4101  H     
32   H        23.2024   29.0484  116.6307  H     
33   H        23.7930   28.2142  114.2777  H     
34   H        25.0812   28.0988  115.4659  H     
35   H        23.3384   25.7732  114.5282  H     
36   H        25.0196   26.0924  114.1377  H     
37   H        23.9345   25.1196  118.1627  H     
38   H        22.7022   25.2430  116.9340  H     
39   H        26.3680   24.7985  114.4294  H     
40   H        28.6765   24.1276  115.1782  H     
41   H        26.7605   22.0099  116.5541  H     
42   H        26.6504   22.0452  114.1740  H     
43   H        28.5211   21.9802  114.0235  H     
44   H        30.4352   22.4691  115.4587  H     
45   H        32.3188   21.7659  116.7680  H     
46   H        31.9846   20.7277  118.9338  H     
47   H        29.7346   20.3761  119.7857  H     
48   H        27.8294   21.0839  118.4986  H     
49   H        18.4720   25.2098  116.8426  H     
50   H        16.2003   24.9139  117.6557  H     
51   H        15.4137   28.9353  117.2093  H     
52   H        17.6632   29.3421  116.3689  H     
@<TRIPOS>BOND
     1    1    2 1
     2    1    6 1
     3    2    3 1
     4    2   19 1
     5    3    4 1
     6    4    5 1
     7    5    6 1
     8    5    7 1
     9    7    8 am
    10    7    9 2
    11    8   10 1
    12   10   11 1
    13   10   12 1
    14   11   12 1
    15   11   13 1
    16   13   14 2
    17   13   18 1
    18   14   15 1
    19   15   16 2
    20   16   17 1
    21   17   18 2
    22   19   20 2
    23   19   23 1
    24   20   21 1
    25   21   22 2
    26   21   24 1
    27   22   23 1
    28   24   25 2
    29   24   29 1
    30   25   26 1
    31   26   27 2
    32   27   28 1
    33   28   29 2
    34    1   30 1
    35    1   31 1
    36    2   32 1
    37    3   33 1
    38    3   34 1
    39    4   35 1
    40    4   36 1
    41    6   37 1
    42    6   38 1
    43    8   39 1
    44   10   40 1
    45   11   41 1
    46   12   42 1
    47   12   43 1
    48   14   44 1
    49   15   45 1
    50   16   46 1
    51   17   47 1
    52   18   48 1
    53   25   49 1
    54   26   50 1
    55   28   51 1
    56   29   52 1
@<TRIPOS>PROPERTY_DATA
  Total_Score	| 7.3706
  Crash		| -1.3672
  Polar		| 2.5114
  FragIndex	| 1
  FragRMSD	| 0.722

