@<TRIPOS>MOLECULE
BindingDB_50295548
 58 63 0 0 0
SMALL
NO_CHARGES


@<TRIPOS>ATOM
1    C        24.2427   27.3956  115.9016  C     
2    C        22.9080   27.1686  116.6676  C     
3    C        22.9797   25.8283  117.4574  C     
4    C        23.3815   24.6602  116.5365  C     
5    N        24.6480   24.9537  115.8753  N     
6    C        24.6363   26.1502  115.0499  C     
7    C        25.7530   24.2155  116.0681  C     
8    N        26.7507   24.1851  115.1920  N     
9    O        25.8319   23.4141  117.0109  O     
10   C        27.9253   23.3864  115.2586  C     
11   C        27.9989   22.0363  116.0311  C     
12   C        27.7655   22.0456  114.5076  C     
13   C        29.3084   21.8643  116.7346  C     
14   C        30.5863   22.0548  116.1466  C     
15   C        31.7668   21.8795  116.8968  C     
16   C        31.6959   21.5243  118.2507  C     
17   C        30.4412   21.3215  118.8533  C     
18   C        29.2602   21.4891  118.1025  C     
19   C        22.6000   28.2727  117.6021  C     
20   N        21.4825   29.0126  117.6131  N     
21   C        21.6016   29.8656  118.6426  C     
22   N        22.7728   29.6308  119.2565  N     
23   O        23.3865   28.6651  118.6317  O     
24   C        20.6790   30.8749  118.9739  C     
25   C        20.9043   31.7771  120.0342  C     
26   C        19.9826   32.8074  120.2900  C     
27   N        19.5581   31.0371  118.2111  N     
28   C        18.6478   32.0283  118.4103  C     
29   C        18.8475   32.9591  119.4675  C     
30   C        17.9192   33.9924  119.6328  C     
31   C        16.8599   34.0896  118.8077  C     
32   C        16.6634   33.1862  117.7989  C     
33   C        17.5295   32.1714  117.5866  C     
34   H        24.1534   28.2788  115.2614  H     
35   H        25.0406   27.5862  116.6256  H     
36   H        22.0945   27.1012  115.9351  H     
37   H        23.7234   25.9138  118.2650  H     
38   H        22.0132   25.6130  117.9180  H     
39   H        23.3984   23.7356  117.1248  H     
40   H        22.6073   24.5240  115.7742  H     
41   H        23.9055   26.0346  114.2418  H     
42   H        25.5977   26.3692  114.5896  H     
43   H        26.6615   24.7222  114.3849  H     
44   H        28.8619   23.8807  114.9876  H     
45   H        27.0589   21.9020  116.6030  H     
46   H        26.7532   21.7059  114.2624  H     
47   H        28.5839   21.7043  113.8772  H     
48   H        30.6759   22.3323  115.1727  H     
49   H        32.6833   22.0215  116.4661  H     
50   H        32.5494   21.3999  118.8008  H     
51   H        30.3816   21.0628  119.8376  H     
52   H        28.3579   21.3407  118.5611  H     
53   H        21.7467   31.7022  120.6169  H     
54   H        20.1533   33.4500  121.0703  H     
55   H        18.0463   34.6646  120.3501  H     
56   H        16.2086   34.8321  118.9260  H     
57   H        15.8687   33.2835  117.2019  H     
58   H        17.3708   31.5319  116.8423  H     
@<TRIPOS>BOND
     1    1    2 1
     2    1    6 1
     3    2    3 1
     4    2   19 1
     5    3    4 1
     6    4    5 1
     7    5    6 1
     8    5    7 1
     9    7    8 am
    10    7    9 2
    11    8   10 1
    12   10   11 1
    13   10   12 1
    14   11   12 1
    15   11   13 1
    16   13   14 2
    17   13   18 1
    18   14   15 1
    19   15   16 2
    20   16   17 1
    21   17   18 2
    22   19   20 2
    23   19   23 1
    24   20   21 1
    25   21   22 2
    26   21   24 1
    27   22   23 1
    28   24   25 2
    29   24   27 1
    30   25   26 1
    31   26   29 2
    32   27   28 2
    33   28   29 1
    34   28   33 1
    35   29   30 1
    36   30   31 2
    37   31   32 1
    38   32   33 2
    39    1   34 1
    40    1   35 1
    41    2   36 1
    42    3   37 1
    43    3   38 1
    44    4   39 1
    45    4   40 1
    46    6   41 1
    47    6   42 1
    48    8   43 1
    49   10   44 1
    50   11   45 1
    51   12   46 1
    52   12   47 1
    53   14   48 1
    54   15   49 1
    55   16   50 1
    56   17   51 1
    57   18   52 1
    58   25   53 1
    59   26   54 1
    60   30   55 1
    61   31   56 1
    62   32   57 1
    63   33   58 1
@<TRIPOS>PROPERTY_DATA
  Total_Score	| 7.7978
  Crash		| -2.2272
  Polar		| 2.3852
  FragIndex	| 1
  FragRMSD	| 1.127

