@<TRIPOS>MOLECULE
BindingDB_50295542
 55 59 0 0 0
SMALL
NO_CHARGES


@<TRIPOS>ATOM
1    C        23.6183   27.1503  117.5558  C     
2    C        23.2175   27.9460  116.2759  C     
3    C        24.1530   27.5357  115.0958  C     
4    C        24.2434   25.9958  114.9178  C     
5    N        24.6162   25.3643  116.1781  N     
6    C        23.7003   25.6279  117.2812  C     
7    C        25.7209   24.6123  116.3409  C     
8    N        26.5333   24.2714  115.3460  N     
9    O        26.0105   24.1861  117.4530  O     
10   C        27.7133   23.4754  115.4537  C     
11   C        27.7557   22.0975  116.1548  C     
12   C        27.6244   22.1808  114.6283  C     
13   C        29.0209   21.8578  116.9106  C     
14   C        28.9519   21.6411  118.3094  C     
15   C        30.1186   21.4044  119.0626  C     
16   C        31.3744   21.3886  118.4314  C     
17   C        31.4615   21.6136  117.0479  C     
18   C        30.2958   21.8522  116.2959  C     
19   C        21.7721   27.8075  115.9614  C     
20   N        20.7694   28.0871  116.8072  N     
21   C        19.6390   27.8419  116.1324  C     
22   N        19.9389   27.4241  114.8947  N     
23   O        21.2367   27.4033  114.7853  O     
24   C        18.3400   27.9911  116.6336  C     
25   C        17.6965   26.9096  117.2697  C     
26   C        16.3917   27.0587  117.7736  C     
27   C        15.6988   28.2891  117.6542  C     
28   C        16.3551   29.3651  117.0062  C     
29   C        17.6597   29.2192  116.4993  C     
30   C        14.3869   28.4411  118.1736  C     
31   O        13.7164   27.4126  118.7439  O     
32   O        13.7422   29.6307  118.1518  O     
33   H        24.6014   27.4928  117.8981  H     
34   H        22.9106   27.3332  118.3700  H     
35   H        23.3931   29.0079  116.4806  H     
36   H        23.8263   28.0052  114.1625  H     
37   H        25.1607   27.9031  115.3055  H     
38   H        23.2778   25.6028  114.5859  H     
39   H        24.9443   25.8171  114.1065  H     
40   H        23.9794   25.1430  118.2198  H     
41   H        22.7094   25.2416  117.0243  H     
42   H        26.3544   24.6302  114.4701  H     
43   H        28.6502   23.9927  115.2550  H     
44   H        26.8178   21.8447  116.6574  H     
45   H        26.6364   21.9029  114.2484  H     
46   H        28.5053   21.8894  114.0590  H     
47   H        28.0475   21.6563  118.7923  H     
48   H        30.0533   21.2440  120.0747  H     
49   H        32.2260   21.2308  118.9789  H     
50   H        32.3746   21.6179  116.5901  H     
51   H        30.3922   22.0383  115.2948  H     
52   H        18.1746   26.0097  117.3694  H     
53   H        15.9580   26.2572  118.2361  H     
54   H        15.8906   30.2687  116.8940  H     
55   H        18.1115   30.0121  116.0346  H     
@<TRIPOS>BOND
     1    1    2 1
     2    1    6 1
     3    2    3 1
     4    2   19 1
     5    3    4 1
     6    4    5 1
     7    5    6 1
     8    5    7 1
     9    7    8 am
    10    7    9 2
    11    8   10 1
    12   10   11 1
    13   10   12 1
    14   11   12 1
    15   11   13 1
    16   13   14 2
    17   13   18 1
    18   14   15 1
    19   15   16 2
    20   16   17 1
    21   17   18 2
    22   19   20 2
    23   19   23 1
    24   20   21 1
    25   21   22 2
    26   21   24 1
    27   22   23 1
    28   24   25 2
    29   24   29 1
    30   25   26 1
    31   26   27 2
    32   27   28 1
    33   27   30 1
    34   28   29 2
    35   30   31 2
    36   30   32 1
    37    1   33 1
    38    1   34 1
    39    2   35 1
    40    3   36 1
    41    3   37 1
    42    4   38 1
    43    4   39 1
    44    6   40 1
    45    6   41 1
    46    8   42 1
    47   10   43 1
    48   11   44 1
    49   12   45 1
    50   12   46 1
    51   14   47 1
    52   15   48 1
    53   16   49 1
    54   17   50 1
    55   18   51 1
    56   25   52 1
    57   26   53 1
    58   28   54 1
    59   29   55 1
@<TRIPOS>PROPERTY_DATA
  Total_Score	| 7.3009
  Crash		| -1.1852
  Polar		| 2.2968
  FragIndex	| 1
  FragRMSD	| 0.662

