@<TRIPOS>MOLECULE
BindingDB_50295547
 58 63 0 0 0
SMALL
NO_CHARGES


@<TRIPOS>ATOM
1    C        23.6022   27.3297  117.4875  C     
2    C        23.1544   28.0895  116.2007  C     
3    C        24.0890   27.6918  115.0170  C     
4    C        24.2458   26.1486  114.8732  C     
5    N        24.6124   25.5173  116.1361  N     
6    C        23.6983   25.8023  117.2388  C     
7    C        25.7013   24.7405  116.3017  C     
8    N        26.5493   24.4359  115.3228  N     
9    O        25.9483   24.2662  117.4041  O     
10   C        27.7481   23.6581  115.4396  C     
11   C        27.7758   22.2726  116.1255  C     
12   C        27.6964   22.3709  114.5941  C     
13   C        29.0068   21.9405  116.9053  C     
14   C        30.3095   21.9099  116.3457  C     
15   C        31.4312   21.5895  117.1387  C     
16   C        31.2685   21.2896  118.5037  C     
17   C        29.9829   21.2982  119.0696  C     
18   C        28.8661   21.6218  118.2772  C     
19   C        21.7207   27.8740  115.8801  C     
20   N        20.7197   27.8337  116.7712  N     
21   C        19.6177   27.5436  116.0662  C     
22   N        19.9320   27.4240  114.7697  N     
23   O        21.2111   27.6287  114.6483  O     
24   C        18.3471   27.2876  116.6003  C     
25   C        15.8759   26.4722  117.6345  C     
26   C        16.8991   25.5484  117.3704  C     
27   N        18.0766   25.9837  116.8697  N     
28   C        16.0985   27.8418  117.3674  C     
29   C        17.3563   28.2729  116.8459  C     
30   C        17.5567   29.6522  116.5877  C     
31   C        16.5375   30.5824  116.8420  C     
32   C        15.2994   30.1555  117.3529  C     
33   C        15.0822   28.7918  117.6150  C     
34   H        24.5864   27.6935  117.7926  H     
35   H        22.9117   27.5303  118.3124  H     
36   H        23.2717   29.1607  116.3890  H     
37   H        23.7149   28.1063  114.0769  H     
38   H        25.0779   28.1213  115.1821  H     
39   H        23.2972   25.7204  114.5349  H     
40   H        24.9622   25.9769  114.0698  H     
41   H        23.9729   25.3274  118.1859  H     
42   H        22.7058   25.4196  116.9839  H     
43   H        26.3857   24.8131  114.4526  H     
44   H        28.6928   24.1820  115.2715  H     
45   H        26.8198   22.0303  116.5980  H     
46   H        26.7277   22.0582  114.1886  H     
47   H        28.6009   22.0838  114.0511  H     
48   H        30.4615   22.1292  115.3600  H     
49   H        32.3727   21.5781  116.7339  H     
50   H        32.0778   21.0693  119.0892  H     
51   H        29.8588   21.0737  120.0588  H     
52   H        27.9433   21.6252  118.7121  H     
53   H        14.9841   26.1436  118.0111  H     
54   H        16.7633   24.5539  117.5556  H     
55   H        18.4454   30.0016  116.2188  H     
56   H        16.6962   31.5727  116.6511  H     
57   H        14.5565   30.8331  117.5293  H     
58   H        14.1722   28.4933  117.9826  H     
@<TRIPOS>BOND
     1    1    2 1
     2    1    6 1
     3    2    3 1
     4    2   19 1
     5    3    4 1
     6    4    5 1
     7    5    6 1
     8    5    7 1
     9    7    8 am
    10    7    9 2
    11    8   10 1
    12   10   11 1
    13   10   12 1
    14   11   12 1
    15   11   13 1
    16   13   14 2
    17   13   18 1
    18   14   15 1
    19   15   16 2
    20   16   17 1
    21   17   18 2
    22   19   20 2
    23   19   23 1
    24   20   21 1
    25   21   22 2
    26   21   24 1
    27   22   23 1
    28   24   27 2
    29   24   29 1
    30   25   26 2
    31   25   28 1
    32   26   27 1
    33   28   29 2
    34   28   33 1
    35   29   30 1
    36   30   31 2
    37   31   32 1
    38   32   33 2
    39    1   34 1
    40    1   35 1
    41    2   36 1
    42    3   37 1
    43    3   38 1
    44    4   39 1
    45    4   40 1
    46    6   41 1
    47    6   42 1
    48    8   43 1
    49   10   44 1
    50   11   45 1
    51   12   46 1
    52   12   47 1
    53   14   48 1
    54   15   49 1
    55   16   50 1
    56   17   51 1
    57   18   52 1
    58   25   53 1
    59   26   54 1
    60   30   55 1
    61   31   56 1
    62   32   57 1
    63   33   58 1
@<TRIPOS>PROPERTY_DATA
  Total_Score	| 8.1585
  Crash		| -1.4513
  Polar		| 2.5955
  FragIndex	| 1
  FragRMSD	| 0.733

