@<TRIPOS>MOLECULE
BindingDB_50336822
 52 55 0 0 0
SMALL
NO_CHARGES


@<TRIPOS>ATOM
1    N        24.4147   25.3275  116.3572  N     
2    C        25.4306   24.4449  116.4397  C     
3    N        25.9241   23.7977  115.3884  N     
4    C        26.9178   22.7722  115.4197  C     
5    C        28.3502   23.1561  115.8512  C     
6    C        28.0338   22.8610  114.3737  C     
7    C        29.2077   22.1800  116.5633  C     
8    C        30.5835   22.0981  116.2528  C     
9    C        31.4232   21.2097  116.9506  C     
10   C        30.8869   20.3645  117.9394  C     
11   C        29.5216   20.4500  118.2673  C     
12   C        28.6913   21.3705  117.6014  C     
13   O        25.9244   24.1796  117.5296  O     
14   C        23.8753   26.0030  117.5325  C     
15   C        23.9680   27.5395  117.3451  C     
16   C        23.2471   28.0113  116.0489  C     
17   C        23.8065   27.2062  114.8373  C     
18   C        23.7567   25.6767  115.1067  C     
19   C        21.7679   27.9258  116.1725  C     
20   N        20.8738   27.7346  115.1946  N     
21   C        19.6647   27.7596  115.7712  C     
22   N        19.8193   27.9648  117.0883  N     
23   O        21.0909   28.0837  117.3351  O     
24   C        18.3781   27.5860  115.0558  C     
25   C        17.8808   26.1256  115.1673  C     
26   C        17.2977   28.6008  115.5081  C     
27   H        25.5499   23.9916  114.5221  H     
28   H        26.5872   21.7493  115.6072  H     
29   H        28.5697   24.2152  115.9969  H     
30   H        28.3684   21.9023  113.9712  H     
31   H        27.9789   23.7244  113.7072  H     
32   H        30.9842   22.6925  115.5249  H     
33   H        32.4227   21.1818  116.7375  H     
34   H        31.4903   19.6974  118.4262  H     
35   H        29.1339   19.8524  118.9999  H     
36   H        27.7069   21.4419  117.8740  H     
37   H        22.8297   25.7162  117.6731  H     
38   H        24.3852   25.7587  118.4677  H     
39   H        23.5593   28.0553  118.2198  H     
40   H        25.0260   27.8045  117.2839  H     
41   H        23.4867   29.0678  115.9000  H     
42   H        23.2460   27.4364  113.9262  H     
43   H        24.8432   27.5026  114.6593  H     
44   H        24.1646   25.1820  114.2274  H     
45   H        22.7144   25.3554  115.1721  H     
46   H        18.5731   27.7793  113.9957  H     
47   H        18.6366   25.4406  114.7783  H     
48   H        16.9726   25.9952  114.5763  H     
49   H        17.6643   25.8582  116.2023  H     
50   H        17.0120   28.4332  116.5481  H     
51   H        16.4069   28.5034  114.8835  H     
52   H        17.6741   29.6207  115.4050  H     
@<TRIPOS>BOND
     1    1    2 1
     2    1   14 1
     3    1   18 1
     4    2    3 am
     5    2   13 2
     6    4    3 1
     7    4    5 1
     8    4    6 1
     9    5    6 1
    10    5    7 1
    11    7    8 2
    12    7   12 1
    13    8    9 1
    14    9   10 2
    15   10   11 1
    16   11   12 2
    17   14   15 1
    18   15   16 1
    19   16   17 1
    20   16   19 1
    21   17   18 1
    22   19   20 2
    23   19   23 1
    24   20   21 1
    25   21   22 2
    26   21   24 1
    27   22   23 1
    28   24   25 1
    29   24   26 1
    30    3   27 1
    31    4   28 1
    32    5   29 1
    33    6   30 1
    34    6   31 1
    35    8   32 1
    36    9   33 1
    37   10   34 1
    38   11   35 1
    39   12   36 1
    40   14   37 1
    41   14   38 1
    42   15   39 1
    43   15   40 1
    44   16   41 1
    45   17   42 1
    46   17   43 1
    47   18   44 1
    48   18   45 1
    49   24   46 1
    50   25   47 1
    51   25   48 1
    52   25   49 1
    53   26   50 1
    54   26   51 1
    55   26   52 1
@<TRIPOS>PROPERTY_DATA
  Total_Score	| 7.9593
  Crash		| -1.3707
  Polar		| 1.6487
  FragIndex	| 1
  FragRMSD	| 1.043

