@<TRIPOS>MOLECULE
BindingDB_50295540
 56 60 0 0 0
SMALL
NO_CHARGES


@<TRIPOS>ATOM
1    C        22.8239   26.5739  117.2084  C     
2    C        22.5930   27.4798  115.9666  C     
3    C        23.3620   26.8937  114.7498  C     
4    C        24.8589   26.6945  115.0923  C     
5    N        25.0379   25.8753  116.2842  N     
6    C        24.3349   26.3578  117.4687  C     
7    C        25.8950   24.8379  116.3459  C     
8    N        26.6744   24.4751  115.3309  N     
9    O        26.0311   24.2164  117.3938  O     
10   C        27.7941   23.5953  115.3994  C     
11   C        27.7639   22.2186  116.1026  C     
12   C        27.5853   22.3112  114.5789  C     
13   C        29.0332   21.8649  116.8092  C     
14   C        30.3172   21.9664  116.2097  C     
15   C        31.4790   21.6231  116.9269  C     
16   C        31.3796   21.1639  118.2545  C     
17   C        30.1177   21.0557  118.8685  C     
18   C        28.9568   21.4067  118.1513  C     
19   C        21.1476   27.6371  115.7041  C     
20   N        20.2649   28.1554  116.5682  N     
21   C        19.0647   28.0817  115.9728  C     
22   N        19.2285   27.5365  114.7557  N     
23   O        20.4890   27.2622  114.5866  O     
24   C        17.8454   28.5369  116.5374  C     
25   C        17.8103   29.8834  116.9741  C     
26   C        16.6448   30.4369  117.5257  C     
27   C        15.4929   29.6528  117.6517  C     
28   C        15.5142   28.3111  117.2420  C     
29   C        16.6792   27.7181  116.6842  C     
30   C        16.6453   26.2680  116.3044  C     
31   F        15.5341   25.5739  116.7263  F     
32   F        16.6707   26.1434  114.9351  F     
33   F        17.7115   25.5888  116.8424  F     
34   H        22.3747   27.0292  118.0967  H     
35   H        22.3504   25.5981  117.0529  H     
36   H        22.9943   28.4762  116.1747  H     
37   H        22.9336   25.9272  114.4667  H     
38   H        23.2738   27.5715  113.8952  H     
39   H        25.3326   26.2899  114.2012  H     
40   H        25.3095   27.6732  115.2702  H     
41   H        24.7857   27.3095  117.7714  H     
42   H        24.4110   25.6903  118.3302  H     
43   H        26.5578   24.9177  114.4810  H     
44   H        28.7656   24.0467  115.1776  H     
45   H        26.8280   22.0630  116.6441  H     
46   H        26.5706   22.0934  114.2446  H     
47   H        28.4186   21.9688  113.9667  H     
48   H        30.4219   22.3134  115.2519  H     
49   H        32.3980   21.7091  116.4813  H     
50   H        32.2254   20.9199  118.7738  H     
51   H        30.0416   20.7261  119.8381  H     
52   H        28.0507   21.3301  118.6248  H     
53   H        18.6331   30.4859  116.8817  H     
54   H        16.6356   31.4117  117.8301  H     
55   H        14.6409   30.0571  118.0476  H     
56   H        14.6548   27.7714  117.3506  H     
@<TRIPOS>BOND
     1    1    2 1
     2    1    6 1
     3    2    3 1
     4    2   19 1
     5    3    4 1
     6    4    5 1
     7    5    6 1
     8    5    7 1
     9    7    8 am
    10    7    9 2
    11    8   10 1
    12   10   11 1
    13   10   12 1
    14   11   12 1
    15   11   13 1
    16   13   14 2
    17   13   18 1
    18   14   15 1
    19   15   16 2
    20   16   17 1
    21   17   18 2
    22   19   20 2
    23   19   23 1
    24   20   21 1
    25   21   22 2
    26   21   24 1
    27   22   23 1
    28   24   25 2
    29   24   29 1
    30   25   26 1
    31   26   27 2
    32   27   28 1
    33   28   29 2
    34   29   30 1
    35   30   31 1
    36   30   32 1
    37   30   33 1
    38    1   34 1
    39    1   35 1
    40    2   36 1
    41    3   37 1
    42    3   38 1
    43    4   39 1
    44    4   40 1
    45    6   41 1
    46    6   42 1
    47    8   43 1
    48   10   44 1
    49   11   45 1
    50   12   46 1
    51   12   47 1
    52   14   48 1
    53   15   49 1
    54   16   50 1
    55   17   51 1
    56   18   52 1
    57   25   53 1
    58   26   54 1
    59   27   55 1
    60   28   56 1
@<TRIPOS>PROPERTY_DATA
  Total_Score	| 8.0687
  Crash		| -1.4834
  Polar		| 2.7961
  FragIndex	| 1
  FragRMSD	| 0.959

