@<TRIPOS>MOLECULE
BindingDB_50295545
 51 55 0 0 0
SMALL
NO_CHARGES


@<TRIPOS>ATOM
1    C        24.0947   27.1572  117.5716  C     
2    C        23.3793   27.7126  116.3025  C     
3    C        23.9943   27.0407  115.0367  C     
4    C        24.0017   25.4886  115.1489  C     
5    N        24.6884   25.0668  116.3634  N     
6    C        24.1170   25.6028  117.5956  C     
7    C        25.7745   24.2670  116.3693  C     
8    N        26.3203   23.7379  115.2753  N     
9    O        26.3359   24.0129  117.4305  O     
10   C        27.5674   23.0289  115.2321  C     
11   C        27.7402   21.7317  116.0568  C     
12   C        27.5474   21.6578  114.5342  C     
13   C        29.0533   21.4795  116.7200  C     
14   C        30.3076   21.7856  116.1333  C     
15   C        31.5091   21.5525  116.8315  C     
16   C        31.4768   21.0069  118.1284  C     
17   C        30.2456   20.6701  118.7134  C     
18   C        29.0474   20.8986  118.0125  C     
19   C        21.9057   27.5507  116.3592  C     
20   N        21.0331   28.0258  115.4585  N     
21   C        19.8160   27.6560  115.8826  C     
22   N        19.9486   26.9595  117.0220  N     
23   O        21.2123   26.8934  117.3140  O     
24   C        18.5979   27.9613  115.2502  C     
25   N        18.6015   28.7307  114.1277  N     
26   C        17.4726   29.0798  113.4639  C     
27   C        16.2349   28.6234  113.9521  C     
28   N        16.2159   27.8537  115.0676  N     
29   C        17.3483   27.5098  115.7334  C     
30   H        25.1253   27.5199  117.5833  H     
31   H        23.6112   27.5321  118.4780  H     
32   H        23.5732   28.7887  116.2512  H     
33   H        23.4484   27.3469  114.1393  H     
34   H        25.0275   27.3864  114.9184  H     
35   H        22.9702   25.1239  115.1789  H     
36   H        24.4320   25.1006  114.2285  H     
37   H        24.6469   25.2981  118.5018  H     
38   H        23.1008   25.2199  117.7046  H     
39   H        25.8980   23.9179  114.4251  H     
40   H        28.4690   23.6091  115.0161  H     
41   H        26.8380   21.4514  116.6088  H     
42   H        26.5760   21.2645  114.2236  H     
43   H        28.4281   21.3845  113.9523  H     
44   H        30.3608   22.1932  115.1968  H     
45   H        32.4092   21.7870  116.4021  H     
46   H        32.3471   20.8558  118.6457  H     
47   H        30.2211   20.2666  119.6525  H     
48   H        28.1634   20.6402  118.4621  H     
49   H        17.5276   29.6647  112.6284  H     
50   H        15.3640   28.8609  113.4790  H     
51   H        17.2751   26.9271  116.5705  H     
@<TRIPOS>BOND
     1    1    2 1
     2    1    6 1
     3    2    3 1
     4    2   19 1
     5    3    4 1
     6    4    5 1
     7    5    6 1
     8    5    7 1
     9    7    8 am
    10    7    9 2
    11    8   10 1
    12   10   11 1
    13   10   12 1
    14   11   12 1
    15   11   13 1
    16   13   14 2
    17   13   18 1
    18   14   15 1
    19   15   16 2
    20   16   17 1
    21   17   18 2
    22   19   20 2
    23   19   23 1
    24   20   21 1
    25   21   22 2
    26   21   24 1
    27   22   23 1
    28   24   25 1
    29   24   29 2
    30   25   26 2
    31   26   27 1
    32   27   28 2
    33   28   29 1
    34    1   30 1
    35    1   31 1
    36    2   32 1
    37    3   33 1
    38    3   34 1
    39    4   35 1
    40    4   36 1
    41    6   37 1
    42    6   38 1
    43    8   39 1
    44   10   40 1
    45   11   41 1
    46   12   42 1
    47   12   43 1
    48   14   44 1
    49   15   45 1
    50   16   46 1
    51   17   47 1
    52   18   48 1
    53   26   49 1
    54   27   50 1
    55   29   51 1
@<TRIPOS>PROPERTY_DATA
  Total_Score	| 7.5382
  Crash		| -1.5639
  Polar		| 1.9142
  FragIndex	| 1
  FragRMSD	| 1.093

