@<TRIPOS>MOLECULE
BindingDB_50295534
 52 56 0 0 0
SMALL
NO_CHARGES


@<TRIPOS>ATOM
1    C        23.3695   27.6603  116.2725  C     
2    C        24.0534   27.0236  115.0254  C     
3    C        24.0929   25.4719  115.1266  C     
4    N        24.7488   25.0473  116.3560  N     
5    C        24.1251   25.5454  117.5791  C     
6    C        24.0390   27.1014  117.5692  C     
7    C        25.8518   24.2709  116.3854  C     
8    O        26.3680   23.9970  117.4632  O     
9    N        26.4499   23.7842  115.2990  N     
10   C        21.8994   27.4579  116.2489  C     
11   O        21.1928   26.6934  117.1127  O     
12   N        19.9414   26.7537  116.7748  N     
13   C        19.8273   27.5451  115.6988  C     
14   N        21.0481   27.9884  115.3588  N     
15   C        18.5991   27.8689  115.0960  C     
16   C        18.4834   28.7892  114.0300  C     
17   C        17.2045   29.1090  113.5354  C     
18   C        16.0647   28.4875  114.0761  C     
19   C        16.2273   27.5546  115.1131  C     
20   N        17.4691   27.2919  115.5849  N     
21   C        27.7002   23.0848  115.2814  C     
22   C        27.6845   21.7255  114.5533  C     
23   C        27.8443   21.7674  116.0847  C     
24   C        29.1394   21.4681  116.7605  C     
25   C        30.4007   21.8559  116.2370  C     
26   C        31.5909   21.5555  116.9293  C     
27   C        31.5390   20.8673  118.1512  C     
28   C        30.3014   20.4639  118.6813  C     
29   C        29.1128   20.7653  117.9909  C     
30   H        23.5406   28.7414  116.2554  H     
31   H        23.5331   27.3325  114.1116  H     
32   H        25.0790   27.4042  114.9511  H     
33   H        23.0639   25.0892  115.1099  H     
34   H        24.5682   25.1003  114.2204  H     
35   H        23.1224   25.1173  117.6607  H     
36   H        24.6493   25.2647  118.4981  H     
37   H        25.0546   27.5032  117.6431  H     
38   H        23.4916   27.4443  118.4548  H     
39   H        26.0615   23.9780  114.4354  H     
40   H        19.3057   29.2264  113.6098  H     
41   H        17.1057   29.7944  112.7772  H     
42   H        15.1354   28.7053  113.7100  H     
43   H        15.4255   27.0806  115.5212  H     
44   H        28.6056   23.6628  115.0650  H     
45   H        26.7150   21.3418  114.2259  H     
46   H        28.5809   21.4610  113.9847  H     
47   H        26.9277   21.4706  116.6103  H     
48   H        30.4665   22.3645  115.3542  H     
49   H        32.4934   21.8415  116.5446  H     
50   H        32.4019   20.6543  118.6554  H     
51   H        30.2627   19.9553  119.5680  H     
52   H        28.2187   20.4711  118.4018  H     
@<TRIPOS>BOND
     1    1    2 1
     2    1    6 1
     3    1   10 1
     4    2    3 1
     5    3    4 1
     6    4    5 1
     7    4    7 1
     8    5    6 1
     9    7    8 2
    10    7    9 am
    11   21    9 1
    12   10   11 1
    13   10   14 2
    14   11   12 1
    15   12   13 2
    16   13   14 1
    17   13   15 1
    18   15   16 2
    19   15   20 1
    20   16   17 1
    21   17   18 2
    22   18   19 1
    23   19   20 2
    24   21   22 1
    25   21   23 1
    26   22   23 1
    27   23   24 1
    28   24   25 2
    29   24   29 1
    30   25   26 1
    31   26   27 2
    32   27   28 1
    33   28   29 2
    34    1   30 1
    35    2   31 1
    36    2   32 1
    37    3   33 1
    38    3   34 1
    39    5   35 1
    40    5   36 1
    41    6   37 1
    42    6   38 1
    43    9   39 1
    44   16   40 1
    45   17   41 1
    46   18   42 1
    47   19   43 1
    48   21   44 1
    49   22   45 1
    50   22   46 1
    51   23   47 1
    52   25   48 1
    53   26   49 1
    54   27   50 1
    55   28   51 1
    56   29   52 1
@<TRIPOS>PROPERTY_DATA
  Total_Score	| 6.8945
  Crash		| -2.5597
  Polar		| 2.0276
  FragIndex	| 1
  FragRMSD	| 1.139

