@<TRIPOS>MOLECULE
BindingDB_50295541
 59 63 0 0 0
SMALL
NO_CHARGES


@<TRIPOS>ATOM
1    C        24.2074   27.1127  117.0302  C     
2    C        23.5443   27.4832  115.6633  C     
3    C        24.0572   26.5284  114.5414  C     
4    C        23.9448   25.0410  114.9708  C     
5    N        24.6630   24.8390  116.2202  N     
6    C        24.1249   25.5912  117.3452  C     
7    C        25.7975   24.1207  116.3099  C     
8    N        26.4502   23.6832  115.2366  N     
9    O        26.3161   23.9041  117.3999  O     
10   C        27.6930   22.9885  115.2334  C     
11   C        27.8124   21.6771  116.0394  C     
12   C        27.6675   21.6349  114.5104  C     
13   C        29.0919   21.5280  116.7940  C     
14   C        30.3645   21.7525  116.2123  C     
15   C        31.5426   21.5983  116.9665  C     
16   C        31.4666   21.2158  118.3171  C     
17   C        30.2149   20.9857  118.9112  C     
18   C        29.0385   21.1463  118.1559  C     
19   C        22.0597   27.5188  115.7021  C     
20   N        21.2731   27.5243  116.7866  N     
21   C        20.0061   27.6048  116.3485  C     
22   N        20.0280   27.6443  115.0043  N     
23   O        21.2677   27.5916  114.6071  O     
24   C        18.8580   27.6779  117.1736  C     
25   C        18.4834   26.5815  117.9858  C     
26   C        17.3717   26.6647  118.8419  C     
27   C        16.6093   27.8513  118.9121  C     
28   C        16.9774   28.9491  118.1089  C     
29   C        18.0857   28.8627  117.2445  C     
30   S        15.2506   27.9328  120.0033  S     
31   O        15.1543   26.5738  120.8269  O     
32   O        15.4978   29.1000  121.0553  O     
33   C        13.6634   28.2028  119.1965  C     
34   H        25.2649   27.3897  116.9959  H     
35   H        23.7525   27.6854  117.8430  H     
36   H        23.8611   28.4981  115.4060  H     
37   H        23.5052   26.6856  113.6098  H     
38   H        25.1092   26.7558  114.3343  H     
39   H        22.8928   24.7788  115.1153  H     
40   H        24.2857   24.4103  114.1504  H     
41   H        24.6514   25.4107  118.2845  H     
42   H        23.0852   25.3031  117.5196  H     
43   H        26.0866   23.8930  114.3681  H     
44   H        28.6013   23.5695  115.0922  H     
45   H        26.8828   21.4660  116.5835  H     
46   H        26.6939   21.2619  114.1848  H     
47   H        28.5504   21.3558  113.9340  H     
48   H        30.4479   22.0455  115.2379  H     
49   H        32.4543   21.7675  116.5343  H     
50   H        32.3218   21.1159  118.8698  H     
51   H        30.1606   20.7112  119.8969  H     
52   H        28.1378   20.9902  118.6163  H     
53   H        19.0128   25.7068  117.9588  H     
54   H        17.1313   25.8591  119.4193  H     
55   H        16.4524   29.8270  118.1484  H     
56   H        18.3306   29.6823  116.6782  H     
57   H        13.6545   29.1788  118.7135  H     
58   H        12.8663   28.1634  119.9381  H     
59   H        13.4979   27.4261  118.4509  H     
@<TRIPOS>BOND
     1    1    2 1
     2    1    6 1
     3    2    3 1
     4    2   19 1
     5    3    4 1
     6    4    5 1
     7    5    6 1
     8    5    7 1
     9    7    8 am
    10    7    9 2
    11    8   10 1
    12   10   11 1
    13   10   12 1
    14   11   12 1
    15   11   13 1
    16   13   14 2
    17   13   18 1
    18   14   15 1
    19   15   16 2
    20   16   17 1
    21   17   18 2
    22   19   20 2
    23   19   23 1
    24   20   21 1
    25   21   22 2
    26   21   24 1
    27   22   23 1
    28   24   25 2
    29   24   29 1
    30   25   26 1
    31   26   27 2
    32   27   28 1
    33   27   30 1
    34   28   29 2
    35   30   31 2
    36   30   32 2
    37   30   33 1
    38    1   34 1
    39    1   35 1
    40    2   36 1
    41    3   37 1
    42    3   38 1
    43    4   39 1
    44    4   40 1
    45    6   41 1
    46    6   42 1
    47    8   43 1
    48   10   44 1
    49   11   45 1
    50   12   46 1
    51   12   47 1
    52   14   48 1
    53   15   49 1
    54   16   50 1
    55   17   51 1
    56   18   52 1
    57   25   53 1
    58   26   54 1
    59   28   55 1
    60   29   56 1
    61   33   57 1
    62   33   58 1
    63   33   59 1
@<TRIPOS>PROPERTY_DATA
  Total_Score	| 7.7782
  Crash		| -0.9075
  Polar		| 2.1658
  FragIndex	| 1
  FragRMSD	| 0.666

