@<TRIPOS>MOLECULE
BindingDB_50295537
 43 46 0 0 0
SMALL
NO_CHARGES


@<TRIPOS>ATOM
1    C        23.3966   27.0817  117.7329  C     
2    C        22.9586   27.9341  116.4952  C     
3    C        23.9119   27.6268  115.2950  C     
4    C        24.1006   26.1065  115.0505  C     
5    N        24.4826   25.4221  116.2813  N     
6    C        23.5290   25.5782  117.3740  C     
7    C        25.6300   24.7271  116.4289  C     
8    N        26.5012   24.5189  115.4500  N     
9    O        25.9077   24.2526  117.5272  O     
10   C        27.7158   23.7718  115.5260  C     
11   C        27.8060   22.2743  115.9045  C     
12   C        27.7333   22.7005  114.4300  C     
13   C        29.0465   21.8885  116.6362  C     
14   C        30.3584   22.0402  116.1037  C     
15   C        31.4934   21.6258  116.8294  C     
16   C        31.3405   21.0651  118.1154  C     
17   C        30.0521   20.9243  118.6714  C     
18   C        28.9168   21.3274  117.9363  C     
19   C        21.5150   27.7707  116.1765  C     
20   N        20.5212   27.9905  117.0547  N     
21   O        19.3826   27.8112  116.4503  O     
22   C        19.6516   27.4647  115.1737  C     
23   N        20.9733   27.4485  114.9849  N     
24   H        24.3730   27.4382  118.0791  H     
25   H        22.6967   27.2043  118.5631  H     
26   H        23.0862   28.9894  116.7717  H     
27   H        23.5468   28.1128  114.3869  H     
28   H        24.8924   28.0519  115.5167  H     
29   H        23.1643   25.6846  114.6776  H     
30   H        24.8251   26.0044  114.2440  H     
31   H        23.8001   25.0375  118.2893  H     
32   H        22.5487   25.1881  117.0667  H     
33   H        26.3073   24.8903  114.5857  H     
34   H        28.6352   24.3651  115.5091  H     
35   H        26.8697   21.8524  116.2812  H     
36   H        26.7721   22.4764  113.9480  H     
37   H        28.6397   22.6699  113.8328  H     
38   H        30.5108   22.4570  115.1830  H     
39   H        32.4265   21.7380  116.4242  H     
40   H        32.1621   20.7714  118.6445  H     
41   H        29.9431   20.5194  119.6083  H     
42   H        27.9880   21.2017  118.3613  H     
43   H        18.9534   27.2742  114.4531  H     
@<TRIPOS>BOND
     1    1    2 1
     2    1    6 1
     3    2    3 1
     4    2   19 1
     5    3    4 1
     6    4    5 1
     7    5    6 1
     8    5    7 1
     9    7    8 am
    10    7    9 2
    11    8   10 1
    12   10   11 1
    13   10   12 1
    14   11   12 1
    15   11   13 1
    16   13   14 2
    17   13   18 1
    18   14   15 1
    19   15   16 2
    20   16   17 1
    21   17   18 2
    22   19   20 2
    23   19   23 1
    24   20   21 1
    25   21   22 1
    26   22   23 2
    27    1   24 1
    28    1   25 1
    29    2   26 1
    30    3   27 1
    31    3   28 1
    32    4   29 1
    33    4   30 1
    34    6   31 1
    35    6   32 1
    36    8   33 1
    37   10   34 1
    38   11   35 1
    39   12   36 1
    40   12   37 1
    41   14   38 1
    42   15   39 1
    43   16   40 1
    44   17   41 1
    45   18   42 1
    46   22   43 1
@<TRIPOS>PROPERTY_DATA
  Total_Score	| 6.8117
  Crash		| -1.0238
  Polar		| 2.5407
  FragIndex	| 1
  FragRMSD	| 0.871

