@<TRIPOS>MOLECULE
BindingDB_29221
 32 33 0 0 0
SMALL
NO_CHARGES


@<TRIPOS>ATOM
1    C        -3.6118   -5.2475  -16.6859  C     
2    C        -4.4937   -4.2137  -16.3417  C     
3    C        -5.6725   -4.5400  -15.6541  C     
4    C        -5.9445   -5.8611  -15.2407  C     
5    C        -5.0256   -6.9217  -15.5408  C     
6    C        -3.8537   -6.5968  -16.3137  C     
7    C        -2.9390   -7.6269  -16.6569  C     
8    N        -5.1631   -8.2609  -15.0880  N     
9    C        -4.1685   -9.1471  -15.3176  C     
10   C        -3.1200   -8.8569  -16.1343  C     
11   O        -4.1127  -10.2392  -14.7586  O     
12   C        -1.7986   -7.4100  -17.5588  C     
13   O        -7.1516   -6.0420  -14.6095  O     
14   C        -7.3032   -5.3705  -13.3424  C     
15   O        -4.0622   -2.9231  -16.5660  O     
16   C        -4.9547   -1.8221  -16.3114  C     
17   C        -6.3315   -8.7073  -14.3413  C     
18   H        -2.7584   -4.9851  -17.1898  H     
19   H        -6.3344   -3.8017  -15.4085  H     
20   H        -2.4690   -9.5833  -16.3547  H     
21   H        -2.1499   -6.9967  -18.5076  H     
22   H        -1.2380   -8.3156  -17.7980  H     
23   H        -1.0968   -6.7107  -17.1006  H     
24   H        -6.5155   -5.6726  -12.6597  H     
25   H        -8.2624   -5.6616  -12.9100  H     
26   H        -7.2925   -4.2831  -13.4540  H     
27   H        -5.8721   -1.9082  -16.9016  H     
28   H        -4.4376   -0.9005  -16.5879  H     
29   H        -5.2201   -1.7460  -15.2536  H     
30   H        -6.3706   -8.1960  -13.3746  H     
31   H        -6.3614   -9.7810  -14.1240  H     
32   H        -7.2385   -8.4974  -14.9106  H     
@<TRIPOS>BOND
     1    1    2 1
     2    1    6 2
     3    2    3 2
     4    2   15 1
     5    3    4 1
     6    4    5 2
     7    4   13 1
     8    5    6 1
     9    5    8 1
    10    6    7 1
    11    7   10 2
    12    7   12 1
    13    8    9 1
    14    8   17 1
    15    9   10 1
    16    9   11 2
    17   13   14 1
    18   15   16 1
    19    1   18 1
    20    3   19 1
    21   10   20 1
    22   12   21 1
    23   12   22 1
    24   12   23 1
    25   14   24 1
    26   14   25 1
    27   14   26 1
    28   16   27 1
    29   16   28 1
    30   16   29 1
    31   17   30 1
    32   17   31 1
    33   17   32 1
@<TRIPOS>PROPERTY_DATA
  Total_Score	| 4.1429
  Crash		| -0.8046
  Polar		| 1.8358
  FragIndex	| 1
  FragRMSD	| 0.217

