@<TRIPOS>MOLECULE
BindingDB_29224
 33 34 0 0 0
SMALL
NO_CHARGES


@<TRIPOS>ATOM
1    C        -3.7843   -5.2920  -16.7158  C     
2    C        -4.5733   -4.2250  -16.2379  C     
3    C        -5.6101   -4.4641  -15.2987  C     
4    C        -5.8038   -5.7807  -14.8170  C     
5    C        -4.9559   -6.8288  -15.2434  C     
6    C        -3.9245   -6.6023  -16.1999  C     
7    C        -3.0631   -7.6871  -16.5254  C     
8    N        -5.0691   -8.0774  -14.6875  N     
9    C        -4.2231   -9.0598  -14.9748  C     
10   C        -3.2383   -8.8785  -15.9012  C     
11   O        -4.3437  -10.1275  -14.3908  O     
12   C        -1.9544   -7.5337  -17.4716  C     
13   O        -6.7125   -6.0238  -13.8164  O     
14   C        -8.0873   -5.8807  -14.2129  C     
15   O        -6.3885   -3.4969  -14.6992  O     
16   O        -4.2954   -2.9671  -16.6960  O     
17   C        -3.2454   -2.3028  -15.9689  C     
18   C        -6.5077   -2.1616  -15.2332  C     
19   H        -3.0599   -5.0796  -17.4055  H     
20   H        -5.7572   -8.2369  -14.0214  H     
21   H        -2.6341   -9.6444  -16.0989  H     
22   H        -2.3323   -7.1918  -18.4354  H     
23   H        -1.3995   -8.4595  -17.6500  H     
24   H        -1.2450   -6.7957  -17.0902  H     
25   H        -8.3141   -4.8496  -14.4952  H     
26   H        -8.7148   -6.1435  -13.3613  H     
27   H        -8.3384   -6.5492  -15.0404  H     
28   H        -3.4826   -2.2230  -14.9016  H     
29   H        -3.1452   -1.2925  -16.3727  H     
30   H        -2.2864   -2.8169  -16.0947  H     
31   H        -5.6592   -1.5520  -14.9099  H     
32   H        -7.4127   -1.7123  -14.8234  H     
33   H        -6.5831   -2.1521  -16.3228  H     
@<TRIPOS>BOND
     1    1    2 1
     2    1    6 2
     3    2    3 2
     4    2   16 1
     5    3    4 1
     6    3   15 1
     7    4    5 2
     8    4   13 1
     9    5    6 1
    10    5    8 1
    11    6    7 1
    12    7   10 2
    13    7   12 1
    14    8    9 1
    15    9   10 1
    16    9   11 2
    17   13   14 1
    18   15   18 1
    19   16   17 1
    20    1   19 1
    21    8   20 1
    22   10   21 1
    23   12   22 1
    24   12   23 1
    25   12   24 1
    26   14   25 1
    27   14   26 1
    28   14   27 1
    29   17   28 1
    30   17   29 1
    31   17   30 1
    32   18   31 1
    33   18   32 1
    34   18   33 1
@<TRIPOS>PROPERTY_DATA
  Total_Score	| 3.3212
  Crash		| -0.7325
  Polar		| 1.8769
  FragIndex	| 1
  FragRMSD	| 0.512

