@<TRIPOS>MOLECULE
BindingDB_29218
 29 30 0 0 0
SMALL
NO_CHARGES


@<TRIPOS>ATOM
1    C        -3.6617   -5.4192  -16.8672  C     
2    C        -4.4759   -4.3284  -16.5142  C     
3    C        -5.4762   -4.4535  -15.5219  C     
4    C        -5.6621   -5.7124  -14.9084  C     
5    C        -4.8478   -6.8120  -15.2652  C     
6    C        -3.8200   -6.6800  -16.2422  C     
7    C        -3.0053   -7.8130  -16.5140  C     
8    N        -4.9999   -8.0213  -14.6412  N     
9    C        -4.2266   -9.0664  -14.9153  C     
10   C        -3.2548   -8.9803  -15.8646  C     
11   O        -4.4039  -10.1090  -14.3037  O     
12   C        -1.8712   -7.7397  -17.4347  C     
13   O        -6.5567   -5.8559  -13.8819  O     
14   C        -7.9363   -5.8581  -14.2868  C     
15   O        -6.2859   -3.4330  -15.0653  O     
16   C        -6.2653   -2.1467  -15.7220  C     
17   H        -2.9475   -5.2643  -17.5810  H     
18   H        -4.2993   -3.4298  -16.9627  H     
19   H        -5.6792   -8.1144  -13.9588  H     
20   H        -2.7171   -9.7974  -16.0654  H     
21   H        -2.2192   -7.4632  -18.4284  H     
22   H        -1.3208   -8.6836  -17.5314  H     
23   H        -1.1588   -6.9859  -17.0852  H     
24   H        -8.2067   -4.9030  -14.7579  H     
25   H        -8.5577   -5.9937  -13.3995  H     
26   H        -8.1450   -6.6820  -14.9824  H     
27   H        -5.3058   -1.6390  -15.5796  H     
28   H        -7.0456   -1.5185  -15.2743  H     
29   H        -6.4776   -2.2412  -16.7879  H     
@<TRIPOS>BOND
     1    1    2 1
     2    1    6 2
     3    2    3 2
     4    3    4 1
     5    3   15 1
     6    4    5 2
     7    4   13 1
     8    5    6 1
     9    5    8 1
    10    6    7 1
    11    7   10 2
    12    7   12 1
    13    8    9 1
    14    9   10 1
    15    9   11 2
    16   13   14 1
    17   15   16 1
    18    1   17 1
    19    2   18 1
    20    8   19 1
    21   10   20 1
    22   12   21 1
    23   12   22 1
    24   12   23 1
    25   14   24 1
    26   14   25 1
    27   14   26 1
    28   16   27 1
    29   16   28 1
    30   16   29 1
@<TRIPOS>PROPERTY_DATA
  Total_Score	| 4.1743
  Crash		| -0.5226
  Polar		| 1.8091
  FragIndex	| 1
  FragRMSD	| 0.500

