@<TRIPOS>MOLECULE
BindingDB_29220
 29 30 0 0 0
SMALL
NO_CHARGES


@<TRIPOS>ATOM
1    C        -3.7464   -5.3725  -16.6164  C     
2    C        -4.5813   -4.3111  -16.2071  C     
3    C        -5.5968   -4.5731  -15.2583  C     
4    C        -5.7809   -5.8653  -14.7303  C     
5    C        -4.9120   -6.9029  -15.1283  C     
6    C        -3.8745   -6.6784  -16.0796  C     
7    C        -3.0141   -7.7669  -16.3927  C     
8    N        -5.0370   -8.1440  -14.5680  N     
9    C        -4.2040   -9.1330  -14.8588  C     
10   C        -3.2040   -8.9563  -15.7707  C     
11   O        -4.3712  -10.2122  -14.3118  O     
12   C        -1.9077   -7.6250  -17.3430  C     
13   O        -6.7272   -6.0989  -13.7640  O     
14   C        -8.0753   -6.1283  -14.2560  C     
15   O        -4.2915   -3.0835  -16.7594  O     
16   C        -5.0615   -1.9132  -16.4381  C     
17   H        -3.0153   -5.1687  -17.3016  H     
18   H        -6.2047   -3.8214  -14.9285  H     
19   H        -5.7348   -8.2944  -13.9079  H     
20   H        -2.6076   -9.7277  -15.9681  H     
21   H        -2.2940   -7.3471  -18.3208  H     
22   H        -1.3236   -8.5373  -17.4719  H     
23   H        -1.2226   -6.8498  -17.0008  H     
24   H        -8.1868   -6.8214  -15.1000  H     
25   H        -8.4063   -5.1281  -14.5543  H     
26   H        -8.7216   -6.4745  -13.4473  H     
27   H        -6.1107   -2.0488  -16.7093  H     
28   H        -4.6597   -1.0738  -17.0061  H     
29   H        -4.9753   -1.6769  -15.3746  H     
@<TRIPOS>BOND
     1    1    2 1
     2    1    6 2
     3    2    3 2
     4    2   15 1
     5    3    4 1
     6    4    5 2
     7    4   13 1
     8    5    6 1
     9    5    8 1
    10    6    7 1
    11    7   10 2
    12    7   12 1
    13    8    9 1
    14    9   10 1
    15    9   11 2
    16   13   14 1
    17   15   16 1
    18    1   17 1
    19    3   18 1
    20    8   19 1
    21   10   20 1
    22   12   21 1
    23   12   22 1
    24   12   23 1
    25   14   24 1
    26   14   25 1
    27   14   26 1
    28   16   27 1
    29   16   28 1
    30   16   29 1
@<TRIPOS>PROPERTY_DATA
  Total_Score	| 3.6026
  Crash		| -0.7091
  Polar		| 1.8700
  FragIndex	| 1
  FragRMSD	| 0.579

