@<TRIPOS>MOLECULE
BindingDB_29228
 37 38 0 0 0
SMALL
NO_CHARGES


@<TRIPOS>ATOM
1    C        -3.7846   -5.1489  -16.6321  C     
2    C        -4.6262   -4.1454  -16.0791  C     
3    C        -5.5394   -4.5053  -15.0618  C     
4    C        -5.6889   -5.8535  -14.6758  C     
5    C        -4.8292   -6.8345  -15.2046  C     
6    C        -3.8544   -6.5151  -16.2026  C     
7    C        -3.0594   -7.6199  -16.6737  C     
8    N        -4.9024   -8.1131  -14.7124  N     
9    C        -4.1064   -9.0797  -15.1301  C     
10   C        -3.1929   -8.8495  -16.1030  C     
11   O        -4.1529  -10.1706  -14.5723  O     
12   C        -2.0322   -7.5259  -17.7137  C     
13   O        -6.5850   -6.1855  -13.6981  O     
14   C        -7.9548   -6.0820  -14.1066  C     
15   O        -4.6870   -2.9031  -16.6921  O     
16   C        -4.2955   -1.7178  -15.9340  C     
17   O        -2.9238   -4.7453  -17.6251  O     
18   C        -1.7273   -4.0998  -17.1525  C     
19   O        -6.3046   -3.5388  -14.4462  O     
20   C        -5.8285   -3.2129  -13.1126  C     
21   H        -5.5433   -8.3083  -14.0122  H     
22   H        -2.6137   -9.6175  -16.3885  H     
23   H        -2.3123   -6.8447  -18.5131  H     
24   H        -1.8307   -8.4759  -18.2246  H     
25   H        -1.0931   -7.1933  -17.2696  H     
26   H        -8.2062   -5.0442  -14.3488  H     
27   H        -8.5923   -6.4063  -13.2704  H     
28   H        -8.1727   -6.7273  -14.9653  H     
29   H        -5.0192   -1.4725  -15.1166  H     
30   H        -4.2759   -0.8864  -16.6324  H     
31   H        -3.2911   -1.8221  -15.4850  H     
32   H        -1.9119   -3.0308  -17.0377  H     
33   H        -0.9433   -4.2359  -17.8998  H     
34   H        -1.3731   -4.5098  -16.1991  H     
35   H        -5.8857   -4.0746  -12.4291  H     
36   H        -6.4815   -2.4314  -12.7138  H     
37   H        -4.7888   -2.8377  -13.1590  H     
@<TRIPOS>BOND
     1    1    2 1
     2    1    6 2
     3    1   17 1
     4    2    3 2
     5    2   15 1
     6    3    4 1
     7    3   19 1
     8    4    5 2
     9    4   13 1
    10    5    6 1
    11    5    8 1
    12    6    7 1
    13    7   10 2
    14    7   12 1
    15    8    9 1
    16    9   10 1
    17    9   11 2
    18   13   14 1
    19   15   16 1
    20   17   18 1
    21   19   20 1
    22    8   21 1
    23   10   22 1
    24   12   23 1
    25   12   24 1
    26   12   25 1
    27   14   26 1
    28   14   27 1
    29   14   28 1
    30   16   29 1
    31   16   30 1
    32   16   31 1
    33   18   32 1
    34   18   33 1
    35   18   34 1
    36   20   35 1
    37   20   36 1
    38   20   37 1
@<TRIPOS>PROPERTY_DATA
  Total_Score	| 3.6052
  Crash		| -0.5347
  Polar		| 1.6852
  FragIndex	| 1
  FragRMSD	| 0.568

