@<TRIPOS>MOLECULE
BindingDB_29226
 33 34 0 0 0
SMALL
NO_CHARGES


@<TRIPOS>ATOM
1    C        -3.1999   -5.3720  -16.5015  C     
2    C        -4.1002   -4.3007  -16.2555  C     
3    C        -5.3764   -4.5656  -15.7207  C     
4    C        -5.7383   -5.8642  -15.3381  C     
5    C        -4.8325   -6.9218  -15.5550  C     
6    C        -3.5686   -6.7227  -16.2000  C     
7    C        -2.7725   -7.9031  -16.3981  C     
8    N        -5.1334   -8.1465  -15.0237  N     
9    C        -4.2895   -9.1638  -15.0788  C     
10   C        -3.1562   -9.0699  -15.8184  C     
11   O        -4.5537  -10.1853  -14.4599  O     
12   C        -1.6829   -8.0341  -17.3728  C     
13   O        -6.9595   -6.0717  -14.7469  O     
14   C        -7.1195   -5.3849  -13.4921  C     
15   O        -3.6470   -3.0046  -16.3570  O     
16   C        -4.6122   -1.9423  -16.2588  C     
17   O        -1.8904   -5.0462  -16.7528  O     
18   C        -1.5610   -4.4104  -18.0025  C     
19   H        -6.0170   -3.7965  -15.5148  H     
20   H        -5.9467   -8.2462  -14.5036  H     
21   H        -2.6398   -9.9090  -15.9776  H     
22   H        -2.0801   -8.4636  -18.2999  H     
23   H        -0.8845   -8.6806  -16.9957  H     
24   H        -1.2034   -7.1112  -17.6471  H     
25   H        -6.3832   -5.7276  -12.7626  H     
26   H        -8.1137   -5.6098  -13.1041  H     
27   H        -7.0364   -4.3020  -13.6115  H     
28   H        -4.9460   -1.8115  -15.2287  H     
29   H        -5.4807   -2.1193  -16.8933  H     
30   H        -4.1322   -1.0169  -16.5825  H     
31   H        -0.4681   -4.3632  -18.0609  H     
32   H        -1.9526   -3.3960  -18.0591  H     
33   H        -1.9310   -4.9805  -18.8574  H     
@<TRIPOS>BOND
     1    1    2 1
     2    1    6 2
     3    1   17 1
     4    2    3 2
     5    2   15 1
     6    3    4 1
     7    4    5 2
     8    4   13 1
     9    5    6 1
    10    5    8 1
    11    6    7 1
    12    7   10 2
    13    7   12 1
    14    8    9 1
    15    9   10 1
    16    9   11 2
    17   13   14 1
    18   15   16 1
    19   17   18 1
    20    3   19 1
    21    8   20 1
    22   10   21 1
    23   12   22 1
    24   12   23 1
    25   12   24 1
    26   14   25 1
    27   14   26 1
    28   14   27 1
    29   16   28 1
    30   16   29 1
    31   16   30 1
    32   18   31 1
    33   18   32 1
    34   18   33 1
@<TRIPOS>PROPERTY_DATA
  Total_Score	| 3.8133
  Crash		| -1.0945
  Polar		| 1.8736
  FragIndex	| 1
  FragRMSD	| 0.512

