@<TRIPOS>MOLECULE
BindingDB_29217
 28 29 0 0 0
SMALL
NO_CHARGES


@<TRIPOS>ATOM
1    C        -3.7628   -5.1352  -16.8669  C     
2    C        -4.6311   -4.1211  -16.4513  C     
3    C        -5.6315   -4.4091  -15.5162  C     
4    C        -5.7916   -5.7184  -15.0178  C     
5    C        -4.9455   -6.7877  -15.4572  C     
6    C        -3.8841   -6.4661  -16.3707  C     
7    C        -2.9537   -7.4690  -16.7323  C     
8    N        -5.0488   -8.1319  -15.0174  N     
9    C        -4.0890   -9.0219  -15.3475  C     
10   C        -3.0828   -8.7006  -16.1997  C     
11   O        -4.0494  -10.1587  -14.8837  O     
12   C        -1.8040   -7.1974  -17.6071  C     
13   C        -6.1993   -8.6050  -14.2631  C     
14   O        -6.6814   -5.8552  -13.9794  O     
15   C        -8.0757   -5.6888  -14.3145  C     
16   H        -3.0336   -4.8688  -17.5325  H     
17   H        -4.5209   -3.1630  -16.7979  H     
18   H        -6.2311   -3.6509  -15.1768  H     
19   H        -2.4212   -9.4105  -16.4357  H     
20   H        -2.1452   -6.8343  -18.5790  H     
21   H        -1.1787   -8.0763  -17.7943  H     
22   H        -1.1662   -6.4356  -17.1513  H     
23   H        -6.2115   -8.1490  -13.2732  H     
24   H        -6.2439   -9.6852  -14.0985  H     
25   H        -7.1154   -8.3515  -14.7969  H     
26   H        -8.2671   -4.6699  -14.6608  H     
27   H        -8.6711   -5.8778  -13.4134  H     
28   H        -8.3926   -6.4062  -15.0764  H     
@<TRIPOS>BOND
     1    1    2 1
     2    1    6 2
     3    2    3 2
     4    3    4 1
     5    4    5 2
     6    4   14 1
     7    5    6 1
     8    5    8 1
     9    6    7 1
    10    7   10 2
    11    7   12 1
    12    8    9 1
    13    8   13 1
    14    9   10 1
    15    9   11 2
    16   14   15 1
    17    1   16 1
    18    2   17 1
    19    3   18 1
    20   10   19 1
    21   12   20 1
    22   12   21 1
    23   12   22 1
    24   13   23 1
    25   13   24 1
    26   13   25 1
    27   15   26 1
    28   15   27 1
    29   15   28 1
@<TRIPOS>PROPERTY_DATA
  Total_Score	| 4.2418
  Crash		| -0.5075
  Polar		| 1.7486
  FragIndex	| 1
  FragRMSD	| 0.496

