@<TRIPOS>MOLECULE
BindingDB_29227
 36 37 0 0 0
SMALL
NO_CHARGES


@<TRIPOS>ATOM
1    C        -3.3304   -5.3100  -16.4269  C     
2    C        -4.2203   -4.2365  -16.2235  C     
3    C        -5.5083   -4.4924  -15.7400  C     
4    C        -5.8700   -5.7761  -15.2867  C     
5    C        -4.9926   -6.8904  -15.4817  C     
6    C        -3.7396   -6.6469  -16.1464  C     
7    C        -2.9216   -7.7646  -16.4538  C     
8    N        -5.2471   -8.2063  -15.0152  N     
9    C        -4.2605   -9.1278  -15.0660  C     
10   C        -3.1575   -8.9363  -15.8313  C     
11   O        -4.3237  -10.2078  -14.4865  O     
12   C        -1.9133   -7.7483  -17.5216  C     
13   O        -7.1112   -5.8763  -14.7075  O     
14   C        -7.2281   -5.2964  -13.3932  C     
15   O        -3.8652   -2.9456  -16.5111  O     
16   C        -3.3598   -2.2085  -15.3841  C     
17   O        -2.0065   -5.0339  -16.6641  O     
18   C        -1.6146   -4.5380  -17.9532  C     
19   C        -6.5321   -8.6012  -14.4586  C     
20   H        -6.1616   -3.7118  -15.6357  H     
21   H        -2.5624   -9.7163  -16.0084  H     
22   H        -2.2460   -7.1256  -18.3585  H     
23   H        -1.7167   -8.7401  -17.9387  H     
24   H        -0.9707   -7.3602  -17.1337  H     
25   H        -6.4948   -5.7182  -12.7042  H     
26   H        -8.2236   -5.5188  -13.0100  H     
27   H        -7.1114   -4.2117  -13.4233  H     
28   H        -4.0976   -2.1480  -14.5800  H     
29   H        -3.1371   -1.1950  -15.7173  H     
30   H        -2.4373   -2.6488  -14.9996  H     
31   H        -0.6279   -4.9646  -18.1578  H     
32   H        -1.5384   -3.4501  -17.9316  H     
33   H        -2.2926   -4.8369  -18.7566  H     
34   H        -6.6871   -8.1146  -13.4953  H     
35   H        -6.6471   -9.6742  -14.2879  H     
36   H        -7.3338   -8.3271  -15.1464  H     
@<TRIPOS>BOND
     1    1    2 1
     2    1    6 2
     3    1   17 1
     4    2    3 2
     5    2   15 1
     6    3    4 1
     7    4    5 2
     8    4   13 1
     9    5    6 1
    10    5    8 1
    11    6    7 1
    12    7   10 2
    13    7   12 1
    14    8    9 1
    15    8   19 1
    16    9   10 1
    17    9   11 2
    18   13   14 1
    19   15   16 1
    20   17   18 1
    21    3   20 1
    22   10   21 1
    23   12   22 1
    24   12   23 1
    25   12   24 1
    26   14   25 1
    27   14   26 1
    28   14   27 1
    29   16   28 1
    30   16   29 1
    31   16   30 1
    32   18   31 1
    33   18   32 1
    34   18   33 1
    35   19   34 1
    36   19   35 1
    37   19   36 1
@<TRIPOS>PROPERTY_DATA
  Total_Score	| 4.7546
  Crash		| -0.5702
  Polar		| 2.0983
  FragIndex	| 1
  FragRMSD	| 0.441

