@<TRIPOS>MOLECULE
BindingDB_29216
 25 26 0 0 0
SMALL
NO_CHARGES


@<TRIPOS>ATOM
1    C        -3.7226   -5.3993  -16.8799  C     
2    C        -4.5451   -4.3239  -16.5002  C     
3    C        -5.5092   -4.4906  -15.4939  C     
4    C        -5.6811   -5.7439  -14.8729  C     
5    C        -4.8494   -6.8217  -15.2527  C     
6    C        -3.8418   -6.6657  -16.2522  C     
7    C        -3.0049   -7.7815  -16.5312  C     
8    N        -4.9826   -8.0384  -14.6379  N     
9    C        -4.1883   -9.0633  -14.9206  C     
10   C        -3.2081   -8.9435  -15.8616  C     
11   O        -4.3706  -10.1239  -14.3405  O     
12   C        -1.8965   -7.6900  -17.4852  C     
13   O        -6.5503   -5.8827  -13.8209  O     
14   C        -7.9388   -5.9343  -14.1901  C     
15   H        -3.0249   -5.2338  -17.6080  H     
16   H        -4.4256   -3.4090  -16.9388  H     
17   H        -6.0772   -3.6911  -15.2047  H     
18   H        -5.6705   -8.1523  -13.9616  H     
19   H        -2.6281   -9.7326  -16.0370  H     
20   H        -2.2730   -7.4170  -18.4705  H     
21   H        -1.3393   -8.6237  -17.5988  H     
22   H        -1.1907   -6.9253  -17.1551  H     
23   H        -8.2675   -4.9893  -14.6321  H     
24   H        -8.5213   -6.1053  -13.2849  H     
25   H        -8.1389   -6.7544  -14.8871  H     
@<TRIPOS>BOND
     1    1    2 1
     2    1    6 2
     3    2    3 2
     4    3    4 1
     5    4    5 2
     6    4   13 1
     7    5    6 1
     8    5    8 1
     9    6    7 1
    10    7   10 2
    11    7   12 1
    12    8    9 1
    13    9   10 1
    14    9   11 2
    15   13   14 1
    16    1   15 1
    17    2   16 1
    18    3   17 1
    19    8   18 1
    20   10   19 1
    21   12   20 1
    22   12   21 1
    23   12   22 1
    24   14   23 1
    25   14   24 1
    26   14   25 1
@<TRIPOS>PROPERTY_DATA
  Total_Score	| 3.5025
  Crash		| -0.3218
  Polar		| 1.8559
  FragIndex	| 1
  FragRMSD	| 0.499

