@<TRIPOS>MOLECULE
BindingDB_29223
 32 33 0 0 0
SMALL
NO_CHARGES


@<TRIPOS>ATOM
1    C        -3.2523   -5.4178  -16.6430  C     
2    C        -4.1207   -4.3205  -16.5065  C     
3    C        -5.3976   -4.4913  -15.9798  C     
4    C        -5.7874   -5.7344  -15.4512  C     
5    C        -4.9536   -6.8906  -15.5886  C     
6    C        -3.7018   -6.7242  -16.2857  C     
7    C        -2.9086   -7.8777  -16.5135  C     
8    N        -5.2434   -8.1653  -15.0263  N     
9    C        -4.2929   -9.1261  -15.0569  C     
10   C        -3.1740   -9.0004  -15.8147  C     
11   O        -4.4143  -10.2073  -14.4885  O     
12   C        -1.8949   -7.9986  -17.5710  C     
13   O        -6.9678   -5.7086  -14.7533  O     
14   C        -6.7804   -5.3297  -13.3759  C     
15   O        -1.9178   -5.1820  -16.8921  O     
16   C        -1.5360   -4.5059  -18.1025  C     
17   C        -6.5155   -8.4930  -14.3853  C     
18   H        -3.8135   -3.3754  -16.7347  H     
19   H        -6.0085   -3.6760  -15.8847  H     
20   H        -2.6002   -9.8049  -15.9489  H     
21   H        -1.9118   -7.1791  -18.2820  H     
22   H        -2.0772   -8.8940  -18.1700  H     
23   H        -0.8963   -8.0719  -17.1324  H     
24   H        -6.0014   -5.9595  -12.9398  H     
25   H        -7.7141   -5.4988  -12.8379  H     
26   H        -6.5132   -4.2752  -13.2820  H     
27   H        -2.0242   -4.9389  -18.9788  H     
28   H        -0.4569   -4.6143  -18.2168  H     
29   H        -1.7596   -3.4412  -18.0437  H     
30   H        -6.5396   -8.1470  -13.3436  H     
31   H        -6.7236   -9.5669  -14.3576  H     
32   H        -7.3523   -8.0747  -14.9443  H     
@<TRIPOS>BOND
     1    1    2 1
     2    1    6 2
     3    1   15 1
     4    2    3 2
     5    3    4 1
     6    4    5 2
     7    4   13 1
     8    5    6 1
     9    5    8 1
    10    6    7 1
    11    7   10 2
    12    7   12 1
    13    8    9 1
    14    8   17 1
    15    9   10 1
    16    9   11 2
    17   13   14 1
    18   15   16 1
    19    2   18 1
    20    3   19 1
    21   10   20 1
    22   12   21 1
    23   12   22 1
    24   12   23 1
    25   14   24 1
    26   14   25 1
    27   14   26 1
    28   16   27 1
    29   16   28 1
    30   16   29 1
    31   17   30 1
    32   17   31 1
    33   17   32 1
@<TRIPOS>PROPERTY_DATA
  Total_Score	| 5.3223
  Crash		| -0.7726
  Polar		| 2.0673
  FragIndex	| 1
  FragRMSD	| 0.486

