@<TRIPOS>MOLECULE
BindingDB_29229
 40 41 0 0 0
SMALL
NO_CHARGES


@<TRIPOS>ATOM
1    C        -3.1977   -5.5030  -16.4336  C     
2    C        -3.9974   -4.3690  -16.1967  C     
3    C        -5.3364   -4.5240  -15.7784  C     
4    C        -5.7483   -5.7935  -15.2993  C     
5    C        -4.9237   -6.9592  -15.4335  C     
6    C        -3.6501   -6.8095  -16.0872  C     
7    C        -2.8582   -7.9778  -16.2931  C     
8    N        -5.2671   -8.2405  -14.9446  N     
9    C        -4.3494   -9.2334  -14.9684  C     
10   C        -3.2145   -9.1241  -15.6748  C     
11   O        -4.5048  -10.3098  -14.3899  O     
12   C        -1.7041   -8.0512  -17.2094  C     
13   O        -6.9759   -5.8331  -14.6974  O     
14   C        -7.0486   -5.2170  -13.3943  C     
15   O        -3.4781   -3.1139  -16.3830  O     
16   C        -2.7161   -2.6283  -15.2523  C     
17   O        -1.8864   -5.2728  -16.8211  O     
18   C        -1.6756   -4.5750  -18.0546  C     
19   O        -6.3249   -3.5625  -15.8342  O     
20   C        -6.0971   -2.1498  -15.9597  C     
21   C        -6.5839   -8.5553  -14.4023  C     
22   H        -2.6471   -9.9374  -15.7951  H     
23   H        -1.9850   -7.6466  -18.1803  H     
24   H        -1.3459   -9.0707  -17.3994  H     
25   H        -0.8525   -7.4981  -16.7990  H     
26   H        -6.3349   -5.6617  -12.6944  H     
27   H        -8.0556   -5.3746  -12.9959  H     
28   H        -6.8674   -4.1374  -13.4394  H     
29   H        -3.3375   -2.5926  -14.3556  H     
30   H        -2.3843   -1.6158  -15.4808  H     
31   H        -1.8268   -3.2300  -15.0549  H     
32   H        -2.2478   -5.0081  -18.8768  H     
33   H        -0.6143   -4.6455  -18.2998  H     
34   H        -1.9233   -3.5161  -17.9663  H     
35   H        -5.5044   -1.7827  -15.1187  H     
36   H        -7.0661   -1.6420  -15.9430  H     
37   H        -5.6037   -1.9152  -16.9107  H     
38   H        -6.7268   -8.0553  -13.4419  H     
39   H        -6.7759   -9.6181  -14.2202  H     
40   H        -7.3604   -8.2370  -15.1037  H     
@<TRIPOS>BOND
     1    1    2 1
     2    1    6 2
     3    1   17 1
     4    2    3 2
     5    2   15 1
     6    3    4 1
     7    3   19 1
     8    4    5 2
     9    4   13 1
    10    5    6 1
    11    5    8 1
    12    6    7 1
    13    7   10 2
    14    7   12 1
    15    8    9 1
    16    8   21 1
    17    9   10 1
    18    9   11 2
    19   13   14 1
    20   15   16 1
    21   17   18 1
    22   19   20 1
    23   10   22 1
    24   12   23 1
    25   12   24 1
    26   12   25 1
    27   14   26 1
    28   14   27 1
    29   14   28 1
    30   16   29 1
    31   16   30 1
    32   16   31 1
    33   18   32 1
    34   18   33 1
    35   18   34 1
    36   20   35 1
    37   20   36 1
    38   20   37 1
    39   21   38 1
    40   21   39 1
    41   21   40 1
@<TRIPOS>PROPERTY_DATA
  Total_Score	| 5.0668
  Crash		| -0.9254
  Polar		| 1.9393
  FragIndex	| 1
  FragRMSD	| 0.530

