@<TRIPOS>MOLECULE
BindingDB_29219
 32 33 0 0 0
SMALL
NO_CHARGES


@<TRIPOS>ATOM
1    C        -3.5555   -5.2295  -16.7214  C     
2    C        -4.4217   -4.1763  -16.4278  C     
3    C        -5.6112   -4.4084  -15.7182  C     
4    C        -5.8994   -5.7141  -15.2425  C     
5    C        -5.0080   -6.8128  -15.5039  C     
6    C        -3.8241   -6.5492  -16.2799  C     
7    C        -2.9327   -7.6105  -16.5839  C     
8    N        -5.1936   -8.1426  -15.0319  N     
9    C        -4.2538   -9.0793  -15.2836  C     
10   C        -3.1769   -8.8282  -16.0661  C     
11   O        -4.2872  -10.2088  -14.8005  O     
12   C        -1.7529   -7.4408  -17.4417  C     
13   O        -7.1277   -5.9037  -14.6527  O     
14   C        -7.3468   -5.4048  -13.3141  C     
15   O        -6.4429   -3.3651  -15.3729  O     
16   C        -6.2999   -2.0863  -16.0007  C     
17   C        -6.3482   -8.5300  -14.2353  C     
18   H        -2.7127   -4.9984  -17.2520  H     
19   H        -4.1728   -3.2364  -16.7428  H     
20   H        -2.5550   -9.5790  -16.2637  H     
21   H        -2.0586   -7.0627  -18.4160  H     
22   H        -1.1996   -8.3680  -17.6206  H     
23   H        -1.0590   -6.7331  -16.9855  H     
24   H        -6.4779   -5.5657  -12.6684  H     
25   H        -8.2028   -5.9335  -12.8824  H     
26   H        -7.5898   -4.3422  -13.3267  H     
27   H        -5.4228   -1.5636  -15.6153  H     
28   H        -7.1813   -1.4856  -15.7617  H     
29   H        -6.2213   -2.1743  -17.0825  H     
30   H        -6.3626   -7.9716  -13.2981  H     
31   H        -6.3830   -9.5843  -13.9495  H     
32   H        -7.2633   -8.3477  -14.8032  H     
@<TRIPOS>BOND
     1    1    2 1
     2    1    6 2
     3    2    3 2
     4    3    4 1
     5    3   15 1
     6    4    5 2
     7    4   13 1
     8    5    6 1
     9    5    8 1
    10    6    7 1
    11    7   10 2
    12    7   12 1
    13    8    9 1
    14    8   17 1
    15    9   10 1
    16    9   11 2
    17   13   14 1
    18   15   16 1
    19    1   18 1
    20    2   19 1
    21   10   20 1
    22   12   21 1
    23   12   22 1
    24   12   23 1
    25   14   24 1
    26   14   25 1
    27   14   26 1
    28   16   27 1
    29   16   28 1
    30   16   29 1
    31   17   30 1
    32   17   31 1
    33   17   32 1
@<TRIPOS>PROPERTY_DATA
  Total_Score	| 4.5302
  Crash		| -0.7881
  Polar		| 1.7305
  FragIndex	| 1
  FragRMSD	| 0.213

