@<TRIPOS>MOLECULE
BindingDB_29225
 36 37 0 0 0
SMALL
NO_CHARGES


@<TRIPOS>ATOM
1    C        -3.9466   -5.1938  -16.7582  C     
2    C        -4.7665   -4.1706  -16.2409  C     
3    C        -5.6897   -4.4641  -15.2173  C     
4    C        -5.8080   -5.7878  -14.7400  C     
5    C        -5.0646   -6.8413  -15.3438  C     
6    C        -4.0443   -6.5330  -16.3001  C     
7    C        -3.1333   -7.5703  -16.6552  C     
8    N        -5.2494   -8.1850  -14.9965  N     
9    C        -4.2371   -9.0517  -15.1634  C     
10   C        -3.1980   -8.7483  -15.9894  C     
11   O        -4.2505  -10.1665  -14.6498  O     
12   C        -2.0636   -7.4572  -17.6542  C     
13   O        -6.3968   -6.0198  -13.5200  O     
14   C        -7.7700   -5.6660  -13.2841  C     
15   O        -6.5352   -3.5043  -14.7196  O     
16   O        -4.6673   -2.8889  -16.7164  O     
17   C        -3.6385   -2.0944  -16.0941  C     
18   C        -6.1330   -2.8778  -13.4895  C     
19   C        -6.5888   -8.6897  -14.7546  C     
20   H        -3.2594   -4.9209  -17.4544  H     
21   H        -2.5221   -9.4592  -16.1741  H     
22   H        -2.0957   -6.5541  -18.2540  H     
23   H        -2.1167   -8.2954  -18.3542  H     
24   H        -1.0937   -7.4921  -17.1554  H     
25   H        -8.3683   -5.6673  -14.1973  H     
26   H        -7.8255   -4.6812  -12.8203  H     
27   H        -8.1848   -6.4122  -12.5894  H     
28   H        -3.7220   -2.0846  -15.0048  H     
29   H        -3.7482   -1.0704  -16.4524  H     
30   H        -2.6397   -2.4432  -16.3717  H     
31   H        -7.0234   -2.4677  -13.0143  H     
32   H        -5.4537   -2.0535  -13.6928  H     
33   H        -5.6656   -3.5738  -12.7917  H     
34   H        -6.6662   -9.7801  -14.7699  H     
35   H        -7.2613   -8.3259  -15.5344  H     
36   H        -6.9658   -8.3517  -13.7979  H     
@<TRIPOS>BOND
     1    1    2 1
     2    1    6 2
     3    2    3 2
     4    2   16 1
     5    3    4 1
     6    3   15 1
     7    4    5 2
     8    4   13 1
     9    5    6 1
    10    5    8 1
    11    6    7 1
    12    7   10 2
    13    7   12 1
    14    8    9 1
    15    8   19 1
    16    9   10 1
    17    9   11 2
    18   13   14 1
    19   15   18 1
    20   16   17 1
    21    1   20 1
    22   10   21 1
    23   12   22 1
    24   12   23 1
    25   12   24 1
    26   14   25 1
    27   14   26 1
    28   14   27 1
    29   17   28 1
    30   17   29 1
    31   17   30 1
    32   18   31 1
    33   18   32 1
    34   18   33 1
    35   19   34 1
    36   19   35 1
    37   19   36 1
@<TRIPOS>PROPERTY_DATA
  Total_Score	| 4.0940
  Crash		| -0.4659
  Polar		| 1.9859
  FragIndex	| 1
  FragRMSD	| 0.486

