@<TRIPOS>MOLECULE
BindingDB_29222
 29 30 0 0 0
SMALL
NO_CHARGES


@<TRIPOS>ATOM
1    C        -3.1315   -5.4189  -16.5800  C     
2    C        -4.0600   -4.3621  -16.4699  C     
3    C        -5.3433   -4.5847  -15.9425  C     
4    C        -5.6861   -5.8474  -15.4214  C     
5    C        -4.7602   -6.9099  -15.5169  C     
6    C        -3.4975   -6.7304  -16.1608  C     
7    C        -2.6869   -7.8892  -16.3120  C     
8    N        -5.0414   -8.1191  -14.9295  N     
9    C        -4.1699   -9.1209  -14.9306  C     
10   C        -3.0219   -9.0327  -15.6606  C     
11   O        -4.4514  -10.1459  -14.3262  O     
12   C        -1.6610   -7.9507  -17.3475  C     
13   O        -6.9259   -6.0289  -14.8650  O     
14   C        -7.0397   -5.4836  -13.5404  C     
15   O        -1.8106   -5.1207  -16.8130  O     
16   C        -1.4550   -4.4865  -18.0493  C     
17   H        -3.7916   -3.4098  -16.7343  H     
18   H        -6.0050   -3.8064  -15.8807  H     
19   H        -5.8708   -8.2228  -14.4350  H     
20   H        -2.4715   -9.8557  -15.7767  H     
21   H        -2.0730   -7.5607  -18.2799  H     
22   H        -1.3045   -8.9592  -17.5593  H     
23   H        -0.7883   -7.3602  -17.0741  H     
24   H        -6.3287   -5.9566  -12.8565  H     
25   H        -8.0422   -5.6816  -13.1697  H     
26   H        -6.8814   -4.4024  -13.5373  H     
27   H        -1.8240   -5.0279  -18.9227  H     
28   H        -0.3707   -4.4652  -18.0955  H     
29   H        -1.8058   -3.4532  -18.0401  H     
@<TRIPOS>BOND
     1    1    2 1
     2    1    6 2
     3    1   15 1
     4    2    3 2
     5    3    4 1
     6    4    5 2
     7    4   13 1
     8    5    6 1
     9    5    8 1
    10    6    7 1
    11    7   10 2
    12    7   12 1
    13    8    9 1
    14    9   10 1
    15    9   11 2
    16   13   14 1
    17   15   16 1
    18    2   17 1
    19    3   18 1
    20    8   19 1
    21   10   20 1
    22   12   21 1
    23   12   22 1
    24   12   23 1
    25   14   24 1
    26   14   25 1
    27   14   26 1
    28   16   27 1
    29   16   28 1
    30   16   29 1
@<TRIPOS>PROPERTY_DATA
  Total_Score	| 4.2489
  Crash		| -0.5833
  Polar		| 2.0214
  FragIndex	| 1
  FragRMSD	| 0.547

