@<TRIPOS>MOLECULE
BindingDB_29213
 27 29 0 0 0
SMALL
NO_CHARGES


@<TRIPOS>ATOM
1    C        -3.5981   -5.1999  -16.8260  C     
2    C        -4.4922   -4.1675  -16.5046  C     
3    C        -5.6039   -4.4640  -15.7130  C     
4    C        -5.8364   -5.7538  -15.2569  C     
5    C        -4.9509   -6.8298  -15.5530  C     
6    C        -3.8030   -6.5320  -16.3654  C     
7    C        -2.9103   -7.5838  -16.6887  C     
8    N        -5.1339   -8.1507  -15.0950  N     
9    C        -4.2365   -9.1010  -15.4342  C     
10   C        -3.1557   -8.8228  -16.2133  C     
11   O        -4.3361  -10.2658  -15.0613  O     
12   O        -6.5485   -3.5873  -15.3204  O     
13   C        -7.2932   -4.3806  -14.3851  C     
14   O        -6.9892   -5.7731  -14.5517  O     
15   C        -1.7226   -7.3730  -17.5237  C     
16   C        -6.2660   -8.4994  -14.2513  C     
17   H        -2.7940   -4.9535  -17.4049  H     
18   H        -4.3375   -3.2163  -16.8446  H     
19   H        -2.5297   -9.5665  -16.4359  H     
20   H        -7.0345   -4.0764  -13.3669  H     
21   H        -8.3621   -4.2185  -14.5363  H     
22   H        -2.0213   -6.9857  -18.4996  H     
23   H        -1.1441   -8.2835  -17.7032  H     
24   H        -1.0559   -6.6555  -17.0413  H     
25   H        -6.2459   -7.8974  -13.3413  H     
26   H        -6.2978   -9.5411  -13.9276  H     
27   H        -7.1969   -8.3143  -14.7900  H     
@<TRIPOS>BOND
     1    1    2 1
     2    1    6 2
     3    2    3 2
     4    3    4 1
     5    3   12 1
     6    4    5 2
     7    4   14 1
     8    5    6 1
     9    5    8 1
    10    6    7 1
    11    7   10 2
    12    7   15 1
    13    8    9 1
    14    8   16 1
    15    9   10 1
    16    9   11 2
    17   12   13 1
    18   13   14 1
    19    1   17 1
    20    2   18 1
    21   10   19 1
    22   13   20 1
    23   13   21 1
    24   15   22 1
    25   15   23 1
    26   15   24 1
    27   16   25 1
    28   16   26 1
    29   16   27 1
@<TRIPOS>PROPERTY_DATA
  Total_Score	| 4.0229
  Crash		| -0.2836
  Polar		| 1.3712
  FragIndex	| 1
  FragRMSD	| 0.406

