@<TRIPOS>MOLECULE
BindingDB_50355638
 40 42 0 0 0
SMALL
NO_CHARGES


@<TRIPOS>ATOM
1    O        19.5210   29.9974   60.5264  O     
2    S        20.1971   30.8646   59.3772  S     
3    O        19.9106   32.3703   59.7993  O     
4    S        18.2307   30.7630   55.1476  S     
5    C        18.1550   29.4680   56.2820  C     
6    C        17.3749   28.4635   55.6627  C     
7    C        16.8742   28.8085   54.3876  C     
8    C        17.2693   30.0573   53.9166  C     
9    C        18.7630   29.5113   57.5336  C     
10   O        18.7130   28.5392   58.2784  O     
11   N        19.3869   30.6183   57.9175  N     
12   S        16.9661   26.9269   56.3823  S     
13   C        17.6042   25.8673   55.0635  C     
14   C        17.6178   24.4571   55.5218  C     
15   C        16.5384   23.5925   55.2271  C     
16   C        16.5376   22.2545   55.6719  C     
17   C        17.6270   21.7706   56.4327  C     
18   C        18.7006   22.6283   56.7343  C     
19   C        18.6963   23.9583   56.2846  C     
20   Cl       17.6914   20.1798   57.0177  Cl    
21   Cl       15.2088   21.2781   55.2705  Cl    
22   C        21.9126   30.5341   59.2950  C     
23   C        22.3581   29.2193   59.0399  C     
24   C        23.7344   28.9389   58.9416  C     
25   C        24.6763   29.9662   59.1009  C     
26   C        24.2441   31.2763   59.3685  C     
27   C        22.8661   31.5628   59.4617  C     
28   H        16.2611   28.1994   53.8379  H     
29   H        17.0245   30.4917   53.0226  H     
30   H        19.3916   31.3587   57.2953  H     
31   H        16.9710   25.9665   54.1791  H     
32   H        18.6068   26.1942   54.7842  H     
33   H        15.7445   23.9425   54.6839  H     
34   H        19.4918   22.2924   57.2902  H     
35   H        19.4862   24.5648   56.5250  H     
36   H        21.6880   28.4576   58.9206  H     
37   H        24.0492   27.9848   58.7561  H     
38   H        25.6776   29.7578   59.0281  H     
39   H        24.9327   32.0219   59.4924  H     
40   H        22.5646   32.5218   59.6472  H     
@<TRIPOS>BOND
     1    1    2 2
     2    2    3 2
     3    2   11 1
     4    2   22 1
     5    4    5 1
     6    4    8 1
     7    5    6 2
     8    5    9 1
     9    6    7 1
    10    6   12 1
    11    7    8 2
    12    9   10 2
    13    9   11 am
    14   12   13 1
    15   13   14 1
    16   14   15 2
    17   14   19 1
    18   15   16 1
    19   16   17 2
    20   16   21 1
    21   17   18 1
    22   17   20 1
    23   18   19 2
    24   22   23 2
    25   22   27 1
    26   23   24 1
    27   24   25 2
    28   25   26 1
    29   26   27 2
    30    7   28 1
    31    8   29 1
    32   11   30 1
    33   13   31 1
    34   13   32 1
    35   15   33 1
    36   18   34 1
    37   19   35 1
    38   23   36 1
    39   24   37 1
    40   25   38 1
    41   26   39 1
    42   27   40 1
@<TRIPOS>PROPERTY_DATA
  Total_Score	| 6.4225
  Crash		| -1.9822
  Polar		| 1.1962
  FragIndex	| 1
  FragRMSD	| 0.124

