@<TRIPOS>MOLECULE
BindingDB_50355636
 25 26 0 0 0
SMALL
NO_CHARGES


@<TRIPOS>ATOM
1    Cl       15.1669   21.2771   55.2353  Cl    
2    Cl       17.6264   20.1871   57.0251  Cl    
3    S        16.9566   26.8826   56.3430  S     
4    S        18.3196   30.7336   55.2848  S     
5    O        19.4914   30.4185   58.0803  O     
6    O        18.7550   28.2590   58.4041  O     
7    C        17.4062   28.4237   55.6737  C     
8    C        18.1987   29.3800   56.3409  C     
9    C        17.5983   24.4296   55.4674  C     
10   C        18.8056   29.3500   57.6128  C     
11   C        16.9530   28.8365   54.4022  C     
12   C        16.5003   22.2457   55.6359  C     
13   C        17.5959   25.8371   55.0144  C     
14   C        17.5791   21.7692   56.4180  C     
15   C        16.5166   23.5717   55.1641  C     
16   C        17.3780   30.0998   54.0020  C     
17   C        18.6644   23.9458   56.2543  C     
18   C        18.6563   22.6229   56.7246  C     
19   H        16.3553   28.2684   53.8045  H     
20   H        16.9514   25.9573   54.1462  H     
21   H        18.6045   26.1428   54.7254  H     
22   H        15.7282   23.9185   54.6138  H     
23   H        17.1547   30.5683   53.1205  H     
24   H        19.4491   24.5555   56.4959  H     
25   H        19.4342   22.2914   57.2971  H     
@<TRIPOS>BOND
     1    1   12 1
     2    2   14 1
     3    3    7 1
     4    3   13 1
     5    4    8 1
     6    4   16 1
     7    5   10 2
     8    6   10 1
     9    7    8 2
    10    7   11 1
    11    8   10 1
    12    9   13 1
    13    9   15 1
    14    9   17 2
    15   11   16 2
    16   12   14 1
    17   12   15 2
    18   14   18 2
    19   17   18 1
    20   11   19 1
    21   13   20 1
    22   13   21 1
    23   15   22 1
    24   16   23 1
    25   17   24 1
    26   18   25 1
@<TRIPOS>PROPERTY_DATA
  Total_Score	| 5.7863
  Crash		| -1.2437
  Polar		| 1.3649
  FragIndex	| 1
  FragRMSD	| 0.093

