@<TRIPOS>MOLECULE
BindingDB_50355635
 25 26 0 0 0
SMALL
NO_CHARGES


@<TRIPOS>ATOM
1    S        18.2832   30.8773   55.3112  S     
2    C        18.1399   29.5024   56.3311  C     
3    C        17.3167   28.5895   55.6442  C     
4    C        16.8781   29.0279   54.3762  C     
5    C        17.3191   30.3009   54.0188  C     
6    C        18.7577   29.4418   57.5976  C     
7    O        19.4863   30.4936   58.0487  O     
8    O        18.6856   28.3616   58.3889  O     
9    S        16.8013   27.0458   56.2660  S     
10   C        17.8717   26.0661   55.1853  C     
11   C        17.8292   24.6427   55.5820  C     
12   C        16.7136   23.8404   55.2534  C     
13   C        16.6604   22.4865   55.6378  C     
14   C        17.7302   21.9212   56.3630  C     
15   C        18.8438   22.7149   56.6869  C     
16   C        18.9000   24.0596   56.2890  C     
17   Br       15.1576   21.4917   55.1767  Br    
18   Br       17.7183   20.1541   56.9188  Br    
19   H        16.2679   28.4864   53.7679  H     
20   H        17.0970   30.8211   53.1707  H     
21   H        17.5483   26.1689   54.1514  H     
22   H        18.8817   26.4726   55.2637  H     
23   H        15.9266   24.2462   54.7389  H     
24   H        19.6171   22.3122   57.2213  H     
25   H        19.7255   24.6115   56.5351  H     
@<TRIPOS>BOND
     1    1    2 1
     2    1    5 1
     3    2    3 2
     4    2    6 1
     5    3    4 1
     6    3    9 1
     7    4    5 2
     8    6    7 2
     9    6    8 1
    10    9   10 1
    11   10   11 1
    12   11   12 2
    13   11   16 1
    14   12   13 1
    15   13   14 2
    16   13   17 1
    17   14   15 1
    18   14   18 1
    19   15   16 2
    20    4   19 1
    21    5   20 1
    22   10   21 1
    23   10   22 1
    24   12   23 1
    25   15   24 1
    26   16   25 1
@<TRIPOS>PROPERTY_DATA
  Total_Score	| 4.9886
  Crash		| -2.0974
  Polar		| 1.4482
  FragIndex	| 1
  FragRMSD	| 0.214

