@<TRIPOS>MOLECULE
BindingDB_50355640
 25 26 0 0 0
SMALL
NO_CHARGES


@<TRIPOS>ATOM
1    S        18.3571   30.6729   55.1669  S     
2    C        18.2333   29.3424   56.2511  C     
3    C        17.3463   28.4250   55.6598  C     
4    C        16.8172   28.8493   54.4221  C     
5    C        17.2813   30.0833   53.9755  C     
6    C        18.9093   29.3016   57.4857  C     
7    O        19.7050   30.3288   57.8639  O     
8    O        18.7228   28.3084   58.3812  O     
9    S        16.8974   26.9004   56.3846  S     
10   C        17.4469   25.8070   55.0504  C     
11   C        17.4990   24.4088   55.5349  C     
12   C        18.6281   23.9439   56.2533  C     
13   C        18.6888   22.6164   56.7141  C     
14   C        17.6191   21.7358   56.4664  C     
15   C        16.4844   22.1902   55.7663  C     
16   C        16.4285   23.5156   55.2989  C     
17   Cl       17.6876   20.1451   57.0328  Cl    
18   H        16.1376   28.3103   53.8854  H     
19   H        17.0174   30.5645   53.1155  H     
20   H        16.7415   25.9052   54.2221  H     
21   H        18.4337   26.1076   54.6860  H     
22   H        19.4112   24.5718   56.4466  H     
23   H        19.5114   22.2970   57.2312  H     
24   H        15.6955   21.5609   55.5956  H     
25   H        15.5936   23.8291   54.7949  H     
@<TRIPOS>BOND
     1    1    2 1
     2    1    5 1
     3    2    3 2
     4    2    6 1
     5    3    4 1
     6    3    9 1
     7    4    5 2
     8    6    7 2
     9    6    8 1
    10    9   10 1
    11   10   11 1
    12   11   12 2
    13   11   16 1
    14   12   13 1
    15   13   14 2
    16   14   15 1
    17   14   17 1
    18   15   16 2
    19    4   18 1
    20    5   19 1
    21   10   20 1
    22   10   21 1
    23   12   22 1
    24   13   23 1
    25   15   24 1
    26   16   25 1
@<TRIPOS>PROPERTY_DATA
  Total_Score	| 5.1837
  Crash		| -1.2889
  Polar		| 1.3721
  FragIndex	| 1
  FragRMSD	| 0.138

