@<TRIPOS>MOLECULE
BindingDB_50355642
 42 44 0 0 0
SMALL
NO_CHARGES


@<TRIPOS>ATOM
1    O        20.9194   32.5276   59.0331  O     
2    S        19.7638   31.4885   59.3568  S     
3    O        20.5746   30.2976   60.0221  O     
4    S        18.1531   30.8888   55.0528  S     
5    C        18.1524   29.6301   56.2401  C     
6    C        17.4857   28.5408   55.6334  C     
7    C        16.9984   28.8054   54.3308  C     
8    C        17.2976   30.0701   53.8235  C     
9    C        18.7023   29.8150   57.5025  C     
10   O        18.6589   28.8970   58.3375  O     
11   N        19.1311   31.0088   57.8602  N     
12   S        17.1568   27.0178   56.4454  S     
13   C        17.5253   25.8472   55.1108  C     
14   C        17.5094   24.4512   55.6034  C     
15   C        16.4494   23.5735   55.2846  C     
16   C        16.4850   22.2238   55.6866  C     
17   C        17.5928   21.7439   56.4265  C     
18   C        18.6409   22.6244   56.7600  C     
19   C        18.5996   23.9679   56.3546  C     
20   Cl       17.7157   20.1338   56.9383  Cl    
21   Cl       15.1876   21.2207   55.2499  Cl    
22   C        18.6027   32.1247   60.4896  C     
23   C        18.7040   33.4509   60.9471  C     
24   C        17.7529   33.9619   61.8498  C     
25   C        16.6916   33.1542   62.2887  C     
26   C        16.5836   31.8242   61.8350  C     
27   C        17.5459   31.3058   60.9442  C     
28   N        15.5598   31.0511   62.2421  N     
29   H        16.4505   28.1577   53.7707  H     
30   H        17.0226   30.4542   52.9216  H     
31   H        19.0793   31.7141   57.1862  H     
32   H        16.7783   25.9609   54.3262  H     
33   H        18.5050   26.0744   54.6809  H     
34   H        15.6480   23.9149   54.7467  H     
35   H        19.4468   22.2866   57.2951  H     
36   H        19.3806   24.5852   56.5862  H     
37   H        19.4580   34.0663   60.6350  H     
38   H        17.8343   34.9249   62.1774  H     
39   H        16.0026   33.5385   62.9395  H     
40   H        17.4646   30.3394   60.6219  H     
41   H        15.4967   30.1291   61.9413  H     
42   H        14.8629   31.4223   62.8125  H     
@<TRIPOS>BOND
     1    1    2 2
     2    2    3 2
     3    2   11 1
     4    2   22 1
     5    4    5 1
     6    4    8 1
     7    5    6 2
     8    5    9 1
     9    6    7 1
    10    6   12 1
    11    7    8 2
    12    9   10 2
    13    9   11 am
    14   12   13 1
    15   13   14 1
    16   14   15 2
    17   14   19 1
    18   15   16 1
    19   16   17 2
    20   16   21 1
    21   17   18 1
    22   17   20 1
    23   18   19 2
    24   22   23 2
    25   22   27 1
    26   23   24 1
    27   24   25 2
    28   25   26 1
    29   26   27 2
    30   26   28 1
    31    7   29 1
    32    8   30 1
    33   11   31 1
    34   13   32 1
    35   13   33 1
    36   15   34 1
    37   18   35 1
    38   19   36 1
    39   23   37 1
    40   24   38 1
    41   25   39 1
    42   27   40 1
    43   28   41 1
    44   28   42 1
@<TRIPOS>PROPERTY_DATA
  Total_Score	| 7.6135
  Crash		| -1.7993
  Polar		| 3.2879
  FragIndex	| 1
  FragRMSD	| 0.266

