@<TRIPOS>MOLECULE
BindingDB_50355648
 31 33 0 0 0
SMALL
NO_CHARGES


@<TRIPOS>ATOM
1    S        18.3188   30.8185   55.2460  S     
2    C        18.1758   29.4771   56.3122  C     
3    C        17.3475   28.5452   55.6595  C     
4    C        16.8999   28.9473   54.3868  C     
5    C        17.3428   30.2045   53.9816  C     
6    C        18.7918   29.4304   57.5800  C     
7    O        19.5587   30.4570   58.0129  O     
8    O        18.6502   28.3676   58.4051  O     
9    S        16.8215   27.0315   56.3358  S     
10   C        18.1857   26.0425   55.6711  C     
11   C        17.9535   24.6073   55.8078  C     
12   C        16.8293   24.0609   55.2911  C     
13   C        18.6811   22.4494   56.5395  C     
14   C        18.8869   23.7751   56.3940  C     
15   C        17.4934   21.8666   56.0822  C     
16   C        16.5382   22.7075   55.4451  C     
17   C        15.3215   22.1665   54.9775  C     
18   C        15.0642   20.7953   55.1123  C     
19   C        16.0144   19.9559   55.7186  C     
20   C        17.2217   20.4844   56.2120  C     
21   H        16.2823   28.3782   53.8059  H     
22   H        17.1102   30.6808   53.1142  H     
23   H        18.3161   26.2590   54.6079  H     
24   H        19.0963   26.3479   56.1938  H     
25   H        16.1788   24.6372   54.8100  H     
26   H        19.3859   21.8852   56.9644  H     
27   H        19.7638   24.1399   56.6866  H     
28   H        14.6203   22.7646   54.5393  H     
29   H        14.1802   20.4142   54.7790  H     
30   H        15.8246   18.9550   55.8005  H     
31   H        17.8981   19.8590   56.6611  H     
@<TRIPOS>BOND
     1    1    2 1
     2    1    5 1
     3    2    3 2
     4    2    6 1
     5    3    4 1
     6    3    9 1
     7    4    5 2
     8    6    7 2
     9    6    8 1
    10    9   10 1
    11   10   11 1
    12   11   12 2
    13   11   14 1
    14   12   16 1
    15   13   14 2
    16   13   15 1
    17   15   16 1
    18   15   20 2
    19   16   17 2
    20   17   18 1
    21   18   19 2
    22   19   20 1
    23    4   21 1
    24    5   22 1
    25   10   23 1
    26   10   24 1
    27   12   25 1
    28   13   26 1
    29   14   27 1
    30   17   28 1
    31   18   29 1
    32   19   30 1
    33   20   31 1
@<TRIPOS>PROPERTY_DATA
  Total_Score	| 5.6227
  Crash		| -2.9618
  Polar		| 1.4566
  FragIndex	| 1
  FragRMSD	| 0.337

