@<TRIPOS>MOLECULE
BindingDB_50355637
 27 28 0 0 0
SMALL
NO_CHARGES


@<TRIPOS>ATOM
1    O        15.8835   26.8402   56.8060  O     
2    S        17.3845   26.9434   56.2858  S     
3    O        18.3332   26.5136   57.4879  O     
4    S        18.2248   30.9900   55.2752  S     
5    C        18.2869   29.6399   56.3436  C     
6    C        17.6250   28.5729   55.6908  C     
7    C        17.0911   28.9228   54.4321  C     
8    C        17.3406   30.2321   54.0220  C     
9    C        18.9070   29.7526   57.6116  C     
10   O        18.8619   28.7702   58.5522  O     
11   O        19.5136   30.9108   57.9820  O     
12   C        17.5652   25.7251   54.9549  C     
13   C        17.5709   24.3250   55.4558  C     
14   C        16.5030   23.4419   55.1737  C     
15   C        16.5120   22.1195   55.6548  C     
16   C        17.5929   21.6701   56.4462  C     
17   C        18.6717   22.5323   56.7052  C     
18   C        18.6654   23.8435   56.2084  C     
19   Cl       17.6419   20.1170   57.1192  Cl    
20   Cl       15.2089   21.1120   55.2412  Cl    
21   H        16.5527   28.2782   53.8425  H     
22   H        17.0369   30.6733   53.1511  H     
23   H        16.7391   25.8780   54.2644  H     
24   H        18.4965   25.9214   54.4126  H     
25   H        15.7135   23.7659   54.6109  H     
26   H        19.4690   22.2116   57.2610  H     
27   H        19.4660   24.4515   56.4031  H     
@<TRIPOS>BOND
     1    1    2 2
     2    2    3 2
     3    2    6 1
     4    2   12 1
     5    4    5 1
     6    4    8 1
     7    5    6 2
     8    5    9 1
     9    6    7 1
    10    7    8 2
    11    9   10 2
    12    9   11 1
    13   12   13 1
    14   13   14 2
    15   13   18 1
    16   14   15 1
    17   15   16 2
    18   15   20 1
    19   16   17 1
    20   16   19 1
    21   17   18 2
    22    7   21 1
    23    8   22 1
    24   12   23 1
    25   12   24 1
    26   14   25 1
    27   17   26 1
    28   18   27 1
@<TRIPOS>PROPERTY_DATA
  Total_Score	| 6.2423
  Crash		| -1.6132
  Polar		| 1.5856
  FragIndex	| 1
  FragRMSD	| 0.830

