@<TRIPOS>MOLECULE
BindingDB_50355645
 31 32 0 0 0
SMALL
NO_CHARGES


@<TRIPOS>ATOM
1    S        18.2552   30.7564   55.2751  S     
2    C        18.1308   29.4072   56.3404  C     
3    C        17.3463   28.4450   55.6716  C     
4    C        16.9023   28.8470   54.3927  C     
5    C        17.3221   30.1118   53.9952  C     
6    C        18.7336   29.3802   57.6129  C     
7    O        19.4094   30.4551   58.0770  O     
8    O        18.7013   28.2860   58.4021  O     
9    S        16.9002   26.9048   56.3486  S     
10   C        17.5934   25.8671   55.0421  C     
11   C        17.6220   24.4584   55.4930  C     
12   C        16.5494   23.5824   55.2069  C     
13   C        16.5581   22.2371   55.6418  C     
14   C        17.6713   21.7576   56.3935  C     
15   C        18.7438   22.6376   56.6762  C     
16   C        18.7164   23.9696   56.2337  C     
17   C        15.3742   21.4153   55.2724  C     
18   C        17.7550   20.3617   56.8889  C     
19   H        16.3131   28.2649   53.7948  H     
20   H        17.1064   30.5754   53.1141  H     
21   H        16.9759   25.9649   54.1517  H     
22   H        18.6009   26.1996   54.7892  H     
23   H        15.7497   23.9381   54.6792  H     
24   H        19.5552   22.3244   57.2077  H     
25   H        19.5050   24.5865   56.4607  H     
26   H        14.4736   21.8690   55.6886  H     
27   H        15.4274   20.3911   55.6326  H     
28   H        15.2746   21.3776   54.1863  H     
29   H        16.9145   20.1528   57.5518  H     
30   H        18.6713   20.1656   57.4464  H     
31   H        17.7296   19.6774   56.0407  H     
@<TRIPOS>BOND
     1    1    2 1
     2    1    5 1
     3    2    3 2
     4    2    6 1
     5    3    4 1
     6    3    9 1
     7    4    5 2
     8    6    7 2
     9    6    8 1
    10    9   10 1
    11   10   11 1
    12   11   12 2
    13   11   16 1
    14   12   13 1
    15   13   14 2
    16   13   17 1
    17   14   15 1
    18   14   18 1
    19   15   16 2
    20    4   19 1
    21    5   20 1
    22   10   21 1
    23   10   22 1
    24   12   23 1
    25   15   24 1
    26   16   25 1
    27   17   26 1
    28   17   27 1
    29   17   28 1
    30   18   29 1
    31   18   30 1
    32   18   31 1
@<TRIPOS>PROPERTY_DATA
  Total_Score	| 7.1697
  Crash		| -1.3782
  Polar		| 1.4032
  FragIndex	| 1
  FragRMSD	| 0.086

