@<TRIPOS>MOLECULE
BindingDB_50355650
 37 38 0 0 0
SMALL
NO_CHARGES


@<TRIPOS>ATOM
1    C        18.1251   30.0994   53.9243  C     
2    C        18.7800   30.9151   54.8651  C     
3    C        18.9010   30.4994   56.1955  C     
4    C        18.3570   29.2770   56.6509  C     
5    C        17.6013   28.4922   55.7252  C     
6    C        17.5050   28.9116   54.3660  C     
7    S        16.8054   26.9946   56.1870  S     
8    C        17.6752   25.8854   55.0543  C     
9    C        17.6233   24.4772   55.5299  C     
10   C        16.5338   23.6365   55.1890  C     
11   C        16.4881   22.2887   55.6294  C     
12   C        17.5499   21.7768   56.4160  C     
13   C        18.6321   22.6103   56.7570  C     
14   C        18.6628   23.9420   56.3255  C     
15   C        18.5851   28.9175   58.0032  C     
16   O        19.8318   28.8184   58.5354  O     
17   O        17.6162   29.0766   58.9236  O     
18   Cl       15.1520   21.3412   55.1947  Cl    
19   Cl       17.5787   20.1793   56.9727  Cl    
20   C        18.1703   30.4480   52.6616  C     
21   C        18.3172   30.7923   51.5225  C     
22   C        18.5586   31.1865   50.2266  C     
23   C        17.3495   31.8426   49.5225  C     
24   O        17.1830   33.2116   49.8821  O     
25   H        19.2056   31.7975   54.5822  H     
26   H        19.3989   31.1091   56.8378  H     
27   H        16.9947   28.3248   53.6902  H     
28   H        17.2095   25.9576   54.0731  H     
29   H        18.7114   26.2216   54.9578  H     
30   H        15.7846   24.0015   54.6036  H     
31   H        19.3968   22.2450   57.3276  H     
32   H        19.4627   24.5315   56.5967  H     
33   H        19.3848   31.8960   50.2265  H     
34   H        18.8688   30.3098   49.6555  H     
35   H        17.5245   31.7933   48.4406  H     
36   H        16.4280   31.2998   49.7472  H     
37   H        16.5730   33.2039   50.6480  H     
@<TRIPOS>BOND
     1    1    2 2
     2    1    6 1
     3    1   20 1
     4    2    3 1
     5    3    4 2
     6    4    5 1
     7    4   15 1
     8    5    6 2
     9    5    7 1
    10    7    8 1
    11    8    9 1
    12    9   10 2
    13    9   14 1
    14   10   11 1
    15   11   12 2
    16   11   18 1
    17   12   13 1
    18   12   19 1
    19   13   14 2
    20   15   16 2
    21   15   17 1
    22   20   21 3
    23   21   22 1
    24   22   23 1
    25   23   24 1
    26    2   25 1
    27    3   26 1
    28    6   27 1
    29    8   28 1
    30    8   29 1
    31   10   30 1
    32   13   31 1
    33   14   32 1
    34   22   33 1
    35   22   34 1
    36   23   35 1
    37   23   36 1
    38   24   37 1
@<TRIPOS>PROPERTY_DATA
  Total_Score	| 8.0926
  Crash		| -3.3731
  Polar		| 3.9575
  FragIndex	| 1
  FragRMSD	| 0.619

