@<TRIPOS>MOLECULE
BindingDB_50355644
 28 29 0 0 0
SMALL
NO_CHARGES


@<TRIPOS>ATOM
1    C        18.2446   29.9931   53.8464  C     
2    C        18.7203   30.8833   54.8175  C     
3    C        18.6923   30.5348   56.1772  C     
4    C        18.1677   29.2903   56.5877  C     
5    C        17.6130   28.4166   55.6119  C     
6    C        17.6818   28.7657   54.2366  C     
7    S        16.8080   26.9438   56.1134  S     
8    C        17.7329   25.8085   55.0670  C     
9    C        17.6751   24.4127   55.5547  C     
10   C        16.5656   23.5877   55.2625  C     
11   C        16.5374   22.2407   55.6777  C     
12   C        17.6227   21.7138   56.4164  C     
13   C        18.7247   22.5348   56.7195  C     
14   C        18.7546   23.8699   56.2863  C     
15   C        18.3197   28.9048   57.9393  C     
16   O        19.1724   27.8973   58.2129  O     
17   O        18.1219   29.7805   58.9459  O     
18   Cl       15.1962   21.2977   55.2475  Cl    
19   Cl       17.6539   20.1151   56.9720  Cl    
20   Br       18.4465   30.4173   52.0453  Br    
21   H        19.1347   31.7684   54.5286  H     
22   H        19.1003   31.1807   56.8585  H     
23   H        17.3717   28.1199   53.4972  H     
24   H        17.2814   25.8792   54.0854  H     
25   H        18.7681   26.1430   54.9886  H     
26   H        15.7788   23.9676   54.7282  H     
27   H        19.5151   22.1667   57.2556  H     
28   H        19.5717   24.4432   56.5111  H     
@<TRIPOS>BOND
     1    1    2 2
     2    1    6 1
     3    1   20 1
     4    2    3 1
     5    3    4 2
     6    4    5 1
     7    4   15 1
     8    5    6 2
     9    5    7 1
    10    7    8 1
    11    8    9 1
    12    9   10 2
    13    9   14 1
    14   10   11 1
    15   11   12 2
    16   11   18 1
    17   12   13 1
    18   12   19 1
    19   13   14 2
    20   15   16 2
    21   15   17 1
    22    2   21 1
    23    3   22 1
    24    6   23 1
    25    8   24 1
    26    8   25 1
    27   10   26 1
    28   13   27 1
    29   14   28 1
@<TRIPOS>PROPERTY_DATA
  Total_Score	| 5.8196
  Crash		| -2.8185
  Polar		| 2.5238
  FragIndex	| 1
  FragRMSD	| 0.818

