@<TRIPOS>MOLECULE
BindingDB_50355653
 25 26 0 0 0
SMALL
NO_CHARGES


@<TRIPOS>ATOM
1    S        18.3258   30.7252   55.2691  S     
2    C        18.1914   29.3702   56.3222  C     
3    C        17.3962   28.4173   55.6544  C     
4    C        16.9221   28.8512   54.3944  C     
5    C        17.3556   30.1138   53.9978  C     
6    C        18.8063   29.3485   57.5911  C     
7    O        19.4929   30.4237   58.0327  O     
8    O        18.7045   28.2992   58.4315  O     
9    S        16.9298   26.8795   56.3393  S     
10   C        17.5621   25.7871   55.0427  C     
11   C        17.5563   24.3764   55.4937  C     
12   C        16.4903   23.5139   55.1578  C     
13   C        16.4658   22.1825   55.6136  C     
14   C        17.5251   21.6882   56.3952  C     
15   C        18.6122   22.5284   56.7096  C     
16   C        18.6204   23.8635   56.2770  C     
17   Cl       15.1534   21.1904   55.2253  Cl    
18   H        16.2956   28.2962   53.8112  H     
19   H        17.1238   30.6091   53.1409  H     
20   H        16.9285   25.9190   54.1640  H     
21   H        18.5749   26.0828   54.7594  H     
22   H        15.7106   23.8618   54.5944  H     
23   H        17.5063   20.7282   56.7503  H     
24   H        19.3850   22.1625   57.2717  H     
25   H        19.4089   24.4636   56.5343  H     
@<TRIPOS>BOND
     1    1    2 1
     2    1    5 1
     3    2    3 2
     4    2    6 1
     5    3    4 1
     6    3    9 1
     7    4    5 2
     8    6    7 2
     9    6    8 1
    10    9   10 1
    11   10   11 1
    12   11   12 2
    13   11   16 1
    14   12   13 1
    15   13   14 2
    16   13   17 1
    17   14   15 1
    18   15   16 2
    19    4   18 1
    20    5   19 1
    21   10   20 1
    22   10   21 1
    23   12   22 1
    24   14   23 1
    25   15   24 1
    26   16   25 1
@<TRIPOS>PROPERTY_DATA
  Total_Score	| 5.2370
  Crash		| -1.0418
  Polar		| 1.3917
  FragIndex	| 1
  FragRMSD	| 0.103

