@<TRIPOS>MOLECULE
BindingDB_50355647
 25 26 0 0 0
SMALL
NO_CHARGES


@<TRIPOS>ATOM
1    S        17.9088   30.7483   55.9372  S     
2    C        18.2378   29.1058   56.3231  C     
3    C        17.9851   28.3492   55.1627  C     
4    C        17.5317   29.1128   54.0706  C     
5    C        17.4220   30.4793   54.3140  C     
6    C        18.7134   28.7013   57.5760  C     
7    O        19.6628   27.7482   57.6770  O     
8    O        18.3090   29.3285   58.7039  O     
9    S        18.2660   26.6433   54.9496  S     
10   C        17.1162   25.9593   56.1659  C     
11   C        17.2150   24.4751   56.1926  C     
12   C        18.4295   23.8425   56.5561  C     
13   C        18.5263   22.4387   56.6111  C     
14   C        17.4056   21.6449   56.3078  C     
15   C        16.1910   22.2548   55.9481  C     
16   C        16.0971   23.6593   55.8905  C     
17   H        17.3184   28.7108   53.1575  H     
18   H        17.1221   31.1909   53.6466  H     
19   H        17.3515   26.3380   57.1607  H     
20   H        16.1079   26.2913   55.9088  H     
21   H        19.2552   24.4045   56.7771  H     
22   H        19.4108   21.9968   56.8703  H     
23   H        17.4733   20.6254   56.3480  H     
24   H        15.3727   21.6774   55.7348  H     
25   H        15.2026   24.0825   55.6329  H     
@<TRIPOS>BOND
     1    1    2 1
     2    1    5 1
     3    2    3 2
     4    2    6 1
     5    3    4 1
     6    3    9 1
     7    4    5 2
     8    6    7 2
     9    6    8 1
    10    9   10 1
    11   10   11 1
    12   11   12 2
    13   11   16 1
    14   12   13 1
    15   13   14 2
    16   14   15 1
    17   15   16 2
    18    4   17 1
    19    5   18 1
    20   10   19 1
    21   10   20 1
    22   12   21 1
    23   13   22 1
    24   14   23 1
    25   15   24 1
    26   16   25 1
@<TRIPOS>PROPERTY_DATA
  Total_Score	| 5.0491
  Crash		| -1.5280
  Polar		| 2.4710
  FragIndex	| 1
  FragRMSD	| 1.063

