@<TRIPOS>MOLECULE
BindingDB_50355643
 33 34 0 0 0
SMALL
NO_CHARGES


@<TRIPOS>ATOM
1    O        19.4624   32.8301   59.9074  O     
2    S        19.0012   31.3134   59.8500  S     
3    O        20.2217   30.4775   60.4252  O     
4    S        18.1072   30.9720   55.3178  S     
5    C        18.1303   29.6294   56.3983  C     
6    C        17.6300   28.5229   55.6640  C     
7    C        17.2755   28.8357   54.3265  C     
8    C        17.4788   30.1563   53.9459  C     
9    C        18.5296   29.7480   57.7251  C     
10   O        18.5811   28.7663   58.4540  O     
11   N        18.7694   30.9457   58.2236  N     
12   S        17.3590   26.9529   56.4012  S     
13   C        17.4744   25.8119   55.0051  C     
14   C        17.5229   24.4185   55.5015  C     
15   C        16.4687   23.5160   55.2193  C     
16   C        16.5120   22.1862   55.6791  C     
17   C        17.6224   21.7502   56.4373  C     
18   C        18.6800   22.6396   56.7139  C     
19   C        18.6356   23.9633   56.2472  C     
20   Cl       17.7231   20.1865   57.0647  Cl    
21   Cl       15.2375   21.1440   55.2492  Cl    
22   C        17.5124   31.1140   60.8453  C     
23   H        16.8672   28.1692   53.6664  H     
24   H        17.2741   30.5610   53.0323  H     
25   H        18.7111   31.7020   57.6170  H     
26   H        16.5993   25.9841   54.3753  H     
27   H        18.3773   26.0132   54.4146  H     
28   H        15.6605   23.8262   54.6671  H     
29   H        19.4926   22.3282   57.2528  H     
30   H        19.4182   24.5956   56.4486  H     
31   H        17.7179   31.3794   61.8828  H     
32   H        17.1822   30.0734   60.8035  H     
33   H        16.7175   31.7524   60.4614  H     
@<TRIPOS>BOND
     1    1    2 2
     2    2    3 2
     3    2   11 1
     4    2   22 1
     5    4    5 1
     6    4    8 1
     7    5    6 2
     8    5    9 1
     9    6    7 1
    10    6   12 1
    11    7    8 2
    12    9   10 2
    13    9   11 am
    14   12   13 1
    15   13   14 1
    16   14   15 2
    17   14   19 1
    18   15   16 1
    19   16   17 2
    20   16   21 1
    21   17   18 1
    22   17   20 1
    23   18   19 2
    24    7   23 1
    25    8   24 1
    26   11   25 1
    27   13   26 1
    28   13   27 1
    29   15   28 1
    30   18   29 1
    31   19   30 1
    32   22   31 1
    33   22   32 1
    34   22   33 1
@<TRIPOS>PROPERTY_DATA
  Total_Score	| 6.5845
  Crash		| -1.6055
  Polar		| 2.2944
  FragIndex	| 1
  FragRMSD	| 0.297

