@<TRIPOS>MOLECULE
BindingDB_50355652
 28 29 0 0 0
SMALL
NO_CHARGES


@<TRIPOS>ATOM
1    C        17.6061   30.1787   53.9929  C     
2    C        18.4475   30.9112   54.8428  C     
3    C        18.7036   30.4588   56.1478  C     
4    C        18.1865   29.2183   56.5886  C     
5    C        17.3970   28.4335   55.7036  C     
6    C        17.0817   28.9444   54.4212  C     
7    S        16.7306   26.9005   56.2184  S     
8    C        17.5700   25.8246   55.0320  C     
9    C        17.5396   24.4221   55.5065  C     
10   C        16.4666   23.5657   55.1781  C     
11   C        16.4394   22.2304   55.6348  C     
12   C        17.4993   21.7427   56.4351  C     
13   C        18.5731   22.5914   56.7630  C     
14   C        18.5904   23.9201   56.3078  C     
15   C        18.4752   28.7978   57.9013  C     
16   O        19.3700   27.8072   58.0960  O     
17   O        18.1930   29.5833   58.9609  O     
18   Cl       15.1257   21.2573   55.1836  Cl    
19   Cl       17.5331   20.1577   57.0347  Cl    
20   H        17.3877   30.5364   53.0604  H     
21   H        18.8571   31.7873   54.5186  H     
22   H        19.2933   31.0239   56.7646  H     
23   H        16.4367   28.4575   53.7953  H     
24   H        17.0598   25.9236   54.0717  H     
25   H        18.6118   26.1326   54.8914  H     
26   H        15.6975   23.9172   54.6025  H     
27   H        19.3468   22.2503   57.3408  H     
28   H        19.3797   24.5201   56.5645  H     
@<TRIPOS>BOND
     1    1    2 2
     2    1    6 1
     3    2    3 1
     4    3    4 2
     5    4    5 1
     6    4   15 1
     7    5    6 2
     8    5    7 1
     9    7    8 1
    10    8    9 1
    11    9   10 2
    12    9   14 1
    13   10   11 1
    14   11   12 2
    15   11   18 1
    16   12   13 1
    17   12   19 1
    18   13   14 2
    19   15   16 2
    20   15   17 1
    21    1   20 1
    22    2   21 1
    23    3   22 1
    24    6   23 1
    25    8   24 1
    26    8   25 1
    27   10   26 1
    28   13   27 1
    29   14   28 1
@<TRIPOS>PROPERTY_DATA
  Total_Score	| 7.2595
  Crash		| -1.8997
  Polar		| 2.6853
  FragIndex	| 1
  FragRMSD	| 0.753

