@<TRIPOS>MOLECULE
BindingDB_16213
 31 32 0 0 0
SMALL
NO_CHARGES


@<TRIPOS>ATOM
1    C        42.9040   32.4286  112.3398  C     
2    C        43.1659   33.8026  112.4324  C     
3    C        44.3448   34.3599  111.8792  C     
4    C        45.2540   33.4793  111.2409  C     
5    C        44.9677   32.1088  111.1069  C     
6    C        44.6145   35.7497  111.9950  C     
7    C        43.7426   36.8196  112.2139  C     
8    C        45.8687   36.3498  111.9232  C     
9    N        45.7383   37.6743  112.1112  N     
10   N        44.4818   37.9391  112.2545  N     
11   C        42.2777   36.8229  112.3358  C     
12   C        43.7821   31.5566  111.6522  C     
13   C        43.5065   30.0955  111.5844  C     
14   C        42.0128   29.6804  111.5974  C     
15   N        41.2826   30.1154  110.4037  N     
16   H        42.0681   32.0619  112.7993  H     
17   H        42.5158   34.3827  112.9691  H     
18   H        46.1346   33.8335  110.8565  H     
19   H        45.6480   31.5064  110.6332  H     
20   H        46.7587   35.8654  111.7899  H     
21   H        44.1154   38.8266  112.3808  H     
22   H        41.8439   36.1569  111.5850  H     
23   H        41.8913   37.8360  112.1751  H     
24   H        41.9823   36.4904  113.3365  H     
25   H        43.9710   29.6612  110.6911  H     
26   H        43.9908   29.6400  112.4511  H     
27   H        41.9577   28.5898  111.6488  H     
28   H        41.4973   30.0788  112.4761  H     
29   H        41.3956   31.1190  110.2555  H     
30   H        40.2909   29.9094  110.5593  H     
31   H        41.6273   29.6118  109.5861  H     
@<TRIPOS>BOND
     1    1    2 2
     2    1   12 1
     3    2    3 1
     4    3    4 2
     5    3    6 1
     6    4    5 1
     7    5   12 2
     8    6    7 2
     9    6    8 1
    10    7   10 1
    11    7   11 1
    12    8    9 2
    13    9   10 1
    14   12   13 1
    15   13   14 1
    16   14   15 1
    17    1   16 1
    18    2   17 1
    19    4   18 1
    20    5   19 1
    21    8   20 1
    22   10   21 1
    23   11   22 1
    24   11   23 1
    25   11   24 1
    26   13   25 1
    27   13   26 1
    28   14   27 1
    29   14   28 1
    30   15   29 1
    31   15   30 1
    32   15   31 1
@<TRIPOS>PROPERTY_DATA
  Total_Score	| 6.2752
  Crash		| -0.7200
  Polar		| 3.6412
  FragIndex	| 1
  FragRMSD	| 0.616

