@<TRIPOS>MOLECULE
BindingDB_16232
 49 53 0 0 0
SMALL
NO_CHARGES


@<TRIPOS>ATOM
1    C        45.0466   35.1242  111.8532  C     
2    C        46.9376   36.5849  112.0665  C     
3    C        44.7903   37.4991  112.2484  C     
4    C        44.2146   36.2527  112.0357  C     
5    C        42.6389   37.7041  112.3105  C     
6    N        46.1339   37.6612  112.2634  N     
7    N        46.3951   35.3525  111.8689  N     
8    N        42.8794   36.4085  112.0627  N     
9    N        43.7953   38.3728  112.4257  N     
10   C        44.5529   33.7929  111.7124  C     
11   C        43.5988   31.0597  111.4671  C     
12   C        44.7356   31.5384  110.7607  C     
13   C        45.1969   32.8603  110.8690  C     
14   C        43.4304   33.3310  112.4342  C     
15   C        42.9580   32.0182  112.3009  C     
16   C        42.5146   29.5184  109.8868  C     
17   C        40.6115   29.3279  108.3056  C     
18   C        41.4854   29.2653  107.2109  C     
19   C        42.8677   29.3402  107.4376  C     
20   C        43.3671   29.4584  108.7461  C     
21   C        41.1161   29.4765  109.6103  C     
22   Cl       40.8663   29.0828  105.6460  Cl    
23   C        43.0766   29.6293  111.3060  C     
24   C        44.7727   28.5064  112.9701  C     
25   C        44.2253   28.5522  111.5195  C     
26   C        42.0033   29.1954  112.4046  C     
27   C        42.5455   29.1017  113.8578  C     
28   N        43.6893   28.1748  113.9170  N     
29   H        47.9501   36.6978  112.0852  H     
30   H        41.7134   38.1161  112.3956  H     
31   H        43.8845   39.3183  112.6099  H     
32   H        45.2659   30.9299  110.1479  H     
33   H        46.0224   33.1333  110.3310  H     
34   H        42.9509   33.9364  113.1041  H     
35   H        42.1251   31.7881  112.8401  H     
36   H        39.5991   29.2622  108.1635  H     
37   H        43.5165   29.2965  106.6510  H     
38   H        44.3774   29.4672  108.8408  H     
39   H        40.4198   29.5292  110.3571  H     
40   H        45.5482   27.7391  113.0399  H     
41   H        45.2259   29.4639  113.2446  H     
42   H        43.8364   27.5567  111.2735  H     
43   H        45.0812   28.7015  110.8634  H     
44   H        41.1402   29.8624  112.4265  H     
45   H        41.6104   28.2090  112.1511  H     
46   H        42.8529   30.0771  114.2430  H     
47   H        41.7631   28.7159  114.5168  H     
48   H        43.3524   27.2317  113.7083  H     
49   H        44.0726   28.1858  114.8624  H     
@<TRIPOS>BOND
     1    1    4 2
     2    1    7 1
     3    1   10 1
     4    2    6 1
     5    2    7 2
     6    3    4 1
     7    3    6 2
     8    3    9 1
     9    4    8 1
    10    5    8 2
    11    5    9 1
    12   10   13 1
    13   10   14 2
    14   11   12 1
    15   11   15 2
    16   11   23 1
    17   12   13 2
    18   14   15 1
    19   16   20 2
    20   16   21 1
    21   16   23 1
    22   17   18 1
    23   17   21 2
    24   18   19 2
    25   18   22 1
    26   19   20 1
    27   23   25 1
    28   23   26 1
    29   24   25 1
    30   24   28 1
    31   26   27 1
    32   27   28 1
    33    2   29 1
    34    5   30 1
    35    9   31 1
    36   12   32 1
    37   13   33 1
    38   14   34 1
    39   15   35 1
    40   17   36 1
    41   19   37 1
    42   20   38 1
    43   21   39 1
    44   24   40 1
    45   24   41 1
    46   25   42 1
    47   25   43 1
    48   26   44 1
    49   26   45 1
    50   27   46 1
    51   27   47 1
    52   28   48 1
    53   28   49 1
@<TRIPOS>PROPERTY_DATA
  Total_Score	| 9.5980
  Crash		| -2.5257
  Polar		| 3.4162
  FragIndex	| 1
  FragRMSD	| 1.011

