@<TRIPOS>MOLECULE
BindingDB_16219
 45 48 0 0 0
SMALL
NO_CHARGES


@<TRIPOS>ATOM
1    C        42.7309   32.7524  111.6060  C     
2    C        42.9833   34.1320  111.6517  C     
3    C        44.3067   34.6160  111.6035  C     
4    C        45.3603   33.6867  111.4484  C     
5    C        45.1060   32.3051  111.4625  C     
6    C        44.5651   35.9851  111.7837  C     
7    C        43.6316   36.9924  112.0184  C     
8    C        45.8004   36.6148  111.9139  C     
9    N        45.5974   37.9128  112.1919  N     
10   N        44.3148   38.1223  112.2466  N     
11   C        43.7828   31.7941  111.5941  C     
12   C        42.8737   29.8873  110.3640  C     
13   C        40.9879   29.4930  108.8055  C     
14   C        41.8749   29.2621  107.7404  C     
15   C        43.2564   29.3355  107.9720  C     
16   C        43.7425   29.6586  109.2569  C     
17   C        41.4824   29.7961  110.0919  C     
18   C        43.4537   30.3081  111.7172  C     
19   C        44.3267   27.9313  112.4667  C     
20   C        44.7003   29.3902  112.0731  C     
21   C        42.5071   30.1642  112.9881  C     
22   C        42.2054   28.7040  113.4508  C     
23   N        43.4468   27.9371  113.6534  N     
24   Cl       41.2722   28.9571  106.1881  Cl    
25   H        41.7502   32.4394  111.6286  H     
26   H        42.1962   34.7871  111.7131  H     
27   H        46.3270   34.0198  111.3793  H     
28   H        45.9096   31.6810  111.3804  H     
29   H        42.6096   36.8820  112.0629  H     
30   H        46.7118   36.1651  111.8148  H     
31   H        43.9033   38.9772  112.4566  H     
32   H        39.9774   29.4690  108.6429  H     
33   H        43.9212   29.1919  107.2036  H     
34   H        44.7556   29.7594  109.3554  H     
35   H        40.7935   29.9803  110.8227  H     
36   H        43.8317   27.4147  111.6316  H     
37   H        45.2322   27.3759  112.7299  H     
38   H        45.4217   29.3395  111.2461  H     
39   H        45.2223   29.8241  112.9467  H     
40   H        42.9905   30.6559  113.8404  H     
41   H        41.5485   30.6641  112.8469  H     
42   H        41.6615   28.7258  114.4029  H     
43   H        41.5773   28.1881  112.7165  H     
44   H        43.1959   26.9669  113.8879  H     
45   H        43.9609   28.3462  114.4502  H     
@<TRIPOS>BOND
     1    1    2 2
     2    1   11 1
     3    2    3 1
     4    3    4 2
     5    3    6 1
     6    4    5 1
     7    5   11 2
     8    6    7 2
     9    6    8 1
    10    7   10 1
    11    8    9 2
    12    9   10 1
    13   11   18 1
    14   12   16 1
    15   12   17 2
    16   12   18 1
    17   13   14 2
    18   13   17 1
    19   14   15 1
    20   14   24 1
    21   15   16 2
    22   18   20 1
    23   18   21 1
    24   19   20 1
    25   19   23 1
    26   21   22 1
    27   22   23 1
    28    1   25 1
    29    2   26 1
    30    4   27 1
    31    5   28 1
    32    7   29 1
    33    8   30 1
    34   10   31 1
    35   13   32 1
    36   15   33 1
    37   16   34 1
    38   17   35 1
    39   19   36 1
    40   19   37 1
    41   20   38 1
    42   20   39 1
    43   21   40 1
    44   21   41 1
    45   22   42 1
    46   22   43 1
    47   23   44 1
    48   23   45 1
@<TRIPOS>PROPERTY_DATA
  Total_Score	| 9.6973
  Crash		| -0.7605
  Polar		| 3.7091
  FragIndex	| 1
  FragRMSD	| 0.652

