@<TRIPOS>MOLECULE
BindingDB_16218
 38 40 0 0 0
SMALL
NO_CHARGES


@<TRIPOS>ATOM
1    C        42.4731   32.7547  111.5140  C     
2    C        42.8664   34.1058  111.5372  C     
3    C        44.2150   34.4813  111.7516  C     
4    C        45.1550   33.4297  111.8978  C     
5    C        44.7612   32.0769  111.8770  C     
6    C        44.6042   35.8522  111.8592  C     
7    C        43.7743   36.9704  111.9477  C     
8    C        45.8882   36.4009  111.9766  C     
9    N        45.7896   37.7333  112.1325  N     
10   N        44.5419   38.0576  112.1058  N     
11   C        43.4020   31.7088  111.7137  C     
12   C        42.6598   29.8876  110.2649  C     
13   C        41.0979   29.2897  108.4662  C     
14   C        42.1700   29.1751  107.5673  C     
15   C        43.4906   29.4203  108.0018  C     
16   C        43.7257   29.7756  109.3436  C     
17   C        41.3396   29.6483  109.8013  C     
18   C        42.8981   30.2922  111.6849  C     
19   C        43.7050   29.2012  112.4539  C     
20   N        43.4955   29.3307  113.9067  N     
21   Cl       41.8579   28.7519  105.9621  Cl    
22   H        41.4822   32.5395  111.3642  H     
23   H        42.1402   34.8092  111.3996  H     
24   H        46.1490   33.6299  112.0514  H     
25   H        45.4892   31.3636  111.9909  H     
26   H        42.7529   36.9876  111.9370  H     
27   H        46.7742   35.8984  111.9694  H     
28   H        44.2031   38.9621  112.2032  H     
29   H        40.1371   29.1171  108.1546  H     
30   H        44.2718   29.3483  107.3477  H     
31   H        44.6888   29.9619  109.6373  H     
32   H        40.5412   29.7420  110.4309  H     
33   H        41.9272   30.3131  112.2099  H     
34   H        43.3556   28.2011  112.1596  H     
35   H        44.7748   29.2549  112.2334  H     
36   H        43.6265   30.3048  114.1960  H     
37   H        44.1609   28.7534  114.4211  H     
38   H        42.5453   29.0340  114.1417  H     
@<TRIPOS>BOND
     1    1    2 2
     2    1   11 1
     3    2    3 1
     4    3    4 2
     5    3    6 1
     6    4    5 1
     7    5   11 2
     8    6    7 2
     9    6    8 1
    10    7   10 1
    11    8    9 2
    12    9   10 1
    13   11   18 1
    14   12   16 1
    15   12   17 2
    16   12   18 1
    17   13   14 2
    18   13   17 1
    19   14   15 1
    20   14   21 1
    21   15   16 2
    22   18   19 1
    23   19   20 1
    24    1   22 1
    25    2   23 1
    26    4   24 1
    27    5   25 1
    28    7   26 1
    29    8   27 1
    30   10   28 1
    31   13   29 1
    32   15   30 1
    33   16   31 1
    34   17   32 1
    35   18   33 1
    36   19   34 1
    37   19   35 1
    38   20   36 1
    39   20   37 1
    40   20   38 1
@<TRIPOS>PROPERTY_DATA
  Total_Score	| 7.6723
  Crash		| -1.0664
  Polar		| 3.6413
  FragIndex	| 1
  FragRMSD	| 0.328

