@<TRIPOS>MOLECULE
BindingDB_16216
 38 40 0 0 0
SMALL
NO_CHARGES


@<TRIPOS>ATOM
1    C        44.6710   32.0525  111.8150  C     
2    C        45.0866   33.3922  111.9204  C     
3    C        44.1649   34.4626  111.8031  C     
4    C        42.8113   34.1247  111.5550  C     
5    C        42.4003   32.7891  111.4194  C     
6    C        44.5749   35.8288  111.9360  C     
7    C        43.7757   36.9740  111.9861  C     
8    C        45.8672   36.3393  112.0594  C     
9    N        45.8137   37.6780  112.1804  N     
10   N        44.5757   38.0395  112.1320  N     
11   C        43.3144   31.7191  111.5748  C     
12   C        42.8579   30.2869  111.4976  C     
13   C        41.6997   29.9836  112.5068  C     
14   N        42.1317   29.9009  113.9071  N     
15   C        42.5944   29.9010  110.0625  C     
16   C        41.1137   29.2123  108.2150  C     
17   C        42.2108   29.1192  107.3468  C     
18   C        43.5002   29.4135  107.8231  C     
19   C        43.6875   29.7975  109.1640  C     
20   C        41.2987   29.6089  109.5555  C     
21   H        45.3717   31.3131  111.9130  H     
22   H        46.0764   33.5698  112.1022  H     
23   H        42.0988   34.8535  111.4743  H     
24   H        41.4163   32.5978  111.2186  H     
25   H        42.7578   37.0249  111.9377  H     
26   H        46.7379   35.8057  112.0605  H     
27   H        44.2677   38.9598  112.1920  H     
28   H        43.6780   29.6376  111.8250  H     
29   H        40.9413   30.7618  112.4588  H     
30   H        41.2362   29.0253  112.2650  H     
31   H        42.7903   29.1250  114.0246  H     
32   H        41.3144   29.7392  114.5025  H     
33   H        42.5801   30.7755  114.1901  H     
34   H        40.1760   28.9877  107.8757  H     
35   H        42.0751   28.8385  106.3708  H     
36   H        44.3037   29.3437  107.1915  H     
37   H        44.6402   29.9919  109.4858  H     
38   H        40.4783   29.6795  110.1592  H     
@<TRIPOS>BOND
     1    1    2 2
     2    1   11 1
     3    2    3 1
     4    3    4 2
     5    3    6 1
     6    4    5 1
     7    5   11 2
     8    6    7 2
     9    6    8 1
    10    7   10 1
    11    8    9 2
    12    9   10 1
    13   11   12 1
    14   12   13 1
    15   12   15 1
    16   13   14 1
    17   15   19 1
    18   15   20 2
    19   16   17 2
    20   16   20 1
    21   17   18 1
    22   18   19 2
    23    1   21 1
    24    2   22 1
    25    4   23 1
    26    5   24 1
    27    7   25 1
    28    8   26 1
    29   10   27 1
    30   12   28 1
    31   13   29 1
    32   13   30 1
    33   14   31 1
    34   14   32 1
    35   14   33 1
    36   16   34 1
    37   17   35 1
    38   18   36 1
    39   19   37 1
    40   20   38 1
@<TRIPOS>PROPERTY_DATA
  Total_Score	| 7.9873
  Crash		| -0.5712
  Polar		| 2.7454
  FragIndex	| 1
  FragRMSD	| 0.289

