@<TRIPOS>MOLECULE
BindingDB_16214
 31 32 0 0 0
SMALL
NO_CHARGES


@<TRIPOS>ATOM
1    C        44.6345   32.0243  111.6379  C     
2    C        45.0716   33.3619  111.7314  C     
3    C        44.1627   34.4454  111.6585  C     
4    C        42.8051   34.1325  111.3975  C     
5    C        42.3650   32.8008  111.2979  C     
6    C        44.5816   35.7984  111.8451  C     
7    C        43.7853   36.9360  111.9828  C     
8    C        45.8774   36.2968  111.9883  C     
9    N        45.8271   37.6234  112.1960  N     
10   N        44.5869   37.9878  112.1989  N     
11   C        43.2690   31.7245  111.4505  C     
12   C        42.7697   30.3217  111.3650  C     
13   C        41.8290   29.9315  112.5368  C     
14   C        42.5514   29.4376  113.8163  C     
15   N        43.5826   30.3692  114.2793  N     
16   H        45.3264   31.2664  111.7088  H     
17   H        46.0686   33.5295  111.8968  H     
18   H        42.0965   34.8694  111.3135  H     
19   H        41.3703   32.6148  111.1240  H     
20   H        42.7676   36.9884  111.9622  H     
21   H        46.7443   35.7587  111.9566  H     
22   H        44.2823   38.9002  112.3287  H     
23   H        42.2249   30.2147  110.4204  H     
24   H        43.5980   29.6147  111.3163  H     
25   H        41.1727   30.7707  112.8050  H     
26   H        41.1810   29.1163  112.1992  H     
27   H        41.8115   29.3244  114.6273  H     
28   H        43.0164   28.4560  113.6384  H     
29   H        44.3489   30.4246  113.5941  H     
30   H        43.9442   30.0426  115.1700  H     
31   H        43.1762   31.2975  114.4306  H     
@<TRIPOS>BOND
     1    1    2 2
     2    1   11 1
     3    2    3 1
     4    3    4 2
     5    3    6 1
     6    4    5 1
     7    5   11 2
     8    6    7 2
     9    6    8 1
    10    7   10 1
    11    8    9 2
    12    9   10 1
    13   11   12 1
    14   12   13 1
    15   13   14 1
    16   14   15 1
    17    1   16 1
    18    2   17 1
    19    4   18 1
    20    5   19 1
    21    7   20 1
    22    8   21 1
    23   10   22 1
    24   12   23 1
    25   12   24 1
    26   13   25 1
    27   13   26 1
    28   14   27 1
    29   14   28 1
    30   15   29 1
    31   15   30 1
    32   15   31 1
@<TRIPOS>PROPERTY_DATA
  Total_Score	| 6.6625
  Crash		| -0.2134
  Polar		| 4.2666
  FragIndex	| 1
  FragRMSD	| 0.437

