@<TRIPOS>MOLECULE
BindingDB_16221
 38 40 0 0 0
SMALL
NO_CHARGES


@<TRIPOS>ATOM
1    C        42.4220   32.7883  111.0940  C     
2    C        42.7983   34.1028  111.4072  C     
3    C        44.1648   34.4572  111.5807  C     
4    C        45.1188   33.4168  111.4435  C     
5    C        44.7375   32.0983  111.1205  C     
6    C        44.5514   35.8073  111.8636  C     
7    C        43.7297   36.9243  112.0257  C     
8    C        45.8377   36.3249  112.0471  C     
9    N        45.7566   37.6407  112.3070  N     
10   N        44.5097   37.9838  112.2876  N     
11   C        43.3772   31.7572  110.9090  C     
12   C        42.6629   29.4681  111.6232  C     
13   C        42.8062   27.2287  112.6470  C     
14   C        41.8500   27.6019  113.6153  C     
15   C        41.3007   28.9036  113.5995  C     
16   C        41.7087   29.8182  112.6199  C     
17   C        43.2131   28.1543  111.6759  C     
18   C        42.9909   30.3719  110.4677  C     
19   Cl       41.3059   26.4627  114.7335  Cl    
20   C        41.9163   30.3409  109.3147  C     
21   N        40.7453   29.4795  109.5756  N     
22   H        41.4257   32.6078  110.9770  H     
23   H        42.0519   34.7982  111.5080  H     
24   H        46.1182   33.6118  111.5508  H     
25   H        45.4718   31.3887  111.0205  H     
26   H        42.7090   36.9647  111.9585  H     
27   H        46.7180   35.8046  112.0115  H     
28   H        44.1840   38.8837  112.4440  H     
29   H        43.1897   26.2742  112.6414  H     
30   H        40.5986   29.1790  114.2984  H     
31   H        41.2583   30.7323  112.6130  H     
32   H        43.8798   27.8430  110.9637  H     
33   H        43.8890   29.9474  109.9950  H     
34   H        41.5066   31.3368  109.0903  H     
35   H        42.3920   29.9705  108.3952  H     
36   H        41.0441   28.5216  109.7832  H     
37   H        40.1526   29.4661  108.7447  H     
38   H        40.2041   29.8592  110.3637  H     
@<TRIPOS>BOND
     1    1    2 2
     2    1   11 1
     3    2    3 1
     4    3    4 2
     5    3    6 1
     6    4    5 1
     7    5   11 2
     8    6    7 2
     9    6    8 1
    10    7   10 1
    11    8    9 2
    12    9   10 1
    13   11   18 1
    14   12   16 1
    15   12   17 2
    16   12   18 1
    17   13   14 2
    18   13   17 1
    19   14   15 1
    20   14   19 1
    21   15   16 2
    22   18   20 1
    23   20   21 1
    24    1   22 1
    25    2   23 1
    26    4   24 1
    27    5   25 1
    28    7   26 1
    29    8   27 1
    30   10   28 1
    31   13   29 1
    32   15   30 1
    33   16   31 1
    34   17   32 1
    35   18   33 1
    36   20   34 1
    37   20   35 1
    38   21   36 1
    39   21   37 1
    40   21   38 1
@<TRIPOS>PROPERTY_DATA
  Total_Score	| 7.3498
  Crash		| -0.9614
  Polar		| 4.8102
  FragIndex	| 1
  FragRMSD	| 0.615

