@<TRIPOS>MOLECULE
BindingDB_16217
 45 48 0 0 0
SMALL
NO_CHARGES


@<TRIPOS>ATOM
1    C        42.5558   32.6387  111.2192  C     
2    C        42.9021   33.9953  111.3366  C     
3    C        44.2233   34.4033  111.6246  C     
4    C        45.2025   33.3824  111.6995  C     
5    C        44.8567   32.0241  111.5844  C     
6    C        44.5659   35.7766  111.8261  C     
7    C        43.7157   36.8698  111.9509  C     
8    C        45.8354   36.3277  112.0262  C     
9    N        45.7109   37.6452  112.2534  N     
10   N        44.4579   37.9587  112.1963  N     
11   C        43.5112   31.5977  111.3927  C     
12   C        42.6975   29.8375  109.9129  C     
13   C        43.4083   29.4489  107.5746  C     
14   C        42.0883   29.1854  107.1956  C     
15   C        41.0554   29.2844  108.1437  C     
16   C        41.3627   29.6056  109.4843  C     
17   C        43.7093   29.7854  108.9110  C     
18   C        43.0860   30.1343  111.3578  C     
19   C        44.6047   29.1112  113.2718  C     
20   C        44.1833   29.0664  111.7740  C     
21   C        41.9221   29.9199  112.4177  C     
22   C        42.3920   29.9933  113.8992  C     
23   N        43.4353   28.9797  114.1517  N     
24   H        41.5808   32.4085  111.0025  H     
25   H        42.1574   34.6956  111.2359  H     
26   H        46.1826   33.5981  111.8989  H     
27   H        45.6168   31.3367  111.6680  H     
28   H        42.6977   36.8545  111.8977  H     
29   H        46.7303   35.8395  111.9962  H     
30   H        44.0962   38.8529  112.3236  H     
31   H        44.1644   29.3984  106.8823  H     
32   H        41.8729   28.9448  106.2210  H     
33   H        40.0913   29.1133  107.8640  H     
34   H        40.5770   29.6865  110.1281  H     
35   H        44.6860   29.9887  109.1328  H     
36   H        45.2961   28.2838  113.4622  H     
37   H        45.1217   30.0461  113.5212  H     
38   H        43.7916   28.0596  111.5798  H     
39   H        45.0907   29.1628  111.1691  H     
40   H        41.1235   30.6460  112.2932  H     
41   H        41.4796   28.9329  112.2779  H     
42   H        42.7780   30.9882  114.1445  H     
43   H        41.5512   29.7974  114.5651  H     
44   H        43.0317   28.0474  114.0138  H     
45   H        43.7673   29.0589  115.1120  H     
@<TRIPOS>BOND
     1    1    2 2
     2    1   11 1
     3    2    3 1
     4    3    4 2
     5    3    6 1
     6    4    5 1
     7    5   11 2
     8    6    7 2
     9    6    8 1
    10    7   10 1
    11    8    9 2
    12    9   10 1
    13   11   18 1
    14   12   16 1
    15   12   17 2
    16   12   18 1
    17   13   14 2
    18   13   17 1
    19   14   15 1
    20   15   16 2
    21   18   20 1
    22   18   21 1
    23   19   20 1
    24   19   23 1
    25   21   22 1
    26   22   23 1
    27    1   24 1
    28    2   25 1
    29    4   26 1
    30    5   27 1
    31    7   28 1
    32    8   29 1
    33   10   30 1
    34   13   31 1
    35   14   32 1
    36   15   33 1
    37   16   34 1
    38   17   35 1
    39   19   36 1
    40   19   37 1
    41   20   38 1
    42   20   39 1
    43   21   40 1
    44   21   41 1
    45   22   42 1
    46   22   43 1
    47   23   44 1
    48   23   45 1
@<TRIPOS>PROPERTY_DATA
  Total_Score	| 10.1717
  Crash		| -0.6272
  Polar		| 4.0112
  FragIndex	| 1
  FragRMSD	| 0.230

