@<TRIPOS>MOLECULE
BindingDB_16220
 38 40 0 0 0
SMALL
NO_CHARGES


@<TRIPOS>ATOM
1    C        42.7663   32.6204  111.5213  C     
2    C        43.0407   33.9989  111.5931  C     
3    C        44.3757   34.4757  111.7283  C     
4    C        45.4081   33.5081  111.7273  C     
5    C        45.1318   32.1371  111.6618  C     
6    C        44.6621   35.8722  111.8837  C     
7    C        43.7848   36.9422  112.0121  C     
8    C        45.9176   36.4790  112.0017  C     
9    N        45.7579   37.8013  112.1694  N     
10   N        44.4959   38.0652  112.1796  N     
11   C        43.8037   31.6629  111.5806  C     
12   C        42.9742   29.7723  110.2580  C     
13   C        43.3996   29.2016  107.9006  C     
14   C        42.0208   29.0089  107.6813  C     
15   C        41.1185   29.1918  108.7474  C     
16   C        41.5882   29.5701  110.0248  C     
17   C        43.8673   29.5795  109.1758  C     
18   C        43.5208   30.1903  111.5886  C     
19   Cl       41.4340   28.5846  106.1488  Cl    
20   C        42.6891   29.8091  112.8524  C     
21   N        43.3812   30.2076  114.0878  N     
22   H        41.7866   32.3162  111.4568  H     
23   H        42.2520   34.6477  111.5721  H     
24   H        46.3889   33.7852  111.8027  H     
25   H        45.9141   31.4778  111.6909  H     
26   H        42.7604   36.9108  111.9947  H     
27   H        46.8282   36.0211  111.9762  H     
28   H        44.1208   38.9506  112.2883  H     
29   H        44.0696   29.0922  107.1332  H     
30   H        40.1127   29.0666  108.5900  H     
31   H        40.9057   29.7130  110.7677  H     
32   H        44.8699   29.7192  109.3015  H     
33   H        44.4629   29.6333  111.7097  H     
34   H        41.7111   30.2819  112.8192  H     
35   H        42.5498   28.7182  112.9014  H     
36   H        44.2535   29.6811  114.1959  H     
37   H        42.7874   30.0326  114.9061  H     
38   H        43.6055   31.2097  114.0564  H     
@<TRIPOS>BOND
     1    1    2 2
     2    1   11 1
     3    2    3 1
     4    3    4 2
     5    3    6 1
     6    4    5 1
     7    5   11 2
     8    6    7 2
     9    6    8 1
    10    7   10 1
    11    8    9 2
    12    9   10 1
    13   11   18 1
    14   12   16 1
    15   12   17 2
    16   12   18 1
    17   13   14 2
    18   13   17 1
    19   14   15 1
    20   14   19 1
    21   15   16 2
    22   18   20 1
    23   20   21 1
    24    1   22 1
    25    2   23 1
    26    4   24 1
    27    5   25 1
    28    7   26 1
    29    8   27 1
    30   10   28 1
    31   13   29 1
    32   15   30 1
    33   16   31 1
    34   17   32 1
    35   18   33 1
    36   20   34 1
    37   20   35 1
    38   21   36 1
    39   21   37 1
    40   21   38 1
@<TRIPOS>PROPERTY_DATA
  Total_Score	| 7.9311
  Crash		| -0.4899
  Polar		| 3.1859
  FragIndex	| 1
  FragRMSD	| 0.636

