@<TRIPOS>MOLECULE
BindingDB_16115
 42 44 0 0 0
SMALL
NO_CHARGES


@<TRIPOS>ATOM
1    C        34.7866   17.0015   63.5034  C     
2    C        34.5596   17.4950   64.8110  C     
3    C        35.1362   19.3305   63.1162  C     
4    C        35.1307   18.0357   62.5985  C     
5    C        34.3129   16.8269   66.0221  C     
6    O        35.1371   15.8346   66.4474  O     
7    O        33.4516   17.3503   66.9336  O     
8    C        34.6036   15.6943   63.0454  C     
9    O        35.2175   15.3189   62.0511  O     
10   N        33.7363   14.8746   63.6154  N     
11   C        33.3266   13.6349   63.1885  C     
12   C        32.5012   11.0077   62.3829  C     
13   C        32.4005   12.1065   61.4907  C     
14   C        32.8055   13.4060   61.8820  C     
15   C        33.3831   12.5528   64.0918  C     
16   C        33.0057   11.2610   63.6849  C     
17   C        32.1084    9.6758   61.9976  C     
18   C        31.4161    7.0042   61.2857  C     
19   C        31.2031    7.4471   62.6011  C     
20   C        31.5140    8.7845   62.9428  C     
21   C        32.3257    9.1943   60.6807  C     
22   C        31.9626    7.8751   60.3292  C     
23   S        34.7275   19.2066   64.7704  S     
24   F        32.6256   14.3942   61.0542  F     
25   F        33.8082   12.7301   65.3093  F     
26   O        30.6456    6.5690   63.4884  O     
27   C        31.5222    5.9357   64.4428  C     
28   C        32.4714    4.8593   63.8641  C     
29   H        35.3369   20.1922   62.6054  H     
30   H        35.3207   17.8725   61.6018  H     
31   H        33.3599   15.1586   64.4694  H     
32   H        32.0117   11.9802   60.5619  H     
33   H        33.1219   10.4960   64.3508  H     
34   H        31.1720    6.0473   61.0214  H     
35   H        31.2988    9.0983   63.8962  H     
36   H        32.7628    9.7809   59.9763  H     
37   H        32.1022    7.5420   59.3683  H     
38   H        32.1079    6.7094   64.9608  H     
39   H        30.8752    5.4422   65.1823  H     
40   H        31.8964    4.0578   63.3992  H     
41   H        33.0762    4.4376   64.6629  H     
42   H        33.1361    5.2989   63.1208  H     
@<TRIPOS>BOND
     1    1    2 2
     2    1    4 1
     3    1    8 1
     4    2    5 1
     5    2   23 1
     6    3    4 2
     7    3   23 1
     8    5    6 2
     9    5    7 1
    10    8    9 2
    11    8   10 am
    12   10   11 1
    13   11   14 1
    14   11   15 2
    15   12   13 1
    16   12   16 2
    17   12   17 1
    18   13   14 2
    19   14   24 1
    20   15   16 1
    21   15   25 1
    22   17   20 1
    23   17   21 2
    24   18   19 1
    25   18   22 2
    26   19   20 2
    27   19   26 1
    28   21   22 1
    29   26   27 1
    30   27   28 1
    31    3   29 1
    32    4   30 1
    33   10   31 1
    34   13   32 1
    35   16   33 1
    36   18   34 1
    37   20   35 1
    38   21   36 1
    39   22   37 1
    40   27   38 1
    41   27   39 1
    42   28   40 1
    43   28   41 1
    44   28   42 1
@<TRIPOS>PROPERTY_DATA
  Total_Score	| 11.6769
  Crash		| -0.6831
  Polar		| 4.8642
  FragIndex	| 1
  FragRMSD	| 0.099

