@<TRIPOS>MOLECULE
BindingDB_16117
 39 41 0 0 0
SMALL
NO_CHARGES


@<TRIPOS>ATOM
1    C        34.7738   16.9919   63.4892  C     
2    C        34.5665   17.5447   64.7784  C     
3    C        35.1577   19.3173   63.0158  C     
4    C        35.0960   18.0028   62.5383  C     
5    C        34.2958   16.9240   66.0072  C     
6    O        33.5906   17.5804   66.9557  O     
7    O        34.9736   15.8143   66.3848  O     
8    C        34.5777   15.6591   63.0586  C     
9    O        35.2270   15.2627   62.0967  O     
10   N        33.6642   14.8540   63.6216  N     
11   C        33.2462   13.6065   63.2101  C     
12   C        32.6132   10.9079   62.4317  C     
13   C        32.7914   11.2549   63.7987  C     
14   C        33.1344   12.5763   64.1759  C     
15   C        32.8173   13.3138   61.8907  C     
16   C        32.5495   11.9822   61.4923  C     
17   C        32.5480    9.5234   62.0386  C     
18   C        32.2449    6.7807   61.3470  C     
19   C        33.1865    7.1527   62.3249  C     
20   C        33.3875    8.5242   62.6605  C     
21   C        31.5619    9.1155   61.1096  C     
22   C        31.4481    7.7664   60.7315  C     
23   S        34.7964   19.2572   64.6939  S     
24   F        33.3080   12.8522   65.4454  F     
25   F        32.5958   14.2661   61.0132  F     
26   O        34.3154    9.0277   63.5997  O     
27   C        35.1253    8.1221   64.3805  C     
28   F        32.7114   10.3013   64.7297  F     
29   F        32.2788   11.7308   60.2212  F     
30   H        35.4034   20.1586   62.4726  H     
31   H        35.2630   17.8001   61.5491  H     
32   H        33.3316   15.1340   64.4952  H     
33   H        32.1215    5.7913   61.1150  H     
34   H        33.7354    6.4115   62.7794  H     
35   H        30.8868    9.7800   60.6949  H     
36   H        30.7835    7.4902   60.0017  H     
37   H        34.5042    7.5169   65.0642  H     
38   H        35.8516    8.7273   64.9476  H     
39   H        35.6740    7.4322   63.7422  H     
@<TRIPOS>BOND
     1    1    2 2
     2    1    4 1
     3    1    8 1
     4    2    5 1
     5    2   23 1
     6    3    4 2
     7    3   23 1
     8    5    6 2
     9    5    7 1
    10    8    9 2
    11    8   10 am
    12   10   11 1
    13   11   14 1
    14   11   15 2
    15   12   13 1
    16   12   16 2
    17   12   17 1
    18   13   14 2
    19   13   28 1
    20   14   24 1
    21   15   16 1
    22   15   25 1
    23   16   29 1
    24   17   20 1
    25   17   21 2
    26   18   19 1
    27   18   22 2
    28   19   20 2
    29   20   26 1
    30   21   22 1
    31   26   27 1
    32    3   30 1
    33    4   31 1
    34   10   32 1
    35   18   33 1
    36   19   34 1
    37   21   35 1
    38   22   36 1
    39   27   37 1
    40   27   38 1
    41   27   39 1
@<TRIPOS>PROPERTY_DATA
  Total_Score	| 10.4097
  Crash		| -1.8257
  Polar		| 4.4457
  FragIndex	| 1
  FragRMSD	| 0.941

