@<TRIPOS>MOLECULE
BindingDB_16123
 41 43 0 0 0
SMALL
NO_CHARGES


@<TRIPOS>ATOM
1    C        33.2324   13.5284   63.2478  C     
2    C        32.5280   10.8601   62.4758  C     
3    C        32.3339   11.9567   61.5965  C     
4    C        32.6828   13.2722   61.9686  C     
5    C        33.3966   12.4549   64.1424  C     
6    C        33.0530   11.1466   63.7603  C     
7    C        32.1673    9.5273   62.0879  C     
8    C        31.3678    6.9050   61.3303  C     
9    C        31.2027    7.3085   62.6686  C     
10   C        31.5823    8.6241   63.0130  C     
11   C        32.3293    9.0706   60.7527  C     
12   C        31.9256    7.7791   60.3695  C     
13   F        32.4583   14.2341   61.1142  F     
14   O        30.6473    6.5483   63.6792  O     
15   C        31.0164    5.1562   63.7859  C     
16   N        33.6103   14.7786   63.6365  N     
17   C        34.5374   15.5340   63.0503  C     
18   O        35.1808   15.0721   62.1119  O     
19   C        34.7442   16.8737   63.3865  C     
20   C        35.1865   19.1480   62.7676  C     
21   C        34.6031   17.4776   64.6577  C     
22   S        34.8809   19.1702   64.4574  S     
23   C        34.3574   16.9161   65.9248  C     
24   O        35.1916   15.9817   66.4556  O     
25   O        33.4928   17.5105   66.7905  O     
26   C        35.0618   17.8138   62.3765  C     
27   C        35.5110   20.2453   61.9492  C     
28   O        35.6596   21.4845   62.4621  O     
29   O        35.7950   20.0802   60.6392  O     
30   H        31.9031   11.8042   60.6702  H     
31   H        33.7950   12.6228   65.0610  H     
32   H        33.2176   10.3938   64.4356  H     
33   H        31.0755    5.9661   61.0411  H     
34   H        31.4154    8.9419   63.9688  H     
35   H        32.7664    9.6539   60.0354  H     
36   H        32.0451    7.4543   59.4005  H     
37   H        30.5303    4.5787   62.9894  H     
38   H        30.6744    4.7746   64.7480  H     
39   H        32.1124    5.0217   63.7165  H     
40   H        33.1807   15.1278   64.4275  H     
41   H        35.1662   17.5425   61.3960  H     
@<TRIPOS>BOND
     1    1    4 1
     2    1    5 2
     3    1   16 1
     4    2    3 1
     5    2    6 2
     6    2    7 1
     7    3    4 2
     8    4   13 1
     9    5    6 1
    10    7   10 1
    11    7   11 2
    12    8    9 1
    13    8   12 2
    14    9   10 2
    15    9   14 1
    16   11   12 1
    17   14   15 1
    18   16   17 am
    19   17   18 2
    20   17   19 1
    21   19   21 2
    22   19   26 1
    23   20   22 1
    24   20   26 2
    25   20   27 1
    26   21   22 1
    27   21   23 1
    28   23   24 2
    29   23   25 1
    30   27   28 2
    31   27   29 1
    32    3   30 1
    33    5   31 1
    34    6   32 1
    35    8   33 1
    36   10   34 1
    37   11   35 1
    38   12   36 1
    39   15   37 1
    40   15   38 1
    41   15   39 1
    42   16   40 1
    43   26   41 1
@<TRIPOS>PROPERTY_DATA
  Total_Score	| 10.2994
  Crash		| -1.2568
  Polar		| 4.7104
  FragIndex	| 1
  FragRMSD	| 0.364

