@<TRIPOS>MOLECULE
BindingDB_16120
 42 44 0 0 0
SMALL
NO_CHARGES


@<TRIPOS>ATOM
1    C        33.3497   13.4696   63.3512  C     
2    C        32.7687   10.7182   62.7258  C     
3    C        33.2089   11.1155   64.0170  C     
4    C        33.5060   12.4583   64.3262  C     
5    C        32.7852   13.1123   62.1008  C     
6    C        32.5294   11.7619   61.7905  C     
7    C        32.5649    9.3275   62.3718  C     
8    C        32.1086    6.6080   61.5790  C     
9    C        32.8782    6.8975   62.7146  C     
10   C        33.1522    8.2352   63.0949  C     
11   C        31.7545    8.9918   61.2484  C     
12   C        31.5604    7.6622   60.8371  C     
13   N        33.6832   14.7640   63.6726  N     
14   C        34.5918   15.5386   63.0784  C     
15   O        35.2566   15.1061   62.1397  O     
16   C        34.7336   16.8849   63.4249  C     
17   C        34.5129   17.4704   64.7053  C     
18   C        34.6080   18.8708   64.7083  C     
19   C        35.0430   17.8419   62.4381  C     
20   S        35.0127   19.4076   63.1326  S     
21   C        34.2999   16.7910   65.9257  C     
22   O        33.4597   17.2852   66.8598  O     
23   O        35.0777   15.7490   66.3005  O     
24   O        33.9317    8.4469   64.2146  O     
25   C        35.1656    7.7144   64.3954  C     
26   C        35.0046    6.7111   65.5561  C     
27   F        33.9447   12.7414   65.5306  F     
28   F        32.4469   14.0232   61.2234  F     
29   H        33.2995   10.4263   64.7686  H     
30   H        32.2046   11.5463   60.8434  H     
31   H        31.9313    5.6382   61.3031  H     
32   H        33.2638    6.1161   63.2539  H     
33   H        31.2711    9.7138   60.7099  H     
34   H        30.9879    7.4525   60.0173  H     
35   H        33.2574   15.1276   64.4660  H     
36   H        34.5008   19.4883   65.5158  H     
37   H        35.2156   17.6669   61.4453  H     
38   H        35.4901    7.1788   63.4988  H     
39   H        35.9474    8.4307   64.6597  H     
40   H        34.7601    7.2366   66.4838  H     
41   H        35.9302    6.1433   65.6954  H     
42   H        34.2083    5.9975   65.3282  H     
@<TRIPOS>BOND
     1    1    4 1
     2    1    5 2
     3    1   13 1
     4    2    3 1
     5    2    6 2
     6    2    7 1
     7    3    4 2
     8    4   27 1
     9    5    6 1
    10    5   28 1
    11    7   10 1
    12    7   11 2
    13    8    9 1
    14    8   12 2
    15    9   10 2
    16   10   24 1
    17   11   12 1
    18   13   14 am
    19   14   15 2
    20   14   16 1
    21   16   17 1
    22   16   19 2
    23   17   18 2
    24   17   21 1
    25   18   20 1
    26   19   20 1
    27   21   22 2
    28   21   23 1
    29   24   25 1
    30   25   26 1
    31    3   29 1
    32    6   30 1
    33    8   31 1
    34    9   32 1
    35   11   33 1
    36   12   34 1
    37   13   35 1
    38   18   36 1
    39   19   37 1
    40   25   38 1
    41   25   39 1
    42   26   40 1
    43   26   41 1
    44   26   42 1
@<TRIPOS>PROPERTY_DATA
  Total_Score	| 10.9321
  Crash		| -1.3852
  Polar		| 4.5215
  FragIndex	| 1
  FragRMSD	| 0.987

