@<TRIPOS>MOLECULE
BindingDB_16124
 41 43 0 0 0
SMALL
NO_CHARGES


@<TRIPOS>ATOM
1    C        33.1305   13.4736   62.9532  C     
2    C        32.4071   10.7985   62.2475  C     
3    C        32.2423   11.8704   61.3341  C     
4    C        32.5961   13.1898   61.6769  C     
5    C        33.2588   12.4287   63.8872  C     
6    C        32.9223   11.1116   63.5342  C     
7    C        32.0634    9.4490   61.8994  C     
8    C        31.4094    6.7563   61.2378  C     
9    C        31.1699    7.2353   62.5380  C     
10   C        31.4641    8.5785   62.8500  C     
11   C        32.3128    8.9298   60.6017  C     
12   C        31.9692    7.6047   60.2697  C     
13   F        32.3796   14.1452   60.8105  F     
14   O        30.5924    6.4165   63.4714  O     
15   C        31.5108    5.9377   64.4698  C     
16   N        33.4905   14.7230   63.3476  N     
17   C        34.4224   15.4985   62.8119  C     
18   O        35.0634   15.1147   61.8370  O     
19   C        34.6705   16.7697   63.3231  C     
20   C        34.8209   18.5611   64.8863  C     
21   C        34.9211   17.8304   62.4358  C     
22   S        35.0454   19.2756   63.3395  S     
23   C        34.6311   17.1733   64.6945  C     
24   C        34.9369   19.3286   66.0656  C     
25   O        35.2968   18.7568   67.2377  O     
26   O        35.0037   20.6796   66.0067  O     
27   C        34.4730   16.2709   65.7798  C     
28   O        35.0353   15.0415   65.7402  O     
29   O        33.8299   16.6082   66.9219  O     
30   H        31.8414   11.7009   60.4077  H     
31   H        33.6263   12.6137   64.8267  H     
32   H        33.0794   10.3767   64.2316  H     
33   H        31.1704    5.7931   60.9986  H     
34   H        31.2254    8.9204   63.7849  H     
35   H        32.7583    9.5016   59.8813  H     
36   H        32.1308    7.2504   59.3249  H     
37   H        32.3257    5.3641   64.0221  H     
38   H        30.9644    5.2822   65.1453  H     
39   H        31.9242    6.7604   65.0571  H     
40   H        33.0657   15.0468   64.1621  H     
41   H        34.9777   17.7785   61.4144  H     
@<TRIPOS>BOND
     1    1    4 1
     2    1    5 2
     3    1   16 1
     4    2    3 1
     5    2    6 2
     6    2    7 1
     7    3    4 2
     8    4   13 1
     9    5    6 1
    10    7   10 1
    11    7   11 2
    12    8    9 1
    13    8   12 2
    14    9   10 2
    15    9   14 1
    16   11   12 1
    17   14   15 1
    18   16   17 am
    19   17   18 2
    20   17   19 1
    21   19   21 2
    22   19   23 1
    23   20   22 1
    24   20   23 2
    25   20   24 1
    26   21   22 1
    27   23   27 1
    28   24   25 2
    29   24   26 1
    30   27   28 2
    31   27   29 1
    32    3   30 1
    33    5   31 1
    34    6   32 1
    35    8   33 1
    36   10   34 1
    37   11   35 1
    38   12   36 1
    39   15   37 1
    40   15   38 1
    41   15   39 1
    42   16   40 1
    43   21   41 1
@<TRIPOS>PROPERTY_DATA
  Total_Score	| 11.0365
  Crash		| -1.3903
  Polar		| 3.9938
  FragIndex	| 1
  FragRMSD	| 0.418

