@<TRIPOS>MOLECULE
BindingDB_16126
 39 41 0 0 0
SMALL
NO_CHARGES


@<TRIPOS>ATOM
1    C        33.3692   13.5656   63.2418  C     
2    C        32.5543   10.9281   62.4827  C     
3    C        32.4352   12.0194   61.5880  C     
4    C        32.8346   13.3181   61.9518  C     
5    C        33.4476   12.4948   64.1548  C     
6    C        33.0490   11.1981   63.7839  C     
7    C        32.1756    9.6028   62.1004  C     
8    C        31.3921    6.9908   61.2959  C     
9    C        31.9877    7.8709   60.3723  C     
10   C        32.4008    9.1515   60.7757  C     
11   C        31.5558    8.7024   63.0136  C     
12   C        31.2016    7.3871   62.6383  C     
13   F        32.6457   14.2711   61.0709  F     
14   N        33.7604   14.8035   63.6726  N     
15   C        34.6298   15.6328   63.0918  C     
16   O        35.2509   15.2684   62.0948  O     
17   C        31.2066    5.3645   63.9670  C     
18   O        30.5566    6.6017   63.5644  O     
19   C        34.8050   16.9318   63.5456  C     
20   C        34.7764   18.8582   64.6993  C     
21   C        34.5996   17.4788   64.8189  C     
22   C        35.1507   18.0136   62.7284  C     
23   O        35.1255   19.1691   63.4288  O     
24   C        34.3620   16.8472   66.0485  C     
25   O        35.1921   15.8801   66.5011  O     
26   O        33.4728   17.3742   66.9219  O     
27   H        32.0575   11.8540   60.6388  H     
28   H        33.8153   12.6639   65.0894  H     
29   H        33.1648   10.4555   64.4701  H     
30   H        31.0915    6.0567   60.9815  H     
31   H        32.1246    7.5650   59.3967  H     
32   H        32.8577    9.7457   60.0751  H     
33   H        31.3389    9.0121   63.9658  H     
34   H        33.4066   15.0693   64.5247  H     
35   H        31.1665    4.6386   63.1404  H     
36   H        30.6735    4.9509   64.8323  H     
37   H        32.2617    5.5312   64.2574  H     
38   H        34.6942   19.5424   65.4534  H     
39   H        35.3559   17.9666   61.7254  H     
@<TRIPOS>BOND
     1    1    4 1
     2    1    5 2
     3    1   14 1
     4    2    3 1
     5    2    6 2
     6    2    7 1
     7    3    4 2
     8    4   13 1
     9    5    6 1
    10    7   10 1
    11    7   11 2
    12    8    9 1
    13    8   12 2
    14    9   10 2
    15   11   12 1
    16   12   18 1
    17   14   15 am
    18   15   16 2
    19   15   19 1
    20   17   18 1
    21   19   21 1
    22   19   22 2
    23   20   21 2
    24   20   23 1
    25   21   24 1
    26   22   23 1
    27   24   25 2
    28   24   26 1
    29    3   27 1
    30    5   28 1
    31    6   29 1
    32    8   30 1
    33    9   31 1
    34   10   32 1
    35   11   33 1
    36   14   34 1
    37   17   35 1
    38   17   36 1
    39   17   37 1
    40   20   38 1
    41   22   39 1
@<TRIPOS>PROPERTY_DATA
  Total_Score	| 10.5304
  Crash		| -0.6773
  Polar		| 4.9942
  FragIndex	| 1
  FragRMSD	| 0.269

