@<TRIPOS>MOLECULE
BindingDB_16114
 39 41 0 0 0
SMALL
NO_CHARGES


@<TRIPOS>ATOM
1    C        34.7754   17.0664   63.3842  C     
2    C        34.5600   17.5340   64.7027  C     
3    C        35.1140   19.3845   63.0113  C     
4    C        35.0884   18.1005   62.4702  C     
5    C        34.3461   16.8338   65.9045  C     
6    O        35.1694   15.8213   66.2790  O     
7    O        33.4557   17.3053   66.8120  O     
8    C        34.6055   15.7626   62.9327  C     
9    O        35.2594   15.3815   61.9650  O     
10   N        33.6971   14.9636   63.4916  N     
11   C        33.2957   13.7195   63.0997  C     
12   C        32.4869   10.9951   62.4452  C     
13   C        32.3064   12.1013   61.5439  C     
14   C        32.6692   13.4178   61.8660  C     
15   C        33.4080   12.6764   64.0484  C     
16   C        33.0344   11.3671   63.7189  C     
17   C        32.1356    9.6179   62.1022  C     
18   C        31.4038    6.9078   61.4225  C     
19   C        31.2890    7.3524   62.7574  C     
20   C        31.6562    8.6739   63.0771  C     
21   C        32.2504    9.0998   60.7670  C     
22   C        31.9095    7.7769   60.4443  C     
23   S        34.7283   19.2459   64.6751  S     
24   F        32.3620   14.3529   61.0016  F     
25   O        30.7410    6.5399   63.7276  O     
26   C        31.6801    5.6900   64.3943  C     
27   H        35.3122   20.2529   62.5032  H     
28   H        35.2370   17.9453   61.4689  H     
29   H        33.2966   15.2718   64.3296  H     
30   H        31.8913   11.9722   60.6177  H     
31   H        33.7892   12.8557   64.9873  H     
32   H        33.1785   10.6857   64.4713  H     
33   H        31.1150    5.9506   61.1713  H     
34   H        31.5455    8.9150   64.0643  H     
35   H        32.5751    9.6613   59.9744  H     
36   H        32.0060    7.4352   59.4823  H     
37   H        32.0644    4.9109   63.7322  H     
38   H        31.1440    5.2019   65.2133  H     
39   H        32.5167    6.2597   64.8129  H     
@<TRIPOS>BOND
     1    1    2 2
     2    1    4 1
     3    1    8 1
     4    2    5 1
     5    2   23 1
     6    3    4 2
     7    3   23 1
     8    5    6 2
     9    5    7 1
    10    8    9 2
    11    8   10 am
    12   10   11 1
    13   11   14 1
    14   11   15 2
    15   12   13 1
    16   12   16 2
    17   12   17 1
    18   13   14 2
    19   14   24 1
    20   15   16 1
    21   17   20 1
    22   17   21 2
    23   18   19 1
    24   18   22 2
    25   19   20 2
    26   19   25 1
    27   21   22 1
    28   25   26 1
    29    3   27 1
    30    4   28 1
    31   10   29 1
    32   13   30 1
    33   15   31 1
    34   16   32 1
    35   18   33 1
    36   20   34 1
    37   21   35 1
    38   22   36 1
    39   26   37 1
    40   26   38 1
    41   26   39 1
@<TRIPOS>PROPERTY_DATA
  Total_Score	| 10.8537
  Crash		| -0.5880
  Polar		| 4.5625
  FragIndex	| 1
  FragRMSD	| 0.188

