@<TRIPOS>MOLECULE
BindingDB_16121
 39 41 0 0 0
SMALL
NO_CHARGES


@<TRIPOS>ATOM
1    C        33.2675   13.5871   63.2136  C     
2    C        32.5592   10.9311   62.4340  C     
3    C        32.3911   12.0215   61.5482  C     
4    C        32.7364   13.3351   61.9274  C     
5    C        33.3465   12.5302   64.1382  C     
6    C        33.0191   11.2177   63.7462  C     
7    C        32.2117    9.5915   62.0582  C     
8    C        31.3650    6.9878   61.2633  C     
9    C        31.2303    7.3935   62.6140  C     
10   C        31.6378    8.6873   62.9837  C     
11   C        32.4020    9.1359   60.7257  C     
12   C        31.9804    7.8491   60.3337  C     
13   N        33.6417   14.8401   63.6304  N     
14   C        34.5360   15.6489   63.0603  C     
15   O        35.2025   15.2196   62.1167  O     
16   C        34.7198   16.9773   63.4637  C     
17   C        34.5055   17.5596   64.7579  C     
18   C        34.5743   18.9610   64.7627  C     
19   C        35.0806   17.9433   62.5073  C     
20   S        35.0188   19.5043   63.2028  S     
21   C        34.3078   16.8844   65.9911  C     
22   O        33.3730   17.2959   66.8829  O     
23   O        35.1707   15.9483   66.4463  O     
24   F        32.4925   14.3045   61.0856  F     
25   F        33.7384   12.7275   65.3683  F     
26   O        30.6515    6.6005   63.5719  O     
27   C        31.1351    5.2405   63.7494  C     
28   F        30.5901    4.7063   64.8864  F     
29   F        30.7614    4.4454   62.6963  F     
30   F        32.5010    5.1799   63.8814  F     
31   H        31.9908   11.8805   60.6167  H     
32   H        33.1381   10.4680   64.4308  H     
33   H        30.9895    6.0725   60.9652  H     
34   H        31.4677    8.9843   63.9586  H     
35   H        32.8483    9.7233   60.0123  H     
36   H        32.0923    7.5331   59.3699  H     
37   H        33.2288   15.1528   64.4589  H     
38   H        34.4376   19.5831   65.5603  H     
39   H        35.2902   17.7740   61.5239  H     
@<TRIPOS>BOND
     1    1    4 1
     2    1    5 2
     3    1   13 1
     4    2    3 1
     5    2    6 2
     6    2    7 1
     7    3    4 2
     8    4   24 1
     9    5    6 1
    10    5   25 1
    11    7   10 1
    12    7   11 2
    13    8    9 1
    14    8   12 2
    15    9   10 2
    16    9   26 1
    17   11   12 1
    18   13   14 am
    19   14   15 2
    20   14   16 1
    21   16   17 1
    22   16   19 2
    23   17   18 2
    24   17   21 1
    25   18   20 1
    26   19   20 1
    27   21   22 2
    28   21   23 1
    29   26   27 1
    30   27   28 1
    31   27   29 1
    32   27   30 1
    33    3   31 1
    34    6   32 1
    35    8   33 1
    36   10   34 1
    37   11   35 1
    38   12   36 1
    39   13   37 1
    40   18   38 1
    41   19   39 1
@<TRIPOS>PROPERTY_DATA
  Total_Score	| 10.6656
  Crash		| -0.8707
  Polar		| 4.8320
  FragIndex	| 1
  FragRMSD	| 0.731

