@<TRIPOS>MOLECULE
BindingDB_16116
 42 44 0 0 0
SMALL
NO_CHARGES


@<TRIPOS>ATOM
1    C        34.7922   16.9109   63.4584  C     
2    C        34.6171   17.4224   64.7659  C     
3    C        35.1729   19.2267   63.0204  C     
4    C        35.1123   17.9258   62.5160  C     
5    C        34.3891   16.7683   65.9906  C     
6    O        35.1885   15.7702   66.4269  O     
7    O        33.4248   17.2150   66.8258  O     
8    C        34.6083   15.5885   63.0564  C     
9    O        35.2678   15.1806   62.1039  O     
10   N        33.7288   14.7973   63.6636  N     
11   C        33.3806   13.5192   63.3217  C     
12   C        32.7762   10.7951   62.6562  C     
13   C        33.1815   11.1643   63.9670  C     
14   C        33.4928   12.4987   64.2905  C     
15   C        32.8319   13.1900   62.0587  C     
16   C        32.5632   11.8484   61.7241  C     
17   C        32.6067    9.4123   62.2775  C     
18   C        32.2310    6.7249   61.4029  C     
19   C        33.1142    7.0093   62.4515  C     
20   C        33.3361    8.3414   62.8930  C     
21   C        31.7033    9.0895   61.2298  C     
22   C        31.5473    7.7709   60.7715  C     
23   S        34.8374   19.1321   64.6999  S     
24   F        33.9182   12.7632   65.4962  F     
25   F        32.5305   14.1078   61.1813  F     
26   O        34.2509    8.6502   63.8891  O     
27   C        35.3725    7.8220   64.2745  C     
28   C        34.9917    6.8278   65.3948  C     
29   H        35.3768   20.0773   62.4907  H     
30   H        35.2525   17.7427   61.5156  H     
31   H        33.3353   15.1279   64.4846  H     
32   H        33.2563   10.4626   64.7088  H     
33   H        32.2306   11.6410   60.7772  H     
34   H        32.1002    5.7609   61.0804  H     
35   H        33.5962    6.2213   62.8842  H     
36   H        31.1526    9.8158   60.7702  H     
37   H        30.9266    7.5675   59.9839  H     
38   H        35.8104    7.2910   63.4191  H     
39   H        36.1399    8.4934   64.6691  H     
40   H        34.7751    7.3687   66.3099  H     
41   H        35.8243    6.1529   65.5826  H     
42   H        34.1200    6.2366   65.1179  H     
@<TRIPOS>BOND
     1    1    2 2
     2    1    4 1
     3    1    8 1
     4    2    5 1
     5    2   23 1
     6    3    4 2
     7    3   23 1
     8    5    6 2
     9    5    7 1
    10    8    9 2
    11    8   10 am
    12   10   11 1
    13   11   14 1
    14   11   15 2
    15   12   13 1
    16   12   16 2
    17   12   17 1
    18   13   14 2
    19   14   24 1
    20   15   16 1
    21   15   25 1
    22   17   20 1
    23   17   21 2
    24   18   19 1
    25   18   22 2
    26   19   20 2
    27   20   26 1
    28   21   22 1
    29   26   27 1
    30   27   28 1
    31    3   29 1
    32    4   30 1
    33   10   31 1
    34   13   32 1
    35   16   33 1
    36   18   34 1
    37   19   35 1
    38   21   36 1
    39   22   37 1
    40   27   38 1
    41   27   39 1
    42   28   40 1
    43   28   41 1
    44   28   42 1
@<TRIPOS>PROPERTY_DATA
  Total_Score	| 11.6270
  Crash		| -1.5808
  Polar		| 4.8698
  FragIndex	| 1
  FragRMSD	| 0.684

