@<TRIPOS>MOLECULE
BindingDB_16125
 42 44 0 0 0
SMALL
NO_CHARGES


@<TRIPOS>ATOM
1    C        33.2739   13.6202   63.1341  C     
2    C        32.4881   10.9652   62.3844  C     
3    C        32.3702   12.0460   61.4836  C     
4    C        32.7568   13.3540   61.8405  C     
5    C        33.3770   12.5478   64.0527  C     
6    C        33.0066   11.2414   63.6732  C     
7    C        32.0957    9.6290   62.0083  C     
8    C        31.3598    6.9808   61.2661  C     
9    C        31.1548    7.4156   62.5821  C     
10   C        31.4651    8.7589   62.9269  C     
11   C        32.3556    9.1295   60.7006  C     
12   C        31.9581    7.8288   60.3250  C     
13   F        32.5968   14.3261   60.9748  F     
14   O        30.6210    6.5425   63.4880  O     
15   N        33.6166   14.8740   63.5525  N     
16   C        34.5343   15.6687   63.0087  C     
17   O        35.1488   15.2999   62.0114  O     
18   F        33.8551   12.7280   65.2572  F     
19   C        31.5634    5.9937   64.4486  C     
20   C        32.5964    5.0029   63.8664  C     
21   C        34.7742   16.9544   63.5138  C     
22   C        34.6733   17.4984   64.8025  C     
23   C        34.9768   18.8593   64.6866  C     
24   C        35.1380   18.0277   62.6870  C     
25   O        35.2701   19.1672   63.4027  O     
26   C        34.4391   16.8955   66.0685  C     
27   O        35.1286   15.7893   66.5046  O     
28   O        33.4199   17.3147   66.8526  O     
29   H        31.9739   11.9168   60.5418  H     
30   H        33.1381   10.4849   64.3503  H     
31   H        31.0957    6.0297   61.0000  H     
32   H        31.2341    9.0746   63.8759  H     
33   H        32.8416    9.6923   60.0022  H     
34   H        32.1228    7.4920   59.3715  H     
35   H        33.1862   15.1752   64.3652  H     
36   H        32.0931    6.8027   64.9647  H     
37   H        30.9720    5.4645   65.1892  H     
38   H        32.1004    4.2473   63.2435  H     
39   H        33.1241    4.4779   64.6926  H     
40   H        33.3456    5.5113   63.2641  H     
41   H        35.0027   19.5335   65.4533  H     
42   H        35.2761   17.9530   61.6705  H     
@<TRIPOS>BOND
     1    1    4 1
     2    1    5 2
     3    1   15 1
     4    2    3 1
     5    2    6 2
     6    2    7 1
     7    3    4 2
     8    4   13 1
     9    5    6 1
    10    5   18 1
    11    7   10 1
    12    7   11 2
    13    8    9 1
    14    8   12 2
    15    9   10 2
    16    9   14 1
    17   11   12 1
    18   14   19 1
    19   15   16 am
    20   16   17 2
    21   16   21 1
    22   19   20 1
    23   21   22 1
    24   21   24 2
    25   22   23 2
    26   22   26 1
    27   23   25 1
    28   24   25 1
    29   26   27 2
    30   26   28 1
    31    3   29 1
    32    6   30 1
    33    8   31 1
    34   10   32 1
    35   11   33 1
    36   12   34 1
    37   15   35 1
    38   19   36 1
    39   19   37 1
    40   20   38 1
    41   20   39 1
    42   20   40 1
    43   23   41 1
    44   24   42 1
@<TRIPOS>PROPERTY_DATA
  Total_Score	| 11.2895
  Crash		| -0.6512
  Polar		| 5.0948
  FragIndex	| 1
  FragRMSD	| 0.110

