@<TRIPOS>MOLECULE
BindingDB_16118
 39 41 0 0 0
SMALL
NO_CHARGES


@<TRIPOS>ATOM
1    C        34.7451   16.9056   63.4798  C     
2    C        34.5708   17.4320   64.7831  C     
3    C        35.1333   19.2148   63.0228  C     
4    C        35.0707   17.9114   62.5331  C     
5    C        34.3348   16.7938   66.0153  C     
6    O        35.1543   15.8179   66.4700  O     
7    O        33.3986   17.2715   66.8646  O     
8    C        34.5537   15.5772   63.0832  C     
9    O        35.1867   15.1597   62.1176  O     
10   N        33.6917   14.7797   63.7132  N     
11   C        33.3473   13.4884   63.4145  C     
12   C        32.7151   10.7299   62.8863  C     
13   C        33.1112   11.1766   64.1739  C     
14   C        33.4263   12.5222   64.4334  C     
15   C        32.8520   13.0873   62.1573  C     
16   C        32.5400   11.7378   61.8853  C     
17   C        32.5643    9.3157   62.6269  C     
18   C        32.4512    6.5720   61.8247  C     
19   C        33.2560    6.9620   62.9025  C     
20   C        33.3123    8.3119   63.3168  C     
21   C        31.6736    8.8641   61.6189  C     
22   C        31.6402    7.5236   61.1979  C     
23   S        34.7907   19.1392   64.6990  S     
24   O        33.9775    8.5358   64.4963  O     
25   C        35.3996    8.6791   64.4154  C     
26   Cl       32.0378   11.4449   60.2888  Cl    
27   H        35.3373   20.0597   62.4874  H     
28   H        35.2175   17.7207   61.5386  H     
29   H        33.2833   15.1360   64.5162  H     
30   H        33.1763   10.5247   64.9556  H     
31   H        33.7352   12.7894   65.3722  H     
32   H        32.7127   13.7945   61.4313  H     
33   H        32.4251    5.5931   61.5269  H     
34   H        33.7935    6.2480   63.4011  H     
35   H        31.0390    9.5159   61.1584  H     
36   H        31.0369    7.2402   60.4255  H     
37   H        35.8646    7.8458   63.8866  H     
38   H        35.7985    8.7039   65.4295  H     
39   H        35.6533    9.6191   63.9319  H     
@<TRIPOS>BOND
     1    1    2 2
     2    1    4 1
     3    1    8 1
     4    2    5 1
     5    2   23 1
     6    3    4 2
     7    3   23 1
     8    5    6 2
     9    5    7 1
    10    8    9 2
    11    8   10 am
    12   10   11 1
    13   11   14 1
    14   11   15 2
    15   12   13 1
    16   12   16 2
    17   12   17 1
    18   13   14 2
    19   15   16 1
    20   16   26 1
    21   17   20 1
    22   17   21 2
    23   18   19 1
    24   18   22 2
    25   19   20 2
    26   20   24 1
    27   21   22 1
    28   24   25 1
    29    3   27 1
    30    4   28 1
    31   10   29 1
    32   13   30 1
    33   14   31 1
    34   15   32 1
    35   18   33 1
    36   19   34 1
    37   21   35 1
    38   22   36 1
    39   25   37 1
    40   25   38 1
    41   25   39 1
@<TRIPOS>PROPERTY_DATA
  Total_Score	| 10.1674
  Crash		| -2.2787
  Polar		| 4.9059
  FragIndex	| 1
  FragRMSD	| 0.813

