@<TRIPOS>MOLECULE
BindingDB_50334365
 57 58 0 0 0
SMALL
NO_CHARGES


@<TRIPOS>ATOM
1    C        17.0278    4.1931   15.9916  C     
2    C        17.5736    5.2396   15.2257  C     
3    C        16.7420    6.2160   14.6331  C     
4    C        15.3467    6.1501   14.8903  C     
5    C        14.8028    5.1083   15.6679  C     
6    C        15.6355    4.1022   16.2051  C     
7    S        14.9579    2.7773   17.1271  S     
8    N        15.6897    1.3412   16.6780  N     
9    O        15.3493    3.0694   18.6423  O     
10   O        13.3744    2.6837   16.9913  O     
11   N        17.1556    7.2564   13.8451  N     
12   C        18.2972    7.4740   13.1969  C     
13   N        18.5155    8.5505   12.4488  N     
14   O        19.2491    6.7165   13.2873  O     
15   C        17.6616    9.5730   12.1265  C     
16   C        18.1981   10.8770   12.0796  C     
17   C        17.3794   11.9793   11.7682  C     
18   C        16.0084   11.8094   11.4450  C     
19   C        15.4818   10.4942   11.4697  C     
20   C        16.3011    9.3924   11.7809  C     
21   C        15.1267   12.9857   11.1890  C     
22   C        14.7424   13.2232    9.6994  C     
23   C        13.8393   14.4795    9.5460  C     
24   C        12.6800   14.3079    8.5202  C     
25   C        11.3461   15.0766    8.8154  C     
26   C        11.4210   16.5681    9.2673  C     
27   C        11.0323   16.8203   10.7594  C     
28   C        11.7854   18.0093   11.3968  C     
29   H        17.6462    3.4821   16.4019  H     
30   H        18.5889    5.2696   15.1256  H     
31   H        14.7191    6.8566   14.4979  H     
32   H        13.7859    5.0909   15.8280  H     
33   H        15.9994    0.7382   17.3793  H     
34   H        16.0751    1.2837   15.7820  H     
35   H        16.4769    7.9323   13.7003  H     
36   H        19.4258    8.6609   12.1275  H     
37   H        19.1847   11.0431   12.3060  H     
38   H        17.7922   12.9168   11.7836  H     
39   H        14.4928   10.3287   11.2625  H     
40   H        15.8956    8.4529   11.7405  H     
41   H        14.2138   12.8299   11.7741  H     
42   H        15.6085   13.8928   11.5777  H     
43   H        15.6546   13.3494    9.1051  H     
44   H        14.2039   12.3498    9.3351  H     
45   H        13.4171   14.7183   10.5208  H     
46   H        14.4735   15.3195    9.2296  H     
47   H        13.0603   14.6097    7.5311  H     
48   H        12.4352   13.2423    8.4435  H     
49   H        10.7614   15.0408    7.8874  H     
50   H        10.7750   14.5071    9.5524  H     
51   H        12.4166   16.9562    9.0556  H     
52   H        10.7234   17.1423    8.6520  H     
53   H         9.9528   17.0205   10.8157  H     
54   H        11.2223   15.9264   11.3630  H     
55   H        12.8600   17.8227   11.3815  H     
56   H        11.4655   18.1278   12.4349  H     
57   H        11.5697   18.9305   10.8543  H     
@<TRIPOS>BOND
     1    1    2 2
     2    1    6 1
     3    2    3 1
     4    3    4 2
     5    3   11 1
     6    4    5 1
     7    5    6 2
     8    6    7 1
     9    7    8 am
    10    7    9 2
    11    7   10 2
    12   11   12 am
    13   12   13 am
    14   12   14 2
    15   13   15 1
    16   15   16 2
    17   15   20 1
    18   16   17 1
    19   17   18 2
    20   18   19 1
    21   18   21 1
    22   19   20 2
    23   21   22 1
    24   22   23 1
    25   23   24 1
    26   24   25 1
    27   25   26 1
    28   26   27 1
    29   27   28 1
    30    1   29 1
    31    2   30 1
    32    4   31 1
    33    5   32 1
    34    8   33 1
    35    8   34 1
    36   11   35 1
    37   13   36 1
    38   16   37 1
    39   17   38 1
    40   19   39 1
    41   20   40 1
    42   21   41 1
    43   21   42 1
    44   22   43 1
    45   22   44 1
    46   23   45 1
    47   23   46 1
    48   24   47 1
    49   24   48 1
    50   25   49 1
    51   25   50 1
    52   26   51 1
    53   26   52 1
    54   27   53 1
    55   27   54 1
    56   28   55 1
    57   28   56 1
    58   28   57 1
@<TRIPOS>PROPERTY_DATA
  Total_Score	| 4.7638
  Crash		| -1.5265
  Polar		| 0.8875
  FragIndex	| 1
  FragRMSD	| 0.289

