@<TRIPOS>MOLECULE
BindingDB_50349858
 39 40 0 0 0
SMALL
NO_CHARGES


@<TRIPOS>ATOM
1    S        15.1387    2.9049   16.9815  S     
2    N        13.4697    2.8929   17.1489  N     
3    O        15.4192    1.5453   16.2133  O     
4    O        15.8831    2.6844   18.3705  O     
5    C        15.8499    4.1482   16.0030  C     
6    C        17.2478    4.1613   15.8179  C     
7    C        17.8421    5.1680   15.0348  C     
8    C        17.0635    6.1686   14.4091  C     
9    N        17.7638    7.0838   13.6683  N     
10   C        17.3588    7.8665   12.6716  C     
11   O        16.1970    7.8771   12.2971  O     
12   N        18.1697    8.6336   11.9609  N     
13   S        19.8437    8.7914   12.1046  S     
14   O        20.5368    7.4225   12.5224  O     
15   O        20.3613    9.0076   10.6205  O     
16   C        20.3591   10.1069   13.1189  C     
17   C        20.5786   11.3959   12.5883  C     
18   C        21.0215   12.4452   13.4148  C     
19   C        21.2379   12.2317   14.7969  C     
20   C        21.6951   13.3514   15.6489  C     
21   C        20.9864   10.9443   15.3275  C     
22   C        20.5459    9.8947   14.4986  C     
23   C        15.6557    6.1449   14.6108  C     
24   C        15.0573    5.1499   15.4035  C     
25   H        13.0273    3.6389   17.5860  H     
26   H        12.9393    2.2754   16.6145  H     
27   H        17.8388    3.4482   16.2400  H     
28   H        18.8599    5.1525   14.9036  H     
29   H        18.7160    7.1100   13.8577  H     
30   H        17.7670    9.1565   11.2538  H     
31   H        20.4265   11.5822   11.5939  H     
32   H        21.1859   13.3658   13.0070  H     
33   H        22.6582   13.7101   15.2913  H     
34   H        21.8080   13.0560   16.6943  H     
35   H        20.9762   14.1697   15.6076  H     
36   H        21.1084   10.7643   16.3298  H     
37   H        20.3614    8.9789   14.9144  H     
38   H        15.0544    6.8567   14.2002  H     
39   H        14.0481    5.1610   15.5446  H     
@<TRIPOS>BOND
     1    1    2 am
     2    1    3 2
     3    1    4 2
     4    1    5 1
     5    5    6 1
     6    5   24 2
     7    6    7 2
     8    7    8 1
     9    8    9 1
    10    8   23 2
    11    9   10 am
    12   10   11 2
    13   10   12 am
    14   12   13 1
    15   13   14 2
    16   13   15 2
    17   13   16 1
    18   16   17 1
    19   16   22 2
    20   17   18 2
    21   18   19 1
    22   19   20 1
    23   19   21 2
    24   21   22 1
    25   23   24 1
    26    2   25 1
    27    2   26 1
    28    6   27 1
    29    7   28 1
    30    9   29 1
    31   12   30 1
    32   17   31 1
    33   18   32 1
    34   20   33 1
    35   20   34 1
    36   20   35 1
    37   21   36 1
    38   22   37 1
    39   23   38 1
    40   24   39 1
@<TRIPOS>PROPERTY_DATA
  Total_Score	| 3.7721
  Crash		| -1.3273
  Polar		| 2.3177
  FragIndex	| 1
  FragRMSD	| 1.441

