@<TRIPOS>MOLECULE
BindingDB_50334353
 39 40 0 0 0
SMALL
NO_CHARGES


@<TRIPOS>ATOM
1    C        17.1055    4.1078   15.8610  C     
2    C        17.6834    5.1278   15.0814  C     
3    C        16.8998    6.1939   14.5690  C     
4    C        15.5147    6.2009   14.8746  C     
5    C        14.9339    5.1845   15.6544  C     
6    C        15.7257    4.1295   16.1500  C     
7    S        15.0337    2.8597   17.1116  S     
8    N        13.3668    2.8551   17.2866  N     
9    O        15.2828    1.5450   16.2533  O     
10   O        15.7979    2.6445   18.4913  O     
11   N        17.3571    7.2551   13.8324  N     
12   C        18.5245    7.4902   13.2418  C     
13   N        18.8176    8.6170   12.6099  N     
14   O        19.4510    6.6946   13.2846  O     
15   C        18.0543    9.7166   12.3305  C     
16   C        16.6905    9.6628   11.9526  C     
17   C        15.9854   10.8291   11.5852  C     
18   C        16.6590   12.0692   11.6020  C     
19   C        18.0193   12.1552   11.9726  C     
20   C        18.7081   10.9689   12.3135  C     
21   C        14.5615   10.7425   11.1813  C     
22   C        18.6815   13.4808   12.0000  C     
23   H        17.6979    3.3566   16.2196  H     
24   H        18.6894    5.0774   14.9159  H     
25   H        14.9183    6.9560   14.5247  H     
26   H        13.9306    5.2278   15.8599  H     
27   H        12.8792    2.0229   17.1733  H     
28   H        12.8784    3.6947   17.3190  H     
29   H        16.7090    7.9655   13.7363  H     
30   H        19.7513    8.7000   12.3513  H     
31   H        16.2163    8.7606   11.9012  H     
32   H        16.1574   12.9260   11.3450  H     
33   H        19.6976   11.0211   12.5645  H     
34   H        14.4621   10.0953   10.3067  H     
35   H        14.1464   11.7210   10.9260  H     
36   H        13.9706   10.3282   12.0008  H     
37   H        18.6386   13.9396   11.0087  H     
38   H        19.7303   13.4100   12.2986  H     
39   H        18.1668   14.1320   12.7119  H     
@<TRIPOS>BOND
     1    1    2 2
     2    1    6 1
     3    2    3 1
     4    3    4 2
     5    3   11 1
     6    4    5 1
     7    5    6 2
     8    6    7 1
     9    7    8 am
    10    7    9 2
    11    7   10 2
    12   11   12 am
    13   12   13 am
    14   12   14 2
    15   13   15 1
    16   15   16 2
    17   15   20 1
    18   16   17 1
    19   17   18 2
    20   17   21 1
    21   18   19 1
    22   19   20 2
    23   19   22 1
    24    1   23 1
    25    2   24 1
    26    4   25 1
    27    5   26 1
    28    8   27 1
    29    8   28 1
    30   11   29 1
    31   13   30 1
    32   16   31 1
    33   18   32 1
    34   20   33 1
    35   21   34 1
    36   21   35 1
    37   21   36 1
    38   22   37 1
    39   22   38 1
    40   22   39 1
@<TRIPOS>PROPERTY_DATA
  Total_Score	| 4.1912
  Crash		| -1.1407
  Polar		| 2.1291
  FragIndex	| 1
  FragRMSD	| 1.046

