@<TRIPOS>MOLECULE
BindingDB_50211825
 44 45 0 0 0
SMALL
NO_CHARGES


@<TRIPOS>ATOM
1    C        16.6459    5.8262   13.8273  C     
2    C        15.9802    6.2871   14.9925  C     
3    C        15.3103    5.3716   15.8475  C     
4    C        15.4158    3.9823   15.5987  C     
5    C        15.9464    3.5519   14.3683  C     
6    C        16.4881    4.4708   13.4449  C     
7    S        14.9996    2.7687   16.7915  S     
8    N        13.5183    2.9246   17.5610  N     
9    O        15.1278    1.2758   16.2649  O     
10   O        16.0883    2.8561   17.9480  O     
11   S        16.8219    3.9046   11.8263  S     
12   N        15.8785    2.5935   11.3329  N     
13   O        16.5203    4.9960   10.6985  O     
14   O        18.3029    3.4356   11.4957  O     
15   Cl       14.3519    5.9348   17.1339  Cl    
16   Cl       16.0789    7.9319   15.4086  Cl    
17   N        17.4232    6.7015   13.1064  N     
18   C        18.6575    6.4618   12.6646  C     
19   N        19.4028    7.3411   12.0091  N     
20   O        19.1914    5.3780   12.8455  O     
21   S        19.0924    8.9765   11.7313  S     
22   C        20.1033   10.0253   12.6889  C     
23   O        19.4467    9.2237   10.2047  O     
24   O        17.5422    9.3173   11.8348  O     
25   C        19.6372   11.2714   13.1672  C     
26   C        20.4852   12.1044   13.9221  C     
27   C        21.8110   11.7095   14.2142  C     
28   C        22.2808   10.4768   13.7059  C     
29   C        21.4324    9.6399   12.9608  C     
30   C        22.6755   12.5821   15.0395  C     
31   H        15.9368    2.5556   14.1341  H     
32   H        13.4845    2.9358   18.5295  H     
33   H        12.6965    2.8545   17.0549  H     
34   H        16.1456    1.6939   11.5761  H     
35   H        15.1330    2.7312   10.7242  H     
36   H        17.0969    7.6112   13.0469  H     
37   H        20.2676    7.0253   11.7008  H     
38   H        18.6876   11.5885   12.9524  H     
39   H        20.1280   13.0047   14.2562  H     
40   H        23.2442   10.1768   13.8771  H     
41   H        21.7980    8.7535   12.6036  H     
42   H        22.8025   13.5489   14.5518  H     
43   H        23.6681   12.1533   15.1897  H     
44   H        22.2137   12.7338   16.0145  H     
@<TRIPOS>BOND
     1    1    2 2
     2    1    6 1
     3    1   17 1
     4    2    3 1
     5    2   16 1
     6    3    4 2
     7    3   15 1
     8    4    5 1
     9    4    7 1
    10    5    6 2
    11    6   11 1
    12    7    8 am
    13    7    9 2
    14    7   10 2
    15   11   12 am
    16   11   13 2
    17   11   14 2
    18   17   18 am
    19   18   19 am
    20   18   20 2
    21   19   21 1
    22   21   22 1
    23   21   23 2
    24   21   24 2
    25   22   25 2
    26   22   29 1
    27   25   26 1
    28   26   27 2
    29   27   28 1
    30   27   30 1
    31   28   29 2
    32    5   31 1
    33    8   32 1
    34    8   33 1
    35   12   34 1
    36   12   35 1
    37   17   36 1
    38   19   37 1
    39   25   38 1
    40   26   39 1
    41   28   40 1
    42   29   41 1
    43   30   42 1
    44   30   43 1
    45   30   44 1
@<TRIPOS>PROPERTY_DATA
  Total_Score	| 1.7870
  Crash		| -3.7444
  Polar		| 3.5305
  FragIndex	| 1
  FragRMSD	| 1.367

