@<TRIPOS>MOLECULE
BindingDB_50386618
 55 57 0 0 0
SMALL
NO_CHARGES


@<TRIPOS>ATOM
1    C        24.0948    6.9244   -3.2542  C     
2    C        23.5623    6.7551   -4.4766  C     
3    N        23.7603    7.6573   -5.4851  N     
4    C        24.5480    8.7240   -5.2329  C     
5    N        25.0585    8.9005   -4.0147  N     
6    C        24.8331    8.0375   -3.0277  C     
7    O        24.8293    9.5633   -6.0777  O     
8    O        25.3145    8.2567   -1.9282  O     
9    C        23.2152    7.4229   -6.8159  C     
10   O        22.0313    6.5989   -6.8173  O     
11   C        22.2287    5.5040   -7.7236  C     
12   C        23.7506    5.3060   -7.8307  C     
13   C        24.2539    6.7455   -7.7402  C     
14   C        21.4416    4.2605   -7.2478  C     
15   O        24.1465    4.6922   -9.0538  O     
16   O        21.2936    4.2940   -5.8171  O     
17   P        20.2622    3.3459   -5.1413  P     
18   C        18.6431    3.7672   -5.1638  C     
19   P        17.7658    3.1894   -6.4585  P     
20   O        17.9742    1.6498   -6.5577  O     
21   P        17.4619    0.8724   -7.7954  P     
22   O        18.5902   -0.1785   -7.9719  O     
23   O        20.6374    3.3976   -3.7513  O     
24   O        20.4584    1.8617   -5.4965  O     
25   O        18.0147    3.9611   -7.6540  O     
26   O        16.2720    3.4176   -6.1325  O     
27   O        17.4114    1.7191   -8.9635  O     
28   O        16.1037    0.2076   -7.4776  O     
29   C        18.4989   -1.1209   -9.0647  C     
30   C        17.3498   -2.0685   -8.9745  C     
31   C        17.4629   -3.2576   -8.2040  C     
32   C        16.3747   -4.1439   -8.0862  C     
33   C        15.1619   -3.8514   -8.7381  C     
34   C        15.0404   -2.6793   -9.5140  C     
35   C        16.1255   -1.7921   -9.6305  C     
36   H        23.9547    6.2428   -2.5445  H     
37   H        23.0240    5.9384   -4.6254  H     
38   H        25.5987    9.6841   -3.8358  H     
39   H        22.9080    8.3755   -7.2639  H     
40   H        21.8457    5.8115   -8.7058  H     
41   H        24.1322    4.7259   -6.9872  H     
42   H        24.2252    7.2125   -8.7279  H     
43   H        25.2770    6.7943   -7.3520  H     
44   H        20.4740    4.3036   -7.7370  H     
45   H        21.9599    3.3538   -7.5715  H     
46   H        24.0840    3.7267   -8.8971  H     
47   H        18.1828    3.3621   -4.2583  H     
48   H        18.5497    4.8541   -5.1169  H     
49   H        18.5180   -0.5826  -10.0223  H     
50   H        19.4150   -1.7125   -9.0351  H     
51   H        18.3411   -3.4772   -7.7222  H     
52   H        16.4640   -5.0000   -7.5241  H     
53   H        14.3682   -4.4885   -8.6568  H     
54   H        14.1572   -2.4790   -9.9950  H     
55   H        16.0238   -0.9399  -10.1946  H     
@<TRIPOS>BOND
     1    1    2 2
     2    1    6 1
     3    2    3 1
     4    3    4 1
     5    9    3 1
     6    4    5 1
     7    4    7 2
     8    5    6 1
     9    6    8 2
    10    9   10 1
    11    9   13 1
    12   10   11 1
    13   11   12 1
    14   11   14 1
    15   12   13 1
    16   12   15 1
    17   14   16 1
    18   16   17 1
    19   17   18 1
    20   17   23 2
    21   17   24 1
    22   18   19 1
    23   19   20 1
    24   19   25 2
    25   19   26 1
    26   20   21 1
    27   21   22 1
    28   21   27 2
    29   21   28 1
    30   22   29 1
    31   29   30 1
    32   30   31 2
    33   30   35 1
    34   31   32 1
    35   32   33 2
    36   33   34 1
    37   34   35 2
    38    1   36 1
    39    2   37 1
    40    5   38 1
    41    9   39 1
    42   11   40 1
    43   12   41 1
    44   13   42 1
    45   13   43 1
    46   14   44 1
    47   14   45 1
    48   15   46 1
    49   18   47 1
    50   18   48 1
    51   29   49 1
    52   29   50 1
    53   31   51 1
    54   32   52 1
    55   33   53 1
    56   34   54 1
    57   35   55 1
@<TRIPOS>PROPERTY_DATA
  Total_Score	| 16.9900
  Crash		| -1.3601
  Polar		| 14.4681
  FragIndex	| 1
  FragRMSD	| 0.879

