@<TRIPOS>MOLECULE
BindingDB_50173576
 43 45 0 0 0
SMALL
NO_CHARGES


@<TRIPOS>ATOM
1    N        24.1107    7.1769   -5.2998  N     
2    C        24.7344    8.3722   -5.1729  C     
3    C        23.7030    6.5714   -6.5678  C     
4    N        25.1040    8.8181   -3.9727  N     
5    C        23.9831    6.4115   -4.1668  C     
6    O        22.4052    5.9487   -6.4374  O     
7    C        23.5558    7.4419   -7.8502  C     
8    C        24.3505    6.8628   -2.9558  C     
9    C        24.9035    8.1006   -2.8713  C     
10   C        21.8132    5.7486   -7.7249  C     
11   C        22.2402    6.9942   -8.5161  C     
12   O        25.0469    9.1019   -6.1027  O     
13   O        25.2344    8.5597   -1.7888  O     
14   N        21.8348    3.1987   -7.6432  N     
15   O        21.2480    8.0058   -8.3904  O     
16   C        22.2372    4.4144   -8.3992  C     
17   C        19.5546    2.9078   -6.6887  C     
18   C        20.4561    2.6737   -7.8465  C     
19   C        19.9587    2.4963   -5.3946  C     
20   C        18.2742    3.4882   -6.8488  C     
21   C        17.4186    3.6433   -5.7461  C     
22   C        19.0960    2.6419   -4.2958  C     
23   C        17.8331    3.2233   -4.4691  C     
24   H        24.4292    5.7725   -6.7748  H     
25   H        25.5310    9.6882   -3.8971  H     
26   H        23.6112    5.4864   -4.2070  H     
27   H        23.4933    8.5078   -7.6252  H     
28   H        24.4010    7.2683   -8.5246  H     
29   H        24.2322    6.2937   -2.1513  H     
30   H        20.7262    5.7282   -7.6002  H     
31   H        22.3690    6.7691   -9.5738  H     
32   H        22.4685    2.4507   -7.9363  H     
33   H        21.9882    3.3619   -6.6425  H     
34   H        21.7402    8.8439   -8.2778  H     
35   H        21.8323    4.3659   -9.4175  H     
36   H        23.3273    4.3958   -8.4864  H     
37   H        20.0220    3.0577   -8.7794  H     
38   H        20.5531    1.5909   -7.9812  H     
39   H        20.8773    2.0632   -5.2515  H     
40   H        17.9583    3.8004   -7.7704  H     
41   H        16.4960    4.0596   -5.8690  H     
42   H        19.3888    2.3251   -3.3728  H     
43   H        17.2116    3.3361   -3.6706  H     
@<TRIPOS>BOND
     1    1    2 1
     2    1    3 1
     3    1    5 1
     4    2    4 1
     5    2   12 2
     6    3    6 1
     7    3    7 1
     8    4    9 1
     9    5    8 2
    10    6   10 1
    11    7   11 1
    12    8    9 1
    13    9   13 2
    14   10   11 1
    15   10   16 1
    16   11   15 1
    17   14   16 1
    18   14   18 1
    19   17   18 1
    20   17   19 2
    21   17   20 1
    22   19   22 1
    23   20   21 2
    24   21   23 1
    25   22   23 2
    26    3   24 1
    27    4   25 1
    28    5   26 1
    29    7   27 1
    30    7   28 1
    31    8   29 1
    32   10   30 1
    33   11   31 1
    34   14   32 1
    35   14   33 1
    36   15   34 1
    37   16   35 1
    38   16   36 1
    39   18   37 1
    40   18   38 1
    41   19   39 1
    42   20   40 1
    43   21   41 1
    44   22   42 1
    45   23   43 1
@<TRIPOS>PROPERTY_DATA
  Total_Score	| 7.3393
  Crash		| -2.8424
  Polar		| 5.8714
  FragIndex	| 1
  FragRMSD	| 1.473

