@<TRIPOS>MOLECULE
BindingDB_50386619
 40 41 0 0 0
SMALL
NO_CHARGES


@<TRIPOS>ATOM
1    O        25.4180    8.3402   -1.9077  O     
2    C        24.9221    8.0903   -2.9958  C     
3    C        24.1648    6.9722   -3.1756  C     
4    C        23.6242    6.7565   -4.3908  C     
5    N        25.1130    8.9375   -4.0058  N     
6    C        24.5687    8.7316   -5.2043  C     
7    O        24.8232    9.5586   -6.0725  O     
8    N        23.7981    7.6424   -5.4211  N     
9    C        23.2317    7.3779   -6.7333  C     
10   C        24.2555    6.7079   -7.6793  C     
11   C        23.7229    5.2790   -7.8277  C     
12   O        24.0530    4.7077   -9.0918  O     
13   O        22.0737    6.5287   -6.6519  O     
14   C        22.2119    5.5033   -7.6430  C     
15   C        21.4210    4.2573   -7.2009  C     
16   O        22.0619    3.6551   -6.0453  O     
17   P        21.1466    2.8342   -5.0922  P     
18   O        20.7683    1.6261   -5.7939  O     
19   O        21.9925    2.4367   -3.8525  O     
20   N        19.9554    3.6977   -4.7267  N     
21   P        18.5120    3.4147   -5.0567  P     
22   O        18.0008    2.1260   -4.6410  O     
23   O        17.7722    4.3481   -4.0848  O     
24   O        17.9812    3.9092   -6.4396  O     
25   P        17.6721    2.8448   -7.5240  P     
26   O        18.1516    3.2712   -8.8236  O     
27   O        18.3130    1.4648   -7.2901  O     
28   O        16.1487    2.6674   -7.6104  O     
29   H        24.0147    6.3242   -2.4330  H     
30   H        23.1102    5.9143   -4.5246  H     
31   H        25.6548    9.7277   -3.8640  H     
32   H        22.8783    8.3046   -7.2067  H     
33   H        24.2645    7.2183   -8.6446  H     
34   H        25.2725    6.7125   -7.2819  H     
35   H        24.1401    4.6597   -7.0234  H     
36   H        24.0630    3.7376   -8.9555  H     
37   H        21.7854    5.8737   -8.5830  H     
38   H        20.4021    4.5963   -6.9729  H     
39   H        21.3819    3.5543   -8.0432  H     
40   H        20.1543    4.5598   -4.4218  H     
@<TRIPOS>BOND
     1    1    2 2
     2    2    3 1
     3    2    5 1
     4    3    4 2
     5    4    8 1
     6    5    6 1
     7    6    7 2
     8    6    8 1
     9    9    8 1
    10    9   10 1
    11    9   13 1
    12   10   11 1
    13   11   12 1
    14   11   14 1
    15   13   14 1
    16   14   15 1
    17   15   16 1
    18   16   17 1
    19   17   18 2
    20   17   19 1
    21   17   20 1
    22   21   20 1
    23   21   22 2
    24   21   23 1
    25   21   24 1
    26   24   25 1
    27   25   26 2
    28   25   27 1
    29   25   28 1
    30    3   29 1
    31    4   30 1
    32    5   31 1
    33    9   32 1
    34   10   33 1
    35   10   34 1
    36   11   35 1
    37   12   36 1
    38   14   37 1
    39   15   38 1
    40   15   39 1
    41   20   40 1
@<TRIPOS>PROPERTY_DATA
  Total_Score	| 15.4313
  Crash		| -0.9755
  Polar		| 14.4677
  FragIndex	| 1
  FragRMSD	| 0.665

