@<TRIPOS>MOLECULE
BindingDB_50173556
 40 42 0 0 0
SMALL
NO_CHARGES


@<TRIPOS>ATOM
1    N        24.1267    7.1222   -5.2238  N     
2    C        24.6580    8.3662   -5.1331  C     
3    C        23.5918    6.4978   -6.4213  C     
4    N        25.0649    8.8344   -3.9534  N     
5    C        24.0983    6.3531   -4.0889  C     
6    O        22.2399    6.0930   -6.1624  O     
7    C        23.4530    7.2345   -7.7742  C     
8    C        24.4870    6.8364   -2.8987  C     
9    C        24.9597    8.1076   -2.8381  C     
10   C        21.6788    5.6067   -7.3777  C     
11   C        20.3213    2.2957   -8.1573  C     
12   C        22.2451    6.5521   -8.4595  C     
13   O        24.8630    9.0986   -6.0950  O     
14   O        20.9745    3.4719   -8.3701  O     
15   C        21.9907    4.1012   -7.5757  C     
16   O        25.3071    8.5780   -1.7696  O     
17   O        20.6499    1.5787   -7.0539  O     
18   C        19.3448    1.8249   -9.0814  C     
19   O        21.2391    7.5047   -8.8124  O     
20   C        18.9203    2.6295  -10.1726  C     
21   C        18.7611    0.5437   -8.9266  C     
22   C        17.7900    0.0769   -9.8319  C     
23   C        17.9471    2.1593  -11.0773  C     
24   C        17.3809    0.8859  -10.9059  C     
25   H        24.2047    5.6006   -6.6020  H     
26   H        25.4250    9.7316   -3.8978  H     
27   H        23.7794    5.4080   -4.1132  H     
28   H        23.2471    8.3035   -7.6294  H     
29   H        24.3615    7.1292   -8.3785  H     
30   H        24.4391    6.2628   -2.0930  H     
31   H        20.5922    5.7094   -7.2854  H     
32   H        22.5514    6.0225   -9.3689  H     
33   H        22.9399    3.9638   -8.0909  H     
34   H        22.0639    3.6267   -6.5954  H     
35   H        21.7196    8.2785   -9.1506  H     
36   H        19.3020    3.5687  -10.3168  H     
37   H        19.0270   -0.0594   -8.1447  H     
38   H        17.3841   -0.8553   -9.7068  H     
39   H        17.6564    2.7449  -11.8651  H     
40   H        16.6864    0.5437  -11.5689  H     
@<TRIPOS>BOND
     1    1    2 1
     2    1    3 1
     3    1    5 1
     4    2    4 1
     5    2   13 2
     6    3    6 1
     7    3    7 1
     8    4    9 1
     9    5    8 2
    10    6   10 1
    11    7   12 1
    12    8    9 1
    13    9   16 2
    14   10   12 1
    15   10   15 1
    16   11   14 1
    17   11   17 2
    18   11   18 1
    19   12   19 1
    20   14   15 1
    21   18   20 2
    22   18   21 1
    23   20   23 1
    24   21   22 2
    25   22   24 1
    26   23   24 2
    27    3   25 1
    28    4   26 1
    29    5   27 1
    30    7   28 1
    31    7   29 1
    32    8   30 1
    33   10   31 1
    34   12   32 1
    35   15   33 1
    36   15   34 1
    37   19   35 1
    38   20   36 1
    39   21   37 1
    40   22   38 1
    41   23   39 1
    42   24   40 1
@<TRIPOS>PROPERTY_DATA
  Total_Score	| 6.8623
  Crash		| -1.4804
  Polar		| 6.9152
  FragIndex	| 1
  FragRMSD	| 1.456

