@<TRIPOS>MOLECULE
BindingDB_50173548
 53 56 0 0 0
SMALL
NO_CHARGES


@<TRIPOS>ATOM
1    N        24.1601    7.0623   -5.3314  N     
2    C        24.6494    8.3173   -5.2119  C     
3    C        23.7041    6.4349   -6.5642  C     
4    N        24.9391    8.7924   -3.9935  N     
5    P        21.2953    2.2041   -6.1022  P     
6    C        24.0349    6.3010   -4.1998  C     
7    O        22.3474    6.0330   -6.3216  O     
8    C        23.6208    7.1344   -7.9541  C     
9    C        24.3187    6.7956   -2.9888  C     
10   C        24.7973    8.0557   -2.8905  C     
11   C        21.7350    5.7244   -7.5764  C     
12   C        22.7377    6.1430   -8.6901  C     
13   C        21.2459    4.2548   -7.6261  C     
14   O        21.9974    3.4708   -6.6863  O     
15   O        24.8190    9.1000   -6.1300  O     
16   O        20.1862    2.6200   -5.0891  O     
17   O        20.8403    1.0868   -7.1014  O     
18   O        22.3194    1.6426   -5.2429  O     
19   O        25.0406    8.5367   -1.7934  O     
20   O        22.0649    6.7318   -9.8024  O     
21   C        18.8898    2.9083   -5.4548  C     
22   C        21.3770    1.1460   -8.3466  C     
23   C        18.2689    2.7202   -6.7263  C     
24   C        18.0979    3.4362   -4.4119  C     
25   C        20.7351    1.8963   -9.3615  C     
26   C        22.4476    0.2919   -8.6900  C     
27   C        16.7311    3.7483   -4.6142  C     
28   C        21.1904    1.8371  -10.6941  C     
29   C        22.8951    0.2187  -10.0236  C     
30   C        16.9009    2.9884   -6.9204  C     
31   C        16.1210    3.4901   -5.8534  C     
32   C        22.2622    0.9796  -11.0269  C     
33   H        24.3177    5.5268   -6.7261  H     
34   H        25.2647    9.6976   -3.9038  H     
35   H        23.6907    5.3683   -4.2413  H     
36   H        23.1184    8.1104   -7.8892  H     
37   H        24.6009    7.2329   -8.4184  H     
38   H        24.2094    6.2250   -2.1909  H     
39   H        20.8777    6.4133   -7.6456  H     
40   H        23.3445    5.2957   -9.0744  H     
41   H        20.1751    4.2975   -7.4069  H     
42   H        21.3857    3.8698   -8.6312  H     
43   H        21.5983    5.9866  -10.2256  H     
44   H        18.8124    2.4012   -7.5353  H     
45   H        18.5077    3.6055   -3.4952  H     
46   H        19.9246    2.4823   -9.1412  H     
47   H        22.8915   -0.2826   -7.9753  H     
48   H        16.1813    4.1553   -3.8431  H     
49   H        20.7354    2.4026  -11.4303  H     
50   H        23.6874   -0.3878  -10.2646  H     
51   H        16.4617    2.7843   -7.8286  H     
52   H        15.1191    3.6453   -5.9737  H     
53   H        22.5830    0.9179  -12.0013  H     
@<TRIPOS>BOND
     1    1    2 1
     2    1    3 1
     3    1    6 1
     4    2    4 1
     5    2   15 2
     6    3    7 1
     7    3    8 1
     8    4   10 1
     9    5   14 1
    10    5   16 1
    11    5   17 1
    12    5   18 2
    13    6    9 2
    14    7   11 1
    15    8   12 1
    16    9   10 1
    17   10   19 2
    18   11   12 1
    19   11   13 1
    20   12   20 1
    21   13   14 1
    22   16   21 1
    23   17   22 1
    24   21   23 2
    25   21   24 1
    26   22   25 2
    27   22   26 1
    28   23   30 1
    29   24   27 2
    30   25   28 1
    31   26   29 2
    32   27   31 1
    33   28   32 2
    34   29   32 1
    35   30   31 2
    36    3   33 1
    37    4   34 1
    38    6   35 1
    39    8   36 1
    40    8   37 1
    41    9   38 1
    42   11   39 1
    43   12   40 1
    44   13   41 1
    45   13   42 1
    46   20   43 1
    47   23   44 1
    48   24   45 1
    49   25   46 1
    50   26   47 1
    51   27   48 1
    52   28   49 1
    53   29   50 1
    54   30   51 1
    55   31   52 1
    56   32   53 1
@<TRIPOS>PROPERTY_DATA
  Total_Score	| 6.4057
  Crash		| -4.0657
  Polar		| 5.4299
  FragIndex	| 1
  FragRMSD	| 1.172

