@<TRIPOS>MOLECULE
BindingDB_50173564
 34 35 0 0 0
SMALL
NO_CHARGES


@<TRIPOS>ATOM
1    N        24.0666    7.0331   -5.3168  N     
2    C        24.5196    8.3091   -5.2310  C     
3    C        23.6566    6.3167   -6.5216  C     
4    N        24.8702    8.8179   -4.0473  N     
5    C        23.9948    6.3093   -4.1505  C     
6    O        22.2968    5.8845   -6.2970  O     
7    C        23.6515    6.8995   -7.9632  C     
8    C        24.3238    6.8318   -2.9598  C     
9    C        24.7702    8.1143   -2.9203  C     
10   C        21.7252    5.4965   -7.5471  C     
11   C        22.2415    6.5841   -8.5025  C     
12   O        24.6527    9.0741   -6.1754  O     
13   C        21.7796    2.2321   -6.3075  C     
14   N        22.4590    3.2227   -6.8671  N     
15   C        22.0658    4.0384   -7.9770  C     
16   O        25.0698    8.6204   -1.8503  O     
17   O        20.6398    1.9395   -6.6373  O     
18   O        21.3863    7.7273   -8.4199  O     
19   C        22.4471    1.4452   -5.2903  C     
20   H        24.2897    5.4167   -6.5699  H     
21   H        25.1888    9.7364   -4.0027  H     
22   H        23.6678    5.3723   -4.1571  H     
23   H        23.8663    7.9648   -8.0170  H     
24   H        24.4038    6.3896   -8.5777  H     
25   H        24.2311    6.2889   -2.1392  H     
26   H        20.6405    5.5696   -7.4467  H     
27   H        22.2610    6.2436   -9.5406  H     
28   H        23.3467    3.4009   -6.5126  H     
29   H        21.2109    3.6144   -8.5183  H     
30   H        22.9093    4.0330   -8.6683  H     
31   H        21.8808    8.4639   -8.8473  H     
32   H        23.3045    0.9324   -5.7359  H     
33   H        21.7827    0.6917   -4.8611  H     
34   H        22.8044    2.0953   -4.4853  H     
@<TRIPOS>BOND
     1    1    2 1
     2    1    3 1
     3    1    5 1
     4    2    4 1
     5    2   12 2
     6    3    6 1
     7    3    7 1
     8    4    9 1
     9    5    8 2
    10    6   10 1
    11    7   11 1
    12    8    9 1
    13    9   16 2
    14   10   11 1
    15   10   15 1
    16   11   18 1
    17   13   14 am
    18   13   17 2
    19   13   19 1
    20   14   15 1
    21    3   20 1
    22    4   21 1
    23    5   22 1
    24    7   23 1
    25    7   24 1
    26    8   25 1
    27   10   26 1
    28   11   27 1
    29   14   28 1
    30   15   29 1
    31   15   30 1
    32   18   31 1
    33   19   32 1
    34   19   33 1
    35   19   34 1
@<TRIPOS>PROPERTY_DATA
  Total_Score	| 8.4993
  Crash		| -1.1020
  Polar		| 6.8851
  FragIndex	| 1
  FragRMSD	| 1.373

