@<TRIPOS>MOLECULE
BindingDB_50173573
 49 50 0 0 0
SMALL
NO_CHARGES


@<TRIPOS>ATOM
1    N        23.9932    6.9868   -5.4682  N     
2    C        24.5560    8.2156   -5.4111  C     
3    C        23.3900    6.3504   -6.6346  C     
4    N        25.0146    8.6899   -4.2460  N     
5    C        23.9527    6.2513   -4.3077  C     
6    O        22.0166    6.1007   -6.2929  O     
7    C        23.2548    6.9384   -8.0575  C     
8    C        22.0702    6.1500   -8.6847  C     
9    C        24.4128    6.7294   -3.1404  C     
10   C        24.9469    7.9751   -3.1223  C     
11   C        21.3618    5.5502   -7.4356  C     
12   O        22.4869    5.1719   -9.6685  O     
13   S        21.2960    4.5145  -10.7304  S     
14   O        24.6814    8.9530   -6.3776  O     
15   C        22.0303    3.0785  -11.6083  C     
16   O        25.3598    8.4414   -2.0704  O     
17   C        21.2693    4.0115   -7.2555  C     
18   C        19.7068    4.0527   -9.9889  C     
19   C        20.8059    5.7863  -11.9268  C     
20   O        22.2985    3.4333   -6.4601  O     
21   C        23.2145    3.5684  -12.4999  C     
22   C        22.5837    2.0470  -10.5708  C     
23   C        20.9736    2.3727  -12.5130  C     
24   H        23.9320    5.4059   -6.7707  H     
25   H        25.4002    9.5822   -4.2053  H     
26   H        23.5647    5.3326   -4.2992  H     
27   H        22.9959    7.9983   -8.0072  H     
28   H        24.1768    6.8246   -8.6337  H     
29   H        21.4148    6.8866   -9.1623  H     
30   H        24.3514    6.1789   -2.3165  H     
31   H        20.3365    5.9234   -7.4131  H     
32   H        21.2629    3.5252   -8.2224  H     
33   H        20.3233    3.7787   -6.7598  H     
34   H        18.9510    3.9652  -10.7694  H     
35   H        19.7741    3.0939   -9.4785  H     
36   H        19.3896    4.8213   -9.2868  H     
37   H        20.1055    5.3700  -12.6504  H     
38   H        21.6716    6.1700  -12.4594  H     
39   H        20.3173    6.6087  -11.4063  H     
40   H        22.9197    2.9917   -7.0770  H     
41   H        22.8681    4.2466  -13.2812  H     
42   H        23.9662    4.0869  -11.9014  H     
43   H        23.6972    2.7240  -12.9944  H     
44   H        23.0494    1.2006  -11.0826  H     
45   H        23.3442    2.5114   -9.9451  H     
46   H        21.8034    1.6463   -9.9165  H     
47   H        20.5689    3.0622  -13.2560  H     
48   H        20.1449    1.9838  -11.9189  H     
49   H        21.4231    1.5317  -13.0458  H     
@<TRIPOS>BOND
     1    2    1 1
     2    3    1 1
     3    4    2 1
     4    5    1 1
     5    6    3 1
     6    7    3 1
     7    8    7 1
     8    9    5 2
     9   10    9 1
    10   11    6 1
    11   12    8 1
    12   13   12 1
    13   14    2 2
    14   15   13 1
    15   16   10 2
    16   17   11 1
    17   18   13 1
    18   19   13 1
    19   20   17 1
    20   21   15 1
    21   22   15 1
    22   23   15 1
    23    4   10 1
    24   11    8 1
    25    3   24 1
    26    4   25 1
    27    5   26 1
    28    7   27 1
    29    7   28 1
    30    8   29 1
    31    9   30 1
    32   11   31 1
    33   17   32 1
    34   17   33 1
    35   18   34 1
    36   18   35 1
    37   18   36 1
    38   19   37 1
    39   19   38 1
    40   19   39 1
    41   20   40 1
    42   21   41 1
    43   21   42 1
    44   21   43 1
    45   22   44 1
    46   22   45 1
    47   22   46 1
    48   23   47 1
    49   23   48 1
    50   23   49 1
@<TRIPOS>PROPERTY_DATA
  Total_Score	| 5.1787
  Crash		| -2.3266
  Polar		| 4.4510
  FragIndex	| 1
  FragRMSD	| 0.966

