@<TRIPOS>MOLECULE
BindingDB_50173566
 58 59 0 0 0
SMALL
NO_CHARGES


@<TRIPOS>ATOM
1    N        24.0078    7.5319   -5.3502  N     
2    C        24.7072    8.6712   -5.1407  C     
3    C        23.4878    7.2292   -6.6724  C     
4    N        25.1684    8.9498   -3.9199  N     
5    C        23.8054    6.6886   -4.2934  C     
6    O        22.5481    6.1374   -6.7105  O     
7    C        24.6013    6.8844   -7.6968  C     
8    C        24.2643    6.9806   -3.0636  C     
9    C        24.9487    8.1427   -2.8896  C     
10   C        22.6146    5.5823   -8.0261  C     
11   S        20.0029    2.7397   -7.0077  S     
12   O        20.6194    4.2401   -7.5629  O     
13   C        24.1238    5.5915   -8.3731  C     
14   C        21.9611    4.1885   -8.0693  C     
15   O        24.9508    9.4945   -6.0123  O     
16   O        25.3445    8.4716   -1.7809  O     
17   C        19.9197    1.5175   -8.3939  C     
18   C        18.2337    3.1744   -6.7123  C     
19   C        20.8960    2.3313   -5.4381  C     
20   O        24.8621    4.4576   -7.8933  O     
21   C        21.0629    0.4674   -8.5477  C     
22   C        17.2138    2.1477   -7.3043  C     
23   C        17.8445    3.4978   -5.2488  C     
24   C        19.6386    2.2327   -9.7600  C     
25   C        22.2400    1.5482   -5.5688  C     
26   C        21.2223    3.5834   -4.5629  C     
27   H        22.9273    8.1056   -7.0197  H     
28   H        25.6611    9.7721   -3.7733  H     
29   H        23.3149    5.8334   -4.4075  H     
30   H        24.6818    7.6856   -8.4290  H     
31   H        25.5742    6.7388   -7.2253  H     
32   H        24.0986    6.3566   -2.3095  H     
33   H        22.0683    6.2375   -8.7202  H     
34   H        24.2511    5.6355   -9.4518  H     
35   H        22.5740    3.5110   -7.4720  H     
36   H        21.9628    3.8590   -9.1100  H     
37   H        19.0615    0.8831   -8.1785  H     
38   H        18.0719    4.1133   -7.2477  H     
39   H        20.2150    1.7023   -4.8601  H     
40   H        24.7780    4.4622   -6.9120  H     
41   H        22.0526    0.9271   -8.6107  H     
42   H        20.9145   -0.1081   -9.4626  H     
43   H        21.0071   -0.2735   -7.7516  H     
44   H        16.1906    2.5126   -7.1534  H     
45   H        17.3164    1.1740   -6.8201  H     
46   H        17.3490    2.0225   -8.3797  H     
47   H        17.8968    2.6039   -4.6284  H     
48   H        16.8241    3.8775   -5.1991  H     
49   H        18.4957    4.2720   -4.8462  H     
50   H        18.7175    2.8369   -9.7147  H     
51   H        19.5050    1.4789  -10.5510  H     
52   H        20.4808    2.8789  -10.0361  H     
53   H        23.0690    2.2063   -5.8276  H     
54   H        22.2190    0.7847   -6.3124  H     
55   H        22.4743    1.0785   -4.6156  H     
56   H        21.7671    3.2897   -3.6556  H     
57   H        20.3312    4.1088   -4.2200  H     
58   H        21.8413    4.2953   -5.1151  H     
@<TRIPOS>BOND
     1    2    1 1
     2    3    1 1
     3    4    2 1
     4    5    1 1
     5    6    3 1
     6    7    3 1
     7    8    5 2
     8    9    8 1
     9   10    6 1
    10   11   12 1
    11   12   14 1
    12   13    7 1
    13   14   10 1
    14   15    2 2
    15   16    9 2
    16   17   11 1
    17   18   11 1
    18   19   11 1
    19   20   13 1
    20   21   17 1
    21   22   18 1
    22   23   18 1
    23   24   17 1
    24   25   19 1
    25   26   19 1
    26    4    9 1
    27   10   13 1
    28    3   27 1
    29    4   28 1
    30    5   29 1
    31    7   30 1
    32    7   31 1
    33    8   32 1
    34   10   33 1
    35   13   34 1
    36   14   35 1
    37   14   36 1
    38   17   37 1
    39   18   38 1
    40   19   39 1
    41   20   40 1
    42   21   41 1
    43   21   42 1
    44   21   43 1
    45   22   44 1
    46   22   45 1
    47   22   46 1
    48   23   47 1
    49   23   48 1
    50   23   49 1
    51   24   50 1
    52   24   51 1
    53   24   52 1
    54   25   53 1
    55   25   54 1
    56   25   55 1
    57   26   56 1
    58   26   57 1
    59   26   58 1
@<TRIPOS>PROPERTY_DATA
  Total_Score	| 7.1731
  Crash		| -2.9829
  Polar		| 5.1509
  FragIndex	| 1
  FragRMSD	| 0.740

