@<TRIPOS>MOLECULE
BindingDB_50173553
 50 51 0 0 0
SMALL
NO_CHARGES


@<TRIPOS>ATOM
1    N        24.3505    7.2947   -5.4445  N     
2    C        24.8097    8.5465   -5.2116  C     
3    C        24.2381    6.7686   -6.7986  C     
4    N        24.9973    8.9573   -3.9531  N     
5    C        24.0822    6.4902   -4.3675  C     
6    P        20.5234    1.6008   -4.1820  P     
7    O        23.7972    5.3948   -6.8974  O     
8    C        23.2534    7.5740   -7.6901  C     
9    C        24.2740    6.9146   -3.1064  C     
10   C        24.7594    8.1705   -2.9094  C     
11   C        22.4471    5.3844   -7.3681  C     
12   C        21.5957    1.1685   -5.3885  C     
13   C        22.4669    6.4890   -8.4266  C     
14   C        21.3842    1.9427   -6.6163  C     
15   O        25.0972    9.3451   -6.0950  O     
16   O        20.3251    0.4378   -3.3659  O     
17   C        22.0549    3.9900   -7.9066  C     
18   O        24.9844    8.5831   -1.7731  O     
19   O        22.1484    3.0427   -6.8441  O     
20   O        20.3805    1.5909   -7.4674  O     
21   O        20.9216    2.7316   -3.1650  O     
22   O        19.1166    1.8020   -4.8252  O     
23   O        21.1592    6.9132   -8.8086  O     
24   C        18.3673    2.9898   -4.4988  C     
25   C        22.1647    3.4401   -3.4009  C     
26   C        18.4256    4.1193   -5.5612  C     
27   C        22.8656    3.8224   -2.0781  C     
28   H        25.2355    6.7869   -7.2574  H     
29   H        25.3358    9.8501   -3.8023  H     
30   H        23.7554    5.5664   -4.4801  H     
31   H        22.5610    8.1683   -7.0820  H     
32   H        23.7866    8.2239   -8.3901  H     
33   H        24.0774    6.3280   -2.3383  H     
34   H        21.7675    5.6460   -6.5451  H     
35   H        22.6280    1.3079   -5.0663  H     
36   H        21.4640    0.1175   -5.6362  H     
37   H        23.0285    6.1457   -9.3059  H     
38   H        21.0381    4.0338   -8.2964  H     
39   H        22.7305    3.7002   -8.7064  H     
40   H        21.1572    6.8682   -9.7874  H     
41   H        17.3160    2.6803   -4.4207  H     
42   H        18.6505    3.3917   -3.5128  H     
43   H        22.8846    2.8418   -3.9737  H     
44   H        21.9456    4.3445   -3.9754  H     
45   H        19.4607    4.4714   -5.6942  H     
46   H        17.7876    4.9516   -5.2371  H     
47   H        18.0632    3.7661   -6.5307  H     
48   H        22.2169    4.4048   -1.4178  H     
49   H        23.7460    4.4233   -2.3096  H     
50   H        23.1799    2.9127   -1.5586  H     
@<TRIPOS>BOND
     1    1    2 1
     2    1    3 1
     3    1    5 1
     4    2    4 1
     5    2   15 2
     6    3    7 1
     7    3    8 1
     8    4   10 1
     9    5    9 2
    10    6   12 1
    11    6   16 2
    12    6   21 1
    13    6   22 1
    14    7   11 1
    15    8   13 1
    16    9   10 1
    17   10   18 2
    18   11   13 1
    19   11   17 1
    20   12   14 1
    21   13   23 1
    22   14   19 1
    23   14   20 2
    24   17   19 1
    25   21   25 1
    26   22   24 1
    27   24   26 1
    28   25   27 1
    29    3   28 1
    30    4   29 1
    31    5   30 1
    32    8   31 1
    33    8   32 1
    34    9   33 1
    35   11   34 1
    36   12   35 1
    37   12   36 1
    38   13   37 1
    39   17   38 1
    40   17   39 1
    41   23   40 1
    42   24   41 1
    43   24   42 1
    44   25   43 1
    45   25   44 1
    46   26   45 1
    47   26   46 1
    48   26   47 1
    49   27   48 1
    50   27   49 1
    51   27   50 1
@<TRIPOS>PROPERTY_DATA
  Total_Score	| 10.7387
  Crash		| -4.3155
  Polar		| 9.6030
  FragIndex	| 1
  FragRMSD	| 1.341

