@<TRIPOS>MOLECULE
BindingDB_50173541
 33 34 0 0 0
SMALL
NO_CHARGES


@<TRIPOS>ATOM
1    N        24.1518    6.8548   -5.3284  N     
2    C        24.5207    8.1546   -5.2998  C     
3    C        23.6135    6.2066   -6.5161  C     
4    N        24.8022    8.7505   -4.1390  N     
5    C        24.1389    6.1703   -4.1430  C     
6    O        22.2260    5.9196   -6.2831  O     
7    C        23.6731    6.9384   -7.8825  C     
8    C        24.4313    6.7696   -2.9763  C     
9    C        24.7216    8.0941   -2.9834  C     
10   C        21.6324    5.6468   -7.5584  C     
11   C        22.2593    6.7235   -8.4700  C     
12   O        24.5613    8.8628   -6.2934  O     
13   C        21.7837    2.2864   -6.3675  C     
14   C        21.8589    4.1812   -8.0273  C     
15   O        24.8633    8.6976   -1.9306  O     
16   O        22.3332    3.3916   -6.9299  O     
17   O        20.6136    1.7774   -6.8185  O     
18   O        21.4663    7.9062   -8.3764  O     
19   C        22.4978    1.6464   -5.2580  C     
20   H        24.1052    5.2371   -6.6730  H     
21   H        25.0157    9.6970   -4.1300  H     
22   H        23.9005    5.2054   -4.1104  H     
23   H        23.9161    7.9987   -7.7936  H     
24   H        24.4270    6.4784   -8.5318  H     
25   H        24.4195    6.2496   -2.1318  H     
26   H        20.5527    5.7981   -7.4578  H     
27   H        22.2948    6.4085   -9.5165  H     
28   H        20.9317    3.7834   -8.4485  H     
29   H        22.6224    4.1401   -8.8063  H     
30   H        21.9769    8.6087   -8.8240  H     
31   H        23.4880    1.3446   -5.5958  H     
32   H        21.9655    0.7659   -4.9021  H     
33   H        22.6032    2.3512   -4.4340  H     
@<TRIPOS>BOND
     1    1    2 1
     2    1    3 1
     3    1    5 1
     4    2    4 1
     5    2   12 2
     6    3    6 1
     7    3    7 1
     8    4    9 1
     9    5    8 2
    10    6   10 1
    11    7   11 1
    12    8    9 1
    13    9   15 2
    14   10   11 1
    15   10   14 1
    16   11   18 1
    17   13   16 1
    18   13   17 2
    19   13   19 1
    20   14   16 1
    21    3   20 1
    22    4   21 1
    23    5   22 1
    24    7   23 1
    25    7   24 1
    26    8   25 1
    27   10   26 1
    28   11   27 1
    29   14   28 1
    30   14   29 1
    31   18   30 1
    32   19   31 1
    33   19   32 1
    34   19   33 1
@<TRIPOS>PROPERTY_DATA
  Total_Score	| 7.5004
  Crash		| -1.7008
  Polar		| 6.3847
  FragIndex	| 1
  FragRMSD	| 1.416

