@<TRIPOS>MOLECULE
BindingDB_50173557
 74 77 0 0 0
SMALL
NO_CHARGES


@<TRIPOS>ATOM
1    N        23.9173    7.3629   -5.5988  N     
2    C        24.5221    8.5592   -5.4287  C     
3    C        23.2829    6.9587   -6.8492  C     
4    N        25.0120    8.9002   -4.2290  N     
5    P        19.5057    3.1931   -4.7426  P     
6    C        23.8478    6.5255   -4.5135  C     
7    O        21.9402    6.5494   -6.5751  O     
8    C        23.9979    5.8144   -7.6099  C     
9    C        22.8546    4.9440   -8.1634  C     
10   C        24.3305    6.8750   -3.3069  C     
11   C        24.9085    8.0940   -3.1746  C     
12   C        21.6695    5.2906   -7.2157  C     
13   O        22.6078    5.3188   -9.5303  O     
14   S        21.7593    4.2411  -10.5595  S     
15   C        21.3846    4.2536   -6.0973  C     
16   O        19.9930    4.3191   -5.7152  O     
17   O        24.6624    9.3910   -6.3187  O     
18   O        18.3152    3.7350   -3.8820  O     
19   O        20.6613    2.6683   -3.8179  O     
20   C        20.5336    5.1358  -11.6050  C     
21   O        19.0484    2.1035   -5.5765  O     
22   O        25.3288    8.4600   -2.0841  O     
23   C        21.4775    1.7471   -4.4169  C     
24   C        17.0196    3.6971   -4.3594  C     
25   C        21.0608    2.7710   -9.7641  C     
26   C        23.1009    3.5088  -11.5235  C     
27   C        20.0405    6.4086  -10.8467  C     
28   C        19.3046    4.2266  -11.9217  C     
29   C        21.1761    5.6006  -12.9533  C     
30   C        21.0245    0.4355   -4.6946  C     
31   C        16.6408    3.7002   -5.7294  C     
32   C        15.9986    3.6503   -3.3846  C     
33   C        22.8148    2.0875   -4.7078  C     
34   C        15.2927    3.5564   -6.1022  C     
35   C        14.6432    3.5520   -3.7566  C     
36   C        23.6676    1.1472   -5.2956  C     
37   C        21.8705   -0.4957   -5.3253  C     
38   C        14.2925    3.4816   -5.1172  C     
39   C        23.1993   -0.1384   -5.6255  C     
40   H        23.1795    7.7989   -7.5400  H     
41   H        25.4187    9.7745   -4.1171  H     
42   H        23.4299    5.6335   -4.5864  H     
43   H        24.6369    6.2074   -8.4095  H     
44   H        24.6236    5.2170   -6.9405  H     
45   H        23.1465    3.8924   -8.1043  H     
46   H        24.2543    6.2574   -2.5353  H     
47   H        20.7481    5.4068   -7.7972  H     
48   H        21.6720    3.2615   -6.4046  H     
49   H        22.0232    4.5182   -5.2538  H     
50   H        20.2939    3.0771   -9.0527  H     
51   H        20.5878    2.1293  -10.5054  H     
52   H        21.8357    2.2090   -9.2391  H     
53   H        23.6098    4.2689  -12.1101  H     
54   H        22.7138    2.7399  -12.1915  H     
55   H        23.8239    3.0524  -10.8475  H     
56   H        20.8902    7.0314  -10.5695  H     
57   H        19.3694    7.0057  -11.4699  H     
58   H        19.5060    6.1385   -9.9368  H     
59   H        18.5391    4.7835  -12.4673  H     
60   H        19.6048    3.3806  -12.5452  H     
61   H        18.8561    3.8453  -11.0005  H     
62   H        21.5557    4.7433  -13.5183  H     
63   H        21.9993    6.2989  -12.7715  H     
64   H        20.4370    6.1147  -13.5771  H     
65   H        20.0797    0.1450   -4.4301  H     
66   H        17.3462    3.7805   -6.4626  H     
67   H        16.2384    3.6806   -2.3907  H     
68   H        23.1780    3.0062   -4.4829  H     
69   H        15.0388    3.5222   -7.0971  H     
70   H        13.9175    3.5035   -3.0380  H     
71   H        24.6375    1.4012   -5.5029  H     
72   H        21.5326   -1.4363   -5.5362  H     
73   H        13.3103    3.3830   -5.3877  H     
74   H        23.8209   -0.8237   -6.0598  H     
@<TRIPOS>BOND
     1    2    1 1
     2    3    1 1
     3    4    2 1
     4    5   16 1
     5    6    1 1
     6    7    3 1
     7    8    3 1
     8    9    8 1
     9   10    6 2
    10   11   10 1
    11   12    7 1
    12   13    9 1
    13   14   13 1
    14   15   12 1
    15   16   15 1
    16   17    2 2
    17   18    5 1
    18   19    5 1
    19   20   14 1
    20   21    5 2
    21   22   11 2
    22   23   19 1
    23   24   18 1
    24   25   14 1
    25   26   14 1
    26   27   20 1
    27   28   20 1
    28   29   20 1
    29   30   23 1
    30   31   24 2
    31   32   24 1
    32   33   23 2
    33   34   31 1
    34   35   32 2
    35   36   33 1
    36   37   30 2
    37   38   35 1
    38   39   36 2
    39   11    4 1
    40   12    9 1
    41   39   37 1
    42   38   34 2
    43    3   40 1
    44    4   41 1
    45    6   42 1
    46    8   43 1
    47    8   44 1
    48    9   45 1
    49   10   46 1
    50   12   47 1
    51   15   48 1
    52   15   49 1
    53   25   50 1
    54   25   51 1
    55   25   52 1
    56   26   53 1
    57   26   54 1
    58   26   55 1
    59   27   56 1
    60   27   57 1
    61   27   58 1
    62   28   59 1
    63   28   60 1
    64   28   61 1
    65   29   62 1
    66   29   63 1
    67   29   64 1
    68   30   65 1
    69   31   66 1
    70   32   67 1
    71   33   68 1
    72   34   69 1
    73   35   70 1
    74   36   71 1
    75   37   72 1
    76   38   73 1
    77   39   74 1
@<TRIPOS>PROPERTY_DATA
  Total_Score	| 9.1742
  Crash		| -5.9683
  Polar		| 7.2555
  FragIndex	| 1
  FragRMSD	| 1.047

