@<TRIPOS>MOLECULE
BindingDB_50173571
 66 67 0 0 0
SMALL
NO_CHARGES


@<TRIPOS>ATOM
1    N        23.6811    7.5966   -5.3788  N     
2    C        24.3791    8.7542   -5.3092  C     
3    C        22.7885    7.2616   -6.5059  C     
4    N        25.1518    9.0173   -4.2486  N     
5    C        23.7426    6.7744   -4.2790  C     
6    O        22.2637    5.9261   -6.4316  O     
7    C        23.3460    7.2547   -7.9641  C     
8    C        23.6061    5.7709   -8.3379  C     
9    P        21.3474    2.3824   -5.1751  P     
10   C        24.5304    7.0280   -3.2197  C     
11   C        25.2540    8.1716   -3.2247  C     
12   C        23.2796    5.0829   -7.0049  C     
13   O        23.0330    5.2429   -9.5590  O     
14   S        21.4279    4.7955   -9.9644  S     
15   C        22.8448    3.6143   -6.9219  C     
16   O        24.3378    9.6200   -6.1724  O     
17   C        21.5005    3.3446  -11.0914  C     
18   O        21.8258    3.6493   -5.9239  O     
19   O        21.9951    1.2418   -5.7692  O     
20   O        25.9766    8.4398   -2.2755  O     
21   O        21.8083    2.4753   -3.6802  O     
22   O        19.8095    2.1849   -5.3420  O     
23   C        20.6645    6.1654  -10.8733  C     
24   C        20.2929    4.5964   -8.5796  C     
25   C        22.9900    3.0582  -11.4631  C     
26   C        20.9261    2.0819  -10.3804  C     
27   C        20.6773    3.5882  -12.3949  C     
28   C        22.5156    3.6779   -3.2930  C     
29   C        19.0136    3.3511   -5.6481  C     
30   C        22.7847    3.7410   -1.7845  C     
31   C        18.0419    3.6840   -4.5028  C     
32   H        21.9374    7.9453   -6.4470  H     
33   H        25.6390    9.8553   -4.2038  H     
34   H        23.1916    5.9572   -4.2283  H     
35   H        22.6046    7.6814   -8.6424  H     
36   H        24.2647    7.8399   -8.0414  H     
37   H        24.6827    5.6545   -8.5068  H     
38   H        24.5623    6.4006   -2.4486  H     
39   H        24.1977    5.1275   -6.3989  H     
40   H        23.6767    2.9854   -6.6033  H     
41   H        22.4581    3.2706   -7.8707  H     
42   H        19.6585    5.8929  -11.1865  H     
43   H        21.2512    6.4162  -11.7540  H     
44   H        20.5858    7.0395  -10.2309  H     
45   H        20.2578    5.5362   -8.0368  H     
46   H        20.6091    3.8226   -7.8995  H     
47   H        19.3038    4.3477   -8.9579  H     
48   H        23.5862    2.8707  -10.5672  H     
49   H        23.0645    2.1759  -12.1033  H     
50   H        23.4384    3.8951  -11.9985  H     
51   H        19.8906    2.2426  -10.0718  H     
52   H        21.5206    1.8295   -9.5035  H     
53   H        20.9454    1.2161  -11.0456  H     
54   H        19.6405    3.8336  -12.1614  H     
55   H        20.6774    2.6962  -13.0255  H     
56   H        21.1021    4.4000  -12.9850  H     
57   H        23.4901    3.7468   -3.7885  H     
58   H        21.9183    4.5499   -3.5612  H     
59   H        19.5974    4.2444   -5.8980  H     
60   H        18.4159    3.1062   -6.5294  H     
61   H        23.3331    4.6524   -1.5394  H     
62   H        23.3769    2.8790   -1.4793  H     
63   H        21.8450    3.7489   -1.2384  H     
64   H        17.3293    2.8702   -4.3740  H     
65   H        17.4951    4.5997   -4.7346  H     
66   H        18.5900    3.8253   -3.5727  H     
@<TRIPOS>BOND
     1    2    1 1
     2    3    1 1
     3    4    2 1
     4    5    1 1
     5    6    3 1
     6    7    3 1
     7    8    7 1
     8    9   18 1
     9   10    5 2
    10   11   10 1
    11   12    6 1
    12   13    8 1
    13   14   13 1
    14   15   12 1
    15   16    2 2
    16   17   14 1
    17   18   15 1
    18   19    9 2
    19   20   11 2
    20   21    9 1
    21   22    9 1
    22   23   14 1
    23   24   14 1
    24   25   17 1
    25   26   17 1
    26   27   17 1
    27   28   21 1
    28   29   22 1
    29   30   28 1
    30   31   29 1
    31    4   11 1
    32   12    8 1
    33    3   32 1
    34    4   33 1
    35    5   34 1
    36    7   35 1
    37    7   36 1
    38    8   37 1
    39   10   38 1
    40   12   39 1
    41   15   40 1
    42   15   41 1
    43   23   42 1
    44   23   43 1
    45   23   44 1
    46   24   45 1
    47   24   46 1
    48   24   47 1
    49   25   48 1
    50   25   49 1
    51   25   50 1
    52   26   51 1
    53   26   52 1
    54   26   53 1
    55   27   54 1
    56   27   55 1
    57   27   56 1
    58   28   57 1
    59   28   58 1
    60   29   59 1
    61   29   60 1
    62   30   61 1
    63   30   62 1
    64   30   63 1
    65   31   64 1
    66   31   65 1
    67   31   66 1
@<TRIPOS>PROPERTY_DATA
  Total_Score	| 9.7220
  Crash		| -3.7757
  Polar		| 5.6918
  FragIndex	| 1
  FragRMSD	| 0.797

