@<TRIPOS>MOLECULE
BindingDB_50173558
 42 43 0 0 0
SMALL
NO_CHARGES


@<TRIPOS>ATOM
1    N        24.4138    7.2611   -5.4596  N     
2    C        24.8277    8.5223   -5.1991  C     
3    C        24.2804    6.7896   -6.8315  C     
4    N        25.0234    8.9115   -3.9402  N     
5    C        24.1799    6.4260   -4.3998  C     
6    O        23.8505    5.4208   -6.9708  O     
7    C        23.2911    7.6213   -7.6844  C     
8    C        24.3715    6.8275   -3.1305  C     
9    C        24.8137    8.0937   -2.9128  C     
10   C        22.4694    5.4192   -7.3388  C     
11   C        22.4071    6.5652   -8.3581  C     
12   O        25.0762    9.3471   -6.0703  O     
13   C        19.7906    2.9860   -7.7449  C     
14   C        22.0697    4.0300   -7.8803  C     
15   O        25.0274    8.4961   -1.7788  O     
16   O        20.6575    3.9672   -8.1132  O     
17   O        20.2243    1.8731   -7.1050  O     
18   O        21.0894    7.0471   -8.5951  O     
19   C        18.3682    3.0866   -8.1193  C     
20   C        17.4274    3.0032   -6.8885  C     
21   C        15.9264    2.8042   -7.2355  C     
22   C        15.5826    1.4415   -7.8812  C     
23   H        25.2709    6.8263   -7.2971  H     
24   H        25.3419    9.8087   -3.7688  H     
25   H        23.8664    5.4938   -4.5376  H     
26   H        22.6799    8.2721   -7.0507  H     
27   H        23.8085    8.2343   -8.4223  H     
28   H        24.1970    6.2053   -2.3763  H     
29   H        21.8512    5.6479   -6.4621  H     
30   H        22.8522    6.2511   -9.3065  H     
31   H        22.5831    3.8382   -8.8246  H     
32   H        22.3870    3.2688   -7.1633  H     
33   H        21.1629    7.5896   -9.4076  H     
34   H        18.1914    4.0312   -8.6395  H     
35   H        18.1505    2.2728   -8.8116  H     
36   H        17.7484    2.1858   -6.2376  H     
37   H        17.5221    3.9336   -6.3204  H     
38   H        15.3511    2.8929   -6.3097  H     
39   H        15.5972    3.6023   -7.9049  H     
40   H        16.0054    1.3737   -8.8841  H     
41   H        14.4988    1.3362   -7.9590  H     
42   H        15.9674    0.6188   -7.2767  H     
@<TRIPOS>BOND
     1    1    2 1
     2    1    3 1
     3    1    5 1
     4    2    4 1
     5    2   12 2
     6    3    6 1
     7    3    7 1
     8    4    9 1
     9    5    8 2
    10    6   10 1
    11    7   11 1
    12    8    9 1
    13    9   15 2
    14   10   11 1
    15   10   14 1
    16   11   18 1
    17   13   16 1
    18   13   17 2
    19   13   19 1
    20   14   16 1
    21   19   20 1
    22   20   21 1
    23   21   22 1
    24    3   23 1
    25    4   24 1
    26    5   25 1
    27    7   26 1
    28    7   27 1
    29    8   28 1
    30   10   29 1
    31   11   30 1
    32   14   31 1
    33   14   32 1
    34   18   33 1
    35   19   34 1
    36   19   35 1
    37   20   36 1
    38   20   37 1
    39   21   38 1
    40   21   39 1
    41   22   40 1
    42   22   41 1
    43   22   42 1
@<TRIPOS>PROPERTY_DATA
  Total_Score	| 7.7297
  Crash		| -1.1222
  Polar		| 6.6356
  FragIndex	| 1
  FragRMSD	| 1.496

