@<TRIPOS>MOLECULE
BindingDB_50173559
 30 31 0 0 0
SMALL
NO_CHARGES


@<TRIPOS>ATOM
1    N        24.1152    7.1937   -5.3200  N     
2    C        24.6627    8.4218   -5.1658  C     
3    C        23.6865    6.5701   -6.5687  C     
4    N        25.0138    8.8539   -3.9525  N     
5    C        23.9961    6.4113   -4.1984  C     
6    O        22.3523    6.0357   -6.3850  O     
7    C        23.6140    7.2928   -7.9398  C     
8    C        24.3383    6.8548   -2.9797  C     
9    C        24.8494    8.1040   -2.8689  C     
10   C        21.8357    5.6390   -7.6621  C     
11   C        22.2692    6.8358   -8.5414  C     
12   O        24.8978    9.2046   -6.0730  O     
13   O        25.1451    8.5575   -1.7763  O     
14   O        21.2854    7.8716   -8.4239  O     
15   N        23.0817    4.1037   -9.3011  N     
16   C        22.3047    4.1959   -8.0557  C     
17   H        24.3694    5.7201   -6.7138  H     
18   H        25.3964    9.7420   -3.8587  H     
19   H        23.6453    5.4816   -4.2576  H     
20   H        23.6352    8.3779   -7.8749  H     
21   H        24.4356    6.9706   -8.5837  H     
22   H        24.2217    6.2697   -2.1922  H     
23   H        20.7400    5.6200   -7.5880  H     
24   H        22.3449    6.5739   -9.6018  H     
25   H        21.6585    8.6415   -8.9030  H     
26   H        22.4826    4.3120  -10.1043  H     
27   H        23.4467    3.1510   -9.3744  H     
28   H        23.8685    4.7599   -9.2742  H     
29   H        22.9209    3.7737   -7.2631  H     
30   H        21.4316    3.5401   -8.1566  H     
@<TRIPOS>BOND
     1    1    2 1
     2    1    3 1
     3    1    5 1
     4    2    4 1
     5    2   12 2
     6    3    6 1
     7    3    7 1
     8    4    9 1
     9    5    8 2
    10    6   10 1
    11    7   11 1
    12    8    9 1
    13    9   13 2
    14   10   11 1
    15   10   16 1
    16   11   14 1
    17   15   16 1
    18    3   17 1
    19    4   18 1
    20    5   19 1
    21    7   20 1
    22    7   21 1
    23    8   22 1
    24   10   23 1
    25   11   24 1
    26   14   25 1
    27   15   26 1
    28   15   27 1
    29   15   28 1
    30   16   29 1
    31   16   30 1
@<TRIPOS>PROPERTY_DATA
  Total_Score	| 7.5225
  Crash		| -1.1916
  Polar		| 5.9118
  FragIndex	| 1
  FragRMSD	| 1.406

