@<TRIPOS>MOLECULE
BindingDB_30432
 66 69 0 0 0
SMALL
NO_CHARGES


@<TRIPOS>ATOM
1    C        95.4059    8.2525   54.8842  C     
2    C        95.1818    8.4714   53.5394  C     
3    N        94.1616    9.1970   53.2155  N     
4    N        93.3191    9.7265   54.0439  N     
5    C        93.5038    9.5553   55.3707  C     
6    C        94.5799    8.7946   55.8266  C     
7    O        92.7058   10.0631   56.1526  O     
8    C        92.2843   10.5615   53.4667  C     
9    O        96.5308    7.6282   55.2415  O     
10   C        94.7924    8.5934   57.2082  C     
11   S        95.5540    6.9885   59.2182  S     
12   N        95.2182    7.3773   57.6206  N     
13   N        94.5484    9.5924   58.1030  N     
14   C        94.6362    9.5246   59.4725  C     
15   C        95.0871    8.3677   60.1508  C     
16   O        94.7214    5.7171   59.6809  O     
17   O        97.1216    6.7984   59.3698  O     
18   C        95.2181    8.3650   61.5560  C     
19   C        94.2917   10.6641   60.2369  C     
20   C        94.4329   10.6584   61.6341  C     
21   C        94.9251    9.5236   62.3051  C     
22   C        91.2263    9.8227   52.5970  C     
23   C        90.2673    8.8290   53.3294  C     
24   C        89.8679    9.3032   54.7534  C     
25   C        89.0054    8.5696   52.4602  C     
26   C        95.9796    7.9695   52.5207  C     
27   C        96.4371    6.6509   52.3523  C     
28   C        97.2240    6.4336   51.2105  C     
29   C        97.4428    7.5719   50.4338  C     
30   S        96.6035    8.8662   51.1889  S     
31   O        95.0442    9.5897   63.6712  O     
32   C        96.2002    8.9861   64.2925  C     
33   C        96.9552   10.0432   64.9921  C     
34   O        96.9435   10.1629   66.3461  O     
35   O        97.7028   10.8885   64.2399  O     
36   C        95.6820    7.8457   65.2026  C     
37   C        97.7322   11.0821   67.1190  C     
38   C        99.2419   10.7559   67.0513  C     
39   H        91.7298   11.1156   54.2325  H     
40   H        92.7651   11.3149   52.8298  H     
41   H        97.1502    8.3423   55.5065  H     
42   H        94.2735   10.4500   57.7381  H     
43   H        95.5454    7.5245   62.0338  H     
44   H        93.9534   11.5127   59.7759  H     
45   H        94.1861   11.4871   62.1727  H     
46   H        90.6136   10.5972   52.1169  H     
47   H        91.7447    9.2857   51.7935  H     
48   H        90.7889    7.8705   53.4187  H     
49   H        90.7251    9.2202   55.4243  H     
50   H        89.0729    8.6733   55.1692  H     
51   H        89.5438   10.3427   54.7375  H     
52   H        88.4377    9.4988   52.3248  H     
53   H        88.3393    7.8310   52.9225  H     
54   H        89.2949    8.1868   51.4737  H     
55   H        96.1868    5.8943   52.9891  H     
56   H        97.5867    5.5139   50.9548  H     
57   H        97.9803    7.6231   49.5663  H     
58   H        96.8845    8.5348   63.5633  H     
59   H        94.9666    8.2322   65.9309  H     
60   H        96.5076    7.3651   65.7305  H     
61   H        95.1757    7.0915   64.5902  H     
62   H        97.5617   12.1071   66.7783  H     
63   H        97.4043   11.0202   68.1578  H     
64   H        99.4165    9.7099   67.3121  H     
65   H        99.7867   11.3907   67.7542  H     
66   H        99.6312   10.9388   66.0493  H     
@<TRIPOS>BOND
     1    1    2 1
     2    1    6 2
     3    1    9 1
     4    2    3 2
     5    2   26 1
     6    3    4 1
     7    4    5 1
     8    4    8 1
     9    5    6 1
    10    5    7 2
    11    6   10 1
    12    8   22 1
    13   10   12 2
    14   10   13 1
    15   11   12 1
    16   11   15 1
    17   11   16 2
    18   11   17 2
    19   13   14 1
    20   14   15 1
    21   14   19 2
    22   15   18 2
    23   18   21 1
    24   19   20 1
    25   20   21 2
    26   21   31 1
    27   22   23 1
    28   23   24 1
    29   23   25 1
    30   26   27 2
    31   26   30 1
    32   27   28 1
    33   28   29 2
    34   29   30 1
    35   31   32 1
    36   32   33 1
    37   32   36 1
    38   33   34 1
    39   33   35 2
    40   34   37 1
    41   37   38 1
    42    8   39 1
    43    8   40 1
    44    9   41 1
    45   13   42 1
    46   18   43 1
    47   19   44 1
    48   20   45 1
    49   22   46 1
    50   22   47 1
    51   23   48 1
    52   24   49 1
    53   24   50 1
    54   24   51 1
    55   25   52 1
    56   25   53 1
    57   25   54 1
    58   27   55 1
    59   28   56 1
    60   29   57 1
    61   32   58 1
    62   36   59 1
    63   36   60 1
    64   36   61 1
    65   37   62 1
    66   37   63 1
    67   38   64 1
    68   38   65 1
    69   38   66 1
@<TRIPOS>PROPERTY_DATA
  Total_Score	| 10.9215
  Crash		| -2.8673
  Polar		| 2.9355
  FragIndex	| 1
  FragRMSD	| 0.654

