@<TRIPOS>MOLECULE
BindingDB_30428
 64 67 0 0 0
SMALL
NO_CHARGES


@<TRIPOS>ATOM
1    C        95.4232    8.0956   55.0025  C     
2    C        95.2522    8.3863   53.6614  C     
3    N        94.3209    9.2245   53.3528  N     
4    N        93.5084    9.7985   54.1800  N     
5    C        93.6365    9.5453   55.4983  C     
6    C        94.6386    8.6866   55.9500  C     
7    O        92.8426   10.0316   56.2910  O     
8    C        92.5472   10.7099   53.5938  C     
9    O        96.4728    7.3477   55.3528  O     
10   C        94.8552    8.4792   57.3324  C     
11   S        95.6195    6.8931   59.3625  S     
12   N        95.2801    7.2648   57.7592  N     
13   N        94.6276    9.4848   58.2264  N     
14   C        94.7300    9.4380   59.5884  C     
15   C        95.1813    8.2928   60.2835  C     
16   O        94.7836    5.6363   59.8594  O     
17   O        97.1845    6.6761   59.5294  O     
18   C        95.3416    8.3207   61.6835  C     
19   C        94.3849   10.5893   60.3286  C     
20   C        94.5751   10.6267   61.7237  C     
21   C        95.1070    9.5117   62.4009  C     
22   C        91.4768   10.0470   52.6801  C     
23   C        90.4778    9.0447   53.3443  C     
24   C        90.0103    9.4736   54.7652  C     
25   C        89.2480    8.8442   52.4124  C     
26   C        96.0218    7.8694   52.6244  C     
27   C        96.3501    6.5295   52.3557  C     
28   C        97.1342    6.3222   51.2059  C     
29   C        97.4782    7.4903   50.5265  C     
30   S        96.7577    8.8005   51.3736  S     
31   O        95.3494    9.6219   63.7487  O     
32   C        96.7298    9.4903   64.1897  C     
33   C        96.8311   10.2249   65.4416  C     
34   N        97.7597   11.1349   65.6493  N     
35   O        96.0783    9.9562   66.3681  O     
36   C        97.1056    7.9797   64.3303  C     
37   C        98.0476    7.5869   65.4958  C     
38   H        92.0205   11.2930   54.3495  H     
39   H        93.0975   11.4411   52.9905  H     
40   H        97.2108    7.9814   55.4951  H     
41   H        94.3552   10.3414   57.8555  H     
42   H        95.6597    7.4859   62.1744  H     
43   H        94.0159   11.4206   59.8585  H     
44   H        94.3470   11.4784   62.2389  H     
45   H        90.9028   10.8565   52.2204  H     
46   H        92.0055    9.5288   51.8725  H     
47   H        90.9767    8.0735   53.4303  H     
48   H        90.8176    9.3571   55.4800  H     
49   H        89.1836    8.8477   55.1079  H     
50   H        89.6898   10.5191   54.7672  H     
51   H        88.7075    9.7883   52.2906  H     
52   H        88.5604    8.1011   52.8229  H     
53   H        89.5706    8.4946   51.4306  H     
54   H        96.0137    5.7478   52.9217  H     
55   H        97.4129    5.3938   50.8820  H     
56   H        98.0282    7.5592   49.6687  H     
57   H        97.4163    9.9571   63.4688  H     
58   H        97.8018   11.6009   66.5005  H     
59   H        98.4242   11.3228   64.9674  H     
60   H        96.1910    7.3876   64.4208  H     
61   H        97.6055    7.6797   63.4054  H     
62   H        98.9538    8.1928   65.4667  H     
63   H        98.3246    6.5368   65.4123  H     
64   H        97.5485    7.7353   66.4587  H     
@<TRIPOS>BOND
     1    1    2 1
     2    1    6 2
     3    1    9 1
     4    2    3 2
     5    2   26 1
     6    3    4 1
     7    4    5 1
     8    4    8 1
     9    5    6 1
    10    5    7 2
    11    6   10 1
    12    8   22 1
    13   10   12 2
    14   10   13 1
    15   11   12 1
    16   11   15 1
    17   11   16 2
    18   11   17 2
    19   13   14 1
    20   14   15 1
    21   14   19 2
    22   15   18 2
    23   18   21 1
    24   19   20 1
    25   20   21 2
    26   21   31 1
    27   22   23 1
    28   23   24 1
    29   23   25 1
    30   26   27 2
    31   26   30 1
    32   27   28 1
    33   28   29 2
    34   29   30 1
    35   31   32 1
    36   32   33 1
    37   32   36 1
    38   33   34 am
    39   33   35 2
    40   36   37 1
    41    8   38 1
    42    8   39 1
    43    9   40 1
    44   13   41 1
    45   18   42 1
    46   19   43 1
    47   20   44 1
    48   22   45 1
    49   22   46 1
    50   23   47 1
    51   24   48 1
    52   24   49 1
    53   24   50 1
    54   25   51 1
    55   25   52 1
    56   25   53 1
    57   27   54 1
    58   28   55 1
    59   29   56 1
    60   32   57 1
    61   34   58 1
    62   34   59 1
    63   36   60 1
    64   36   61 1
    65   37   62 1
    66   37   63 1
    67   37   64 1
@<TRIPOS>PROPERTY_DATA
  Total_Score	| 9.6061
  Crash		| -2.1277
  Polar		| 2.8096
  FragIndex	| 1
  FragRMSD	| 0.205

