@<TRIPOS>MOLECULE
BindingDB_30425
 58 61 0 0 0
SMALL
NO_CHARGES


@<TRIPOS>ATOM
1    C        95.4295    8.2956   54.8758  C     
2    C        95.2101    8.6481   53.5503  C     
3    N        94.1803    9.4012   53.3103  N     
4    N        93.3308    9.8377   54.1783  N     
5    C        93.4983    9.5011   55.4709  C     
6    C        94.5978    8.7348   55.8563  C     
7    O        92.6518    9.8319   56.2990  O     
8    C        92.3227   10.7456   53.6786  C     
9    O        96.5667    7.6753   55.1962  O     
10   C        94.8687    8.5365   57.2214  C     
11   S        95.6152    6.9778   59.2639  S     
12   N        95.2673    7.3199   57.6535  N     
13   N        94.7030    9.5778   58.0801  N     
14   C        94.8410    9.5675   59.4345  C     
15   C        95.2352    8.4194   60.1520  C     
16   O        94.7120    5.7731   59.7750  O     
17   O        97.1655    6.6677   59.4270  O     
18   C        95.3539    8.4626   61.5562  C     
19   C        94.5568   10.7590   60.1349  C     
20   C        94.6916   10.8087   61.5344  C     
21   C        95.1124    9.6689   62.2449  C     
22   C        91.2695   10.0895   52.7428  C     
23   C        90.3320    9.0224   53.3903  C     
24   C        89.8829    9.4001   54.8306  C     
25   C        89.0876    8.7837   52.4956  C     
26   C        96.0268    8.3356   52.4602  C     
27   C        95.9473    8.9082   51.1716  C     
28   C        96.8912    8.4519   50.2374  C     
29   C        97.7508    7.4676   50.7281  C     
30   S        97.3327    7.2055   52.3732  S     
31   O        95.2791    9.7517   63.6021  O     
32   C        96.6700    9.8120   63.9897  C     
33   C        96.7457    9.6871   65.4194  C     
34   N        97.3546   10.5679   66.1769  N     
35   O        96.2265    8.7157   65.9573  O     
36   H        91.7913   11.2543   54.4920  H     
37   H        92.8190   11.5489   53.1232  H     
38   H        96.3010    6.9104   55.7512  H     
39   H        94.4390   10.4277   57.6913  H     
40   H        95.6456    7.6301   62.0736  H     
41   H        94.2593   11.5950   59.6301  H     
42   H        94.5006   11.6832   62.0302  H     
43   H        90.6538   10.8902   52.3281  H     
44   H        91.8025    9.6231   51.9011  H     
45   H        90.8854    8.0771   53.4401  H     
46   H        90.7398    9.3735   55.5111  H     
47   H        89.1389    8.6876   55.2124  H     
48   H        89.4724   10.4114   54.8464  H     
49   H        88.5022    9.7032   52.4092  H     
50   H        88.4466    8.0081   52.9224  H     
51   H        89.3905    8.4621   51.4951  H     
52   H        95.2537    9.6190   50.9213  H     
53   H        96.9340    8.7989   49.2794  H     
54   H        98.5018    7.0042   50.2125  H     
55   H        97.2403    8.9828   63.5487  H     
56   H        97.1231   10.7533   63.6533  H     
57   H        97.3904   10.4441   67.1380  H     
58   H        97.7813   11.3429   65.7779  H     
@<TRIPOS>BOND
     1    1    2 1
     2    1    6 2
     3    1    9 1
     4    2    3 2
     5    2   26 1
     6    3    4 1
     7    4    5 1
     8    4    8 1
     9    5    6 1
    10    5    7 2
    11    6   10 1
    12    8   22 1
    13   10   12 2
    14   10   13 1
    15   11   12 1
    16   11   15 1
    17   11   16 2
    18   11   17 2
    19   13   14 1
    20   14   15 1
    21   14   19 2
    22   15   18 2
    23   18   21 1
    24   19   20 1
    25   20   21 2
    26   21   31 1
    27   22   23 1
    28   23   24 1
    29   23   25 1
    30   26   27 2
    31   26   30 1
    32   27   28 1
    33   28   29 2
    34   29   30 1
    35   31   32 1
    36   32   33 1
    37   33   34 am
    38   33   35 2
    39    8   36 1
    40    8   37 1
    41    9   38 1
    42   13   39 1
    43   18   40 1
    44   19   41 1
    45   20   42 1
    46   22   43 1
    47   22   44 1
    48   23   45 1
    49   24   46 1
    50   24   47 1
    51   24   48 1
    52   25   49 1
    53   25   50 1
    54   25   51 1
    55   27   52 1
    56   28   53 1
    57   29   54 1
    58   32   55 1
    59   32   56 1
    60   34   57 1
    61   34   58 1
@<TRIPOS>PROPERTY_DATA
  Total_Score	| 8.6821
  Crash		| -2.2609
  Polar		| 3.2466
  FragIndex	| 1
  FragRMSD	| 0.270

