@<TRIPOS>MOLECULE
BindingDB_30423
 50 53 0 0 0
SMALL
NO_CHARGES


@<TRIPOS>ATOM
1    C        95.4338    8.1815   54.9647  C     
2    C        95.2478    8.4578   53.6265  C     
3    N        94.2542    9.2268   53.3190  N     
4    N        93.3985    9.7404   54.1433  N     
5    C        93.5370    9.4823   55.4600  C     
6    C        94.5946    8.6963   55.9098  C     
7    O        92.7223    9.9413   56.2506  O     
8    C        92.4437   10.6759   53.5834  C     
9    O        96.5748    7.5856   55.3158  O     
10   C        94.8280    8.4986   57.2856  C     
11   S        95.6244    6.9177   59.3051  S     
12   N        95.2478    7.2828   57.7095  N     
13   N        94.6181    9.5148   58.1729  N     
14   C        94.7405    9.4654   59.5369  C     
15   C        95.2073    8.3215   60.2262  C     
16   O        94.7623    5.6868   59.8201  O     
17   O        97.1862    6.6644   59.4398  O     
18   C        95.3255    8.3287   61.6319  C     
19   C        94.3680   10.6053   60.2859  C     
20   C        94.4657   10.6041   61.6915  C     
21   C        94.9521    9.4698   62.3651  C     
22   C        91.3150   10.0678   52.7012  C     
23   C        90.3655    9.0208   53.3680  C     
24   C        89.9170    9.4129   54.8049  C     
25   C        89.1229    8.7785   52.4664  C     
26   C        96.0638    8.0121   52.5944  C     
27   C        96.4651    6.6921   52.3150  C     
28   C        97.2773    6.5489   51.1777  C     
29   C        97.5745    7.7440   50.5193  C     
30   S        96.7770    9.0018   51.3750  S     
31   H        91.9613   11.2690   54.3639  H     
32   H        92.9957   11.3875   52.9618  H     
33   H        96.3075    6.8176   55.8654  H     
34   H        94.3381   10.3703   57.8053  H     
35   H        95.6794    7.5029   62.1258  H     
36   H        94.0143   11.4434   59.8124  H     
37   H        94.1835   11.4276   62.2242  H     
38   H        95.0318    9.4723   63.3846  H     
39   H        90.7009   10.9061   52.3568  H     
40   H        91.7660    9.6154   51.8088  H     
41   H        90.9041    8.0729   53.4308  H     
42   H        90.7370    9.2805   55.5038  H     
43   H        89.0972    8.7775   55.1534  H     
44   H        89.5971   10.4561   54.8441  H     
45   H        88.5436    9.6989   52.3541  H     
46   H        88.4687    8.0120   52.8905  H     
47   H        89.4380    8.4412   51.4770  H     
48   H        96.1573    5.8820   52.8605  H     
49   H        97.6032    5.6398   50.8344  H     
50   H        98.1349    7.8548   49.6725  H     
@<TRIPOS>BOND
     1    1    2 1
     2    1    6 2
     3    1    9 1
     4    2    3 2
     5    2   26 1
     6    3    4 1
     7    4    5 1
     8    4    8 1
     9    5    6 1
    10    5    7 2
    11    6   10 1
    12    8   22 1
    13   10   12 2
    14   10   13 1
    15   11   12 1
    16   11   15 1
    17   11   16 2
    18   11   17 2
    19   13   14 1
    20   14   15 1
    21   14   19 2
    22   15   18 2
    23   18   21 1
    24   19   20 1
    25   20   21 2
    26   22   23 1
    27   23   24 1
    28   23   25 1
    29   26   27 2
    30   26   30 1
    31   27   28 1
    32   28   29 2
    33   29   30 1
    34    8   31 1
    35    8   32 1
    36    9   33 1
    37   13   34 1
    38   18   35 1
    39   19   36 1
    40   20   37 1
    41   21   38 1
    42   22   39 1
    43   22   40 1
    44   23   41 1
    45   24   42 1
    46   24   43 1
    47   24   44 1
    48   25   45 1
    49   25   46 1
    50   25   47 1
    51   27   48 1
    52   28   49 1
    53   29   50 1
@<TRIPOS>PROPERTY_DATA
  Total_Score	| 7.0718
  Crash		| -1.6373
  Polar		| 1.1374
  FragIndex	| 1
  FragRMSD	| 0.627

