@<TRIPOS>MOLECULE
BindingDB_30422
 54 57 0 0 0
SMALL
NO_CHARGES


@<TRIPOS>ATOM
1    C        95.4749    8.1859   54.9760  C     
2    C        95.2810    8.4715   53.6385  C     
3    N        94.3018    9.2565   53.3364  N     
4    N        93.4592    9.7757   54.1690  N     
5    C        93.6119    9.5356   55.4898  C     
6    C        94.6696    8.7369   55.9330  C     
7    O        92.7831    9.9702   56.2811  O     
8    C        92.4597   10.6393   53.5815  C     
9    O        96.5744    7.5060   55.3055  O     
10   C        94.9033    8.5300   57.3149  C     
11   S        95.6591    6.9348   59.3444  S     
12   N        95.3128    7.3095   57.7378  N     
13   N        94.7038    9.5447   58.2091  N     
14   C        94.8014    9.4897   59.5775  C     
15   C        95.2355    8.3378   60.2757  C     
16   O        94.7940    5.6895   59.8216  O     
17   O        97.2210    6.6901   59.5164  O     
18   C        95.3539    8.3453   61.6834  C     
19   C        94.4467   10.6327   60.3241  C     
20   C        94.5655   10.6457   61.7245  C     
21   C        95.0507    9.5153   62.4107  C     
22   O        95.1561    9.5710   63.7738  O     
23   C        91.3987    9.9423   52.6840  C     
24   C        90.3914    8.9542   53.3609  C     
25   C        89.9372    9.3989   54.7801  C     
26   C        89.1558    8.7503   52.4381  C     
27   C        96.0664    7.9939   52.5999  C     
28   C        96.4375    6.6672   52.3134  C     
29   C        97.2737    6.5067   51.1959  C     
30   C        97.6066    7.6995   50.5476  C     
31   S        96.8193    8.9698   51.3921  S     
32   C        96.4907    9.3879   64.2776  C     
33   H        91.9191   11.1988   54.3482  H     
34   H        92.9775   11.3892   52.9686  H     
35   H        96.2637    6.7827   55.8902  H     
36   H        94.4636   10.4088   57.8408  H     
37   H        95.6721    7.5102   62.1768  H     
38   H        94.0949   11.4676   59.8505  H     
39   H        94.3051   11.4818   62.2494  H     
40   H        90.8238   10.7362   52.2070  H     
41   H        91.9305    9.4095   51.8859  H     
42   H        90.8742    7.9793   53.4526  H     
43   H        90.7426    9.2259   55.4890  H     
44   H        89.0774    8.8227   55.1308  H     
45   H        89.6828   10.4615   54.7959  H     
46   H        88.5803    9.6740   52.3604  H     
47   H        88.4988    7.9657   52.8166  H     
48   H        89.4745    8.4557   51.4367  H     
49   H        96.0992    5.8631   52.8518  H     
50   H        97.6101    5.5957   50.8721  H     
51   H        98.1943    7.8034   49.7178  H     
52   H        96.8416    8.3667   64.1071  H     
53   H        96.4661    9.5664   65.3532  H     
54   H        97.1946   10.0967   63.8310  H     
@<TRIPOS>BOND
     1    1    2 1
     2    1    6 2
     3    1    9 1
     4    2    3 2
     5    2   27 1
     6    3    4 1
     7    4    5 1
     8    4    8 1
     9    5    6 1
    10    5    7 2
    11    6   10 1
    12    8   23 1
    13   10   12 2
    14   10   13 1
    15   11   12 1
    16   11   15 1
    17   11   16 2
    18   11   17 2
    19   13   14 1
    20   14   15 1
    21   14   19 2
    22   15   18 2
    23   18   21 1
    24   19   20 1
    25   20   21 2
    26   21   22 1
    27   22   32 1
    28   23   24 1
    29   24   25 1
    30   24   26 1
    31   27   28 2
    32   27   31 1
    33   28   29 1
    34   29   30 2
    35   30   31 1
    36    8   33 1
    37    8   34 1
    38    9   35 1
    39   13   36 1
    40   18   37 1
    41   19   38 1
    42   20   39 1
    43   23   40 1
    44   23   41 1
    45   24   42 1
    46   25   43 1
    47   25   44 1
    48   25   45 1
    49   26   46 1
    50   26   47 1
    51   26   48 1
    52   28   49 1
    53   29   50 1
    54   30   51 1
    55   32   52 1
    56   32   53 1
    57   32   54 1
@<TRIPOS>PROPERTY_DATA
  Total_Score	| 8.1365
  Crash		| -1.6765
  Polar		| 2.2570
  FragIndex	| 1
  FragRMSD	| 0.608

