@<TRIPOS>MOLECULE
BindingDB_30434
 55 58 0 0 0
SMALL
NO_CHARGES


@<TRIPOS>ATOM
1    C        95.5070    8.5008   55.0244  C     
2    C        95.3509    8.7992   53.6782  C     
3    N        94.3272    9.5260   53.3667  N     
4    N        93.4371    9.9875   54.1901  N     
5    C        93.5603    9.7321   55.5065  C     
6    C        94.6199    8.9521   55.9545  C     
7    O        92.7042   10.1407   56.2863  O     
8    C        92.4084   10.8070   53.5778  C     
9    O        96.5872    7.8223   55.4152  O     
10   C        94.7785    8.6696   57.3286  C     
11   S        95.5645    7.0130   59.2899  S     
12   N        95.2356    7.4514   57.6991  N     
13   N        94.5041    9.6275   58.2612  N     
14   C        94.6232    9.5265   59.6269  C     
15   C        95.1031    8.3633   60.2773  C     
16   O        94.7845    5.6881   59.7054  O     
17   O        97.1392    6.8304   59.4356  O     
18   C        95.2949    8.3463   61.6743  C     
19   C        94.2851   10.6490   60.4132  C     
20   C        94.4977   10.6402   61.8047  C     
21   C        95.0396    9.5014   62.4416  C     
22   C        91.4301    9.9995   52.6848  C     
23   C        90.3857    9.0355   53.3696  C     
24   C        89.9359    9.4158   54.8134  C     
25   C        89.1580    8.8341   52.4446  C     
26   C        96.2060    8.4199   52.6324  C     
27   C        96.0567    8.7413   51.2602  C     
28   C        97.0454    8.2529   50.3882  C     
29   C        98.0524    7.5162   51.0138  C     
30   S        97.6717    7.4942   52.6882  S     
31   O        95.2200    9.5061   63.7997  O     
32   C        96.5764    9.3879   64.2860  C     
33   C        96.9240    8.1286   64.6676  C     
34   N        97.2251    7.0392   64.9462  N     
35   H        91.7951   11.3879   54.2822  H     
36   H        92.9110   11.5598   52.9520  H     
37   H        97.2769    8.5052   55.5785  H     
38   H        94.2313   10.4945   57.9245  H     
39   H        95.6451    7.5029   62.1345  H     
40   H        93.8987   11.4884   59.9717  H     
41   H        94.2731   11.4725   62.3518  H     
42   H        90.8965   10.7440   52.0696  H     
43   H        92.0260    9.4234   51.9706  H     
44   H        90.8583    8.0500   53.4549  H     
45   H        90.7404    9.2136   55.5136  H     
46   H        89.0732    8.8262   55.1213  H     
47   H        89.6641   10.4648   54.9064  H     
48   H        88.6493    9.7876   52.3000  H     
49   H        88.4577    8.1051   52.8558  H     
50   H        89.4867    8.4693   51.4696  H     
51   H        95.2802    9.2949   50.9012  H     
52   H        97.0327    8.4121   49.3706  H     
53   H        98.8590    7.0775   50.5647  H     
54   H        97.2976    9.7417   63.5387  H     
55   H        96.6630   10.0338   65.1683  H     
@<TRIPOS>BOND
     1    1    2 1
     2    1    6 2
     3    1    9 1
     4    2    3 2
     5    2   26 1
     6    3    4 1
     7    4    5 1
     8    4    8 1
     9    5    6 1
    10    5    7 2
    11    6   10 1
    12    8   22 1
    13   10   12 2
    14   10   13 1
    15   11   12 1
    16   11   15 1
    17   11   16 2
    18   11   17 2
    19   13   14 1
    20   14   15 1
    21   14   19 2
    22   15   18 2
    23   18   21 1
    24   19   20 1
    25   20   21 2
    26   21   31 1
    27   22   23 1
    28   23   24 1
    29   23   25 1
    30   26   27 2
    31   26   30 1
    32   27   28 1
    33   28   29 2
    34   29   30 1
    35   31   32 1
    36   32   33 1
    37   33   34 3
    38    8   35 1
    39    8   36 1
    40    9   37 1
    41   13   38 1
    42   18   39 1
    43   19   40 1
    44   20   41 1
    45   22   42 1
    46   22   43 1
    47   23   44 1
    48   24   45 1
    49   24   46 1
    50   24   47 1
    51   25   48 1
    52   25   49 1
    53   25   50 1
    54   27   51 1
    55   28   52 1
    56   29   53 1
    57   32   54 1
    58   32   55 1
@<TRIPOS>PROPERTY_DATA
  Total_Score	| 8.0415
  Crash		| -1.7210
  Polar		| 2.1479
  FragIndex	| 1
  FragRMSD	| 0.298

