@<TRIPOS>MOLECULE
BindingDB_30426
 61 64 0 0 0
SMALL
NO_CHARGES


@<TRIPOS>ATOM
1    C        95.4297    8.2273   54.9423  C     
2    C        95.2154    8.4518   53.5974  C     
3    N        94.2158    9.2263   53.2787  N     
4    N        93.4042    9.7783   54.1266  N     
5    C        93.5758    9.5869   55.4383  C     
6    C        94.6312    8.7877   55.8914  C     
7    O        92.7728   10.0884   56.2183  O     
8    C        92.4207   10.6840   53.5480  C     
9    O        96.5512    7.5925   55.2865  O     
10   C        94.8426    8.5870   57.2772  C     
11   S        95.6122    6.9618   59.2684  S     
12   N        95.2680    7.3704   57.6747  N     
13   N        94.5986    9.5778   58.1915  N     
14   C        94.6990    9.5034   59.5631  C     
15   C        95.1526    8.3398   60.2220  C     
16   O        94.7534    5.6845   59.6710  O     
17   O        97.1836    6.7560   59.3780  O     
18   C        95.2885    8.3129   61.6255  C     
19   C        94.3493   10.6259   60.3497  C     
20   C        94.5051   10.6004   61.7516  C     
21   C        95.0113    9.4527   62.3927  C     
22   C        91.3200   10.0033   52.6673  C     
23   C        90.3610    8.9697   53.3379  C     
24   C        89.9347    9.3751   54.7922  C     
25   C        89.1139    8.7410   52.4352  C     
26   C        96.0240    7.9955   52.5782  C     
27   C        96.4465    6.6795   52.3110  C     
28   C        97.3006    6.5305   51.2100  C     
29   C        97.6068    7.7188   50.5464  C     
30   S        96.7637    8.9766   51.3621  S     
31   O        95.1474    9.4915   63.7602  O     
32   C        96.3356    8.9369   64.3709  C     
33   C        96.9354    9.9854   65.1727  C     
34   N        97.8032   10.8216   64.6513  N     
35   O        96.5956   10.1810   66.3311  O     
36   C        95.8937    7.6866   65.1814  C     
37   H        91.9086   11.2775   54.3143  H     
38   H        92.9451   11.4192   52.9249  H     
39   H        97.2145    8.3070   55.3960  H     
40   H        94.3242   10.4382   57.8419  H     
41   H        95.6290    7.4551   62.0638  H     
42   H        93.9839   11.4730   59.9037  H     
43   H        94.2546   11.4198   62.3021  H     
44   H        90.7159   10.8182   52.2516  H     
45   H        91.8329    9.5159   51.8244  H     
46   H        90.9051    8.0181   53.4016  H     
47   H        90.7797    9.2666   55.4811  H     
48   H        89.1099    8.7224   55.1484  H     
49   H        89.5854   10.4289   54.8004  H     
50   H        88.5265    9.6626   52.3638  H     
51   H        88.4740    7.9563   52.8466  H     
52   H        89.4328    8.4378   51.4353  H     
53   H        96.1313    5.8772   52.8647  H     
54   H        97.6689    5.6233   50.9116  H     
55   H        98.2167    7.8288   49.7357  H     
56   H        97.0890    8.5982   63.6413  H     
57   H        98.1513   11.5547   65.1844  H     
58   H        98.1096   10.7120   63.7356  H     
59   H        95.1129    7.9516   65.8926  H     
60   H        96.7397    7.2536   65.7178  H     
61   H        95.4913    6.9247   64.5085  H     
@<TRIPOS>BOND
     1    1    2 1
     2    1    6 2
     3    1    9 1
     4    2    3 2
     5    2   26 1
     6    3    4 1
     7    4    5 1
     8    4    8 1
     9    5    6 1
    10    5    7 2
    11    6   10 1
    12    8   22 1
    13   10   12 2
    14   10   13 1
    15   11   12 1
    16   11   15 1
    17   11   16 2
    18   11   17 2
    19   13   14 1
    20   14   15 1
    21   14   19 2
    22   15   18 2
    23   18   21 1
    24   19   20 1
    25   20   21 2
    26   21   31 1
    27   22   23 1
    28   23   24 1
    29   23   25 1
    30   26   27 2
    31   26   30 1
    32   27   28 1
    33   28   29 2
    34   29   30 1
    35   31   32 1
    36   32   33 1
    37   32   36 1
    38   33   34 am
    39   33   35 2
    40    8   37 1
    41    8   38 1
    42    9   39 1
    43   13   40 1
    44   18   41 1
    45   19   42 1
    46   20   43 1
    47   22   44 1
    48   22   45 1
    49   23   46 1
    50   24   47 1
    51   24   48 1
    52   24   49 1
    53   25   50 1
    54   25   51 1
    55   25   52 1
    56   27   53 1
    57   28   54 1
    58   29   55 1
    59   32   56 1
    60   34   57 1
    61   34   58 1
    62   36   59 1
    63   36   60 1
    64   36   61 1
@<TRIPOS>PROPERTY_DATA
  Total_Score	| 9.8015
  Crash		| -1.8366
  Polar		| 3.0033
  FragIndex	| 1
  FragRMSD	| 0.614

