@<TRIPOS>MOLECULE
BindingDB_30433
 59 62 0 0 0
SMALL
NO_CHARGES


@<TRIPOS>ATOM
1    C        95.4423    8.2464   54.9457  C     
2    C        95.2488    8.4976   53.5970  C     
3    N        94.2693    9.2779   53.2801  N     
4    N        93.4385    9.8235   54.1064  N     
5    C        93.5895    9.6055   55.4306  C     
6    C        94.6286    8.8072   55.8908  C     
7    O        92.7538   10.0549   56.2065  O     
8    C        92.4245   10.6789   53.5215  C     
9    O        96.5217    7.5490   55.3034  O     
10   C        94.8305    8.5901   57.2704  C     
11   S        95.4925    6.9389   59.2822  S     
12   N        95.2027    7.3543   57.6833  N     
13   N        94.6225    9.5936   58.1781  N     
14   C        94.7264    9.5246   59.5480  C     
15   C        95.1273    8.3504   60.2181  C     
16   O        94.5553    5.7215   59.6972  O     
17   O        97.0386    6.6044   59.4446  O     
18   C        95.2653    8.3391   61.6234  C     
19   C        94.4346   10.6765   60.3077  C     
20   C        94.5806   10.6728   61.7065  C     
21   C        95.0277    9.5154   62.3738  C     
22   C        91.3849    9.9678   52.6099  C     
23   C        90.3856    8.9643   53.2790  C     
24   C        89.9098    9.4013   54.7009  C     
25   C        89.1611    8.7423   52.3429  C     
26   C        96.0520    8.0069   52.5809  C     
27   C        96.4697    6.6839   52.3632  C     
28   C        97.3048    6.4888   51.2517  C     
29   C        97.5980    7.6541   50.5413  C     
30   S        96.7748    8.9439   51.3202  S     
31   O        95.1636    9.5630   63.7386  O     
32   C        96.2527    8.8378   64.3506  C     
33   C        97.0645    9.8045   65.1125  C     
34   O        97.8802   10.6437   64.4416  O     
35   O        96.6746   10.1945   66.3578  O     
36   C        95.6522    7.7180   65.2326  C     
37   H        91.8743   11.2381   54.2872  H     
38   H        92.9365   11.4432   52.9222  H     
39   H        97.1843    8.2264   55.5632  H     
40   H        94.3847   10.4654   57.8221  H     
41   H        95.5543    7.4803   62.0904  H     
42   H        94.1084   11.5322   59.8434  H     
43   H        94.3622   11.5134   62.2447  H     
44   H        90.8005   10.7617   52.1416  H     
45   H        91.9285    9.4486   51.8181  H     
46   H        90.8992    7.9972   53.3713  H     
47   H        90.7233    9.2462   55.4244  H     
48   H        89.0487    8.7992   55.0187  H     
49   H        89.6306   10.4597   54.7012  H     
50   H        88.5683    9.6592   52.2578  H     
51   H        88.5140    7.9490   52.7284  H     
52   H        89.4898    8.4438   51.3443  H     
53   H        96.1637    5.9009   52.9475  H     
54   H        97.6677    5.5730   50.9807  H     
55   H        98.1909    7.7291   49.7107  H     
56   H        96.9257    8.3757   63.6252  H     
57   H        94.9537    8.1343   65.9658  H     
58   H        96.4378    7.1741   65.7662  H     
59   H        95.1047    7.0061   64.6150  H     
@<TRIPOS>BOND
     1    1    2 1
     2    1    6 2
     3    1    9 1
     4    2    3 2
     5    2   26 1
     6    3    4 1
     7    4    5 1
     8    4    8 1
     9    5    6 1
    10    5    7 2
    11    6   10 1
    12    8   22 1
    13   10   12 2
    14   10   13 1
    15   11   12 1
    16   11   15 1
    17   11   16 2
    18   11   17 2
    19   13   14 1
    20   14   15 1
    21   14   19 2
    22   15   18 2
    23   18   21 1
    24   19   20 1
    25   20   21 2
    26   21   31 1
    27   22   23 1
    28   23   24 1
    29   23   25 1
    30   26   27 2
    31   26   30 1
    32   27   28 1
    33   28   29 2
    34   29   30 1
    35   31   32 1
    36   32   33 1
    37   32   36 1
    38   33   34 1
    39   33   35 2
    40    8   37 1
    41    8   38 1
    42    9   39 1
    43   13   40 1
    44   18   41 1
    45   19   42 1
    46   20   43 1
    47   22   44 1
    48   22   45 1
    49   23   46 1
    50   24   47 1
    51   24   48 1
    52   24   49 1
    53   25   50 1
    54   25   51 1
    55   25   52 1
    56   27   53 1
    57   28   54 1
    58   29   55 1
    59   32   56 1
    60   36   57 1
    61   36   58 1
    62   36   59 1
@<TRIPOS>PROPERTY_DATA
  Total_Score	| 9.8678
  Crash		| -2.0101
  Polar		| 3.2825
  FragIndex	| 1
  FragRMSD	| 0.646

