@<TRIPOS>MOLECULE
BindingDB_30430
 59 62 0 0 0
SMALL
NO_CHARGES


@<TRIPOS>ATOM
1    C        95.5001    8.1984   54.8759  C     
2    C        95.2771    8.4317   53.5325  C     
3    N        94.3068    9.2277   53.2158  N     
4    N        93.5024    9.8079   54.0533  N     
5    C        93.6695    9.6026   55.3749  C     
6    C        94.7117    8.7836   55.8237  C     
7    O        92.8559   10.0865   56.1586  O     
8    C        92.5154   10.6933   53.4800  C     
9    O        96.6238    7.5660   55.2228  O     
10   C        94.9452    8.5964   57.2026  C     
11   S        95.5898    6.9638   59.2325  S     
12   N        95.2402    7.3475   57.6383  N     
13   N        94.8387    9.6384   58.0771  N     
14   C        94.9410    9.5888   59.4398  C     
15   C        95.2666    8.4046   60.1427  C     
16   O        94.6464    5.7813   59.7236  O     
17   O        97.1341    6.6052   59.3602  O     
18   C        95.3407    8.3982   61.5529  C     
19   C        94.6906   10.7713   60.1709  C     
20   C        94.7501   10.7646   61.5750  C     
21   C        95.0814    9.5821   62.2636  C     
22   C        91.4393    9.9866   52.6018  C     
23   C        90.4344    9.0229   53.3170  C     
24   C        90.0054    9.5140   54.7300  C     
25   C        89.1749    8.7916   52.4340  C     
26   C        96.0429    7.8865   52.5138  C     
27   C        96.3834    6.5351   52.3133  C     
28   C        97.1953    6.2864   51.1998  C     
29   C        97.5477    7.4263   50.4712  C     
30   S        96.8021    8.7691   51.2392  S     
31   O        95.1053    9.5870   63.6250  O     
32   C        96.3437    9.1547   64.2129  C     
33   C        95.9903    8.4698   65.4441  C     
34   N        96.4667    7.2970   65.8321  N     
35   O        95.1313    8.9781   66.1514  O     
36   O        97.3875    6.6222   65.1927  O     
37   H        91.9893   11.2702   54.2400  H     
38   H        93.0304   11.4353   52.8548  H     
39   H        96.3514    6.8357   55.8105  H     
40   H        94.6289   10.5102   57.7082  H     
41   H        95.5924    7.5540   62.0675  H     
42   H        94.4547   11.6390   59.6897  H     
43   H        94.5505   11.6236   62.1034  H     
44   H        90.8637   10.7785   52.1062  H     
45   H        91.9592    9.4297   51.8076  H     
46   H        90.9290    8.0508   53.4295  H     
47   H        90.8664    9.4508   55.4172  H     
48   H        89.1976    8.8830   55.1270  H     
49   H        89.6605   10.5524   54.6839  H     
50   H        88.6107    9.7233   52.3144  H     
51   H        88.5074    8.0505   52.8892  H     
52   H        89.4502    8.4206   51.4395  H     
53   H        96.0479    5.7863   52.9213  H     
54   H        97.5040    5.3490   50.9347  H     
55   H        98.1298    7.4595   49.6372  H     
56   H        96.9007    8.4895   63.5370  H     
57   H        96.9593   10.0311   64.4501  H     
58   H        96.1044    6.9080   66.6438  H     
59   H        98.2348    6.9010   65.6079  H     
@<TRIPOS>BOND
     1    1    2 1
     2    1    6 2
     3    1    9 1
     4    2    3 2
     5    2   26 1
     6    3    4 1
     7    4    5 1
     8    4    8 1
     9    5    6 1
    10    5    7 2
    11    6   10 1
    12    8   22 1
    13   10   12 2
    14   10   13 1
    15   11   12 1
    16   11   15 1
    17   11   16 2
    18   11   17 2
    19   13   14 1
    20   14   15 1
    21   14   19 2
    22   15   18 2
    23   18   21 1
    24   19   20 1
    25   20   21 2
    26   21   31 1
    27   22   23 1
    28   23   24 1
    29   23   25 1
    30   26   27 2
    31   26   30 1
    32   27   28 1
    33   28   29 2
    34   29   30 1
    35   31   32 1
    36   32   33 1
    37   33   34 am
    38   33   35 2
    39   34   36 1
    40    8   37 1
    41    8   38 1
    42    9   39 1
    43   13   40 1
    44   18   41 1
    45   19   42 1
    46   20   43 1
    47   22   44 1
    48   22   45 1
    49   23   46 1
    50   24   47 1
    51   24   48 1
    52   24   49 1
    53   25   50 1
    54   25   51 1
    55   25   52 1
    56   27   53 1
    57   28   54 1
    58   29   55 1
    59   32   56 1
    60   32   57 1
    61   34   58 1
    62   36   59 1
@<TRIPOS>PROPERTY_DATA
  Total_Score	| 9.0850
  Crash		| -2.2668
  Polar		| 3.6607
  FragIndex	| 1
  FragRMSD	| 0.267

