@<TRIPOS>MOLECULE
BindingDB_30410
 56 59 0 0 0
SMALL
NO_CHARGES


@<TRIPOS>ATOM
1    N        94.2708    9.3419   53.0952  N     
2    C        95.2637    8.4890   53.4533  C     
3    C        95.4633    8.1559   54.7801  C     
4    N        93.4341    9.8564   54.0209  N     
5    C        93.6115    9.5191   55.3298  C     
6    C        94.6442    8.6807   55.7294  C     
7    O        92.8056    9.9240   56.1629  O     
8    C        92.4027   10.7890   53.6100  C     
9    C        91.2271   10.1693   52.7987  C     
10   C        90.3565    9.0559   53.4345  C     
11   C        89.8576    9.3623   54.8820  C     
12   C        89.1309    8.7652   52.5154  C     
13   O        96.5432    7.4020   55.0452  O     
14   C        94.9031    8.4399   57.0896  C     
15   S        95.8518    6.9315   59.1028  S     
16   N        95.4271    7.2571   57.5039  N     
17   N        94.6691    9.4300   57.9922  N     
18   C        94.8907    9.4564   59.3232  C     
19   C        95.5004    8.3789   59.9867  C     
20   O        94.9407    5.7663   59.6861  O     
21   O        97.4063    6.6203   59.2004  O     
22   C        95.8167    8.4746   61.3543  C     
23   C        94.5469   10.6139   60.0425  C     
24   C        94.8055   10.6884   61.4185  C     
25   C        95.4454    9.6289   62.0950  C     
26   C        96.0109    8.1314   52.3288  C     
27   C        95.4656    8.8218   51.2582  C     
28   C        94.4015    9.5641   51.7567  C     
29   N        95.6808    9.8377   63.4214  N     
30   S        96.3005    8.7523   64.5467  S     
31   C        95.4644    7.1635   64.5896  C     
32   O        97.8906    8.6131   64.4613  O     
33   O        95.9741    9.4037   65.9657  O     
34   H        91.9853   11.3646   54.4391  H     
35   H        92.8583   11.5656   52.9924  H     
36   H        90.5703   10.9910   52.5124  H     
37   H        91.6635    9.7624   51.8756  H     
38   H        90.9496    8.1382   53.4728  H     
39   H        90.6229    9.1363   55.6246  H     
40   H        89.0014    8.7458   55.1400  H     
41   H        89.5643   10.4079   54.9677  H     
42   H        88.5472    9.6796   52.3927  H     
43   H        88.4834    7.9998   52.9383  H     
44   H        89.4603    8.4177   51.5290  H     
45   H        97.1894    8.0308   55.4379  H     
46   H        95.6017    6.5717   56.8395  H     
47   H        96.3235    7.6946   61.8225  H     
48   H        94.1199   11.3998   59.5528  H     
49   H        94.5307   11.5397   61.9122  H     
50   H        96.8305    7.5234   52.2973  H     
51   H        95.7899    8.8068   50.2947  H     
52   H        93.8447   10.1930   51.1939  H     
53   H        95.5227   10.7295   63.7432  H     
54   H        94.5003    7.2467   65.0855  H     
55   H        96.0745    6.4415   65.1275  H     
56   H        95.3105    6.8097   63.5657  H     
@<TRIPOS>BOND
     1    1    2 1
     2    1    4 1
     3    1   28 1
     4    2    3 1
     5    2   26 2
     6    3    6 2
     7    3   13 1
     8    4    5 1
     9    4    8 1
    10    5    6 1
    11    5    7 2
    12    6   14 1
    13    8    9 1
    14    9   10 1
    15   10   11 1
    16   10   12 1
    17   14   16 1
    18   14   17 2
    19   15   16 1
    20   15   19 1
    21   15   20 2
    22   15   21 2
    23   17   18 1
    24   18   19 2
    25   18   23 1
    26   19   22 1
    27   22   25 2
    28   23   24 2
    29   24   25 1
    30   25   29 1
    31   26   27 1
    32   27   28 2
    33   29   30 1
    34   30   31 1
    35   30   32 2
    36   30   33 2
    37    8   34 1
    38    8   35 1
    39    9   36 1
    40    9   37 1
    41   10   38 1
    42   11   39 1
    43   11   40 1
    44   11   41 1
    45   12   42 1
    46   12   43 1
    47   12   44 1
    48   13   45 1
    49   16   46 1
    50   22   47 1
    51   23   48 1
    52   24   49 1
    53   26   50 1
    54   27   51 1
    55   28   52 1
    56   29   53 1
    57   31   54 1
    58   31   55 1
    59   31   56 1
@<TRIPOS>PROPERTY_DATA
  Total_Score	| 8.1860
  Crash		| -2.7931
  Polar		| 2.8784
  FragIndex	| 1
  FragRMSD	| 1.044

