@<TRIPOS>MOLECULE
BindingDB_30429
 61 64 0 0 0
SMALL
NO_CHARGES


@<TRIPOS>ATOM
1    C        95.4113    8.0424   54.9135  C     
2    C        95.2309    8.2961   53.5689  C     
3    N        94.2821    9.0993   53.2219  N     
4    N        93.4736    9.6856   54.0562  N     
5    C        93.6167    9.4770   55.3600  C     
6    C        94.6043    8.6389   55.8536  C     
7    O        92.7669   10.0092   56.1230  O     
8    C        92.5340   10.6223   53.4694  C     
9    O        96.4972    7.3615   55.2757  O     
10   C        94.8028    8.4631   57.2423  C     
11   S        95.6008    6.9093   59.2833  S     
12   N        95.2214    7.2600   57.6832  N     
13   N        94.5738    9.4832   58.1291  N     
14   C        94.6840    9.4504   59.4939  C     
15   C        95.1561    8.3143   60.1869  C     
16   O        94.7710    5.6542   59.7933  O     
17   O        97.1720    6.7125   59.4101  O     
18   C        95.3309    8.3410   61.5814  C     
19   C        94.3349   10.6018   60.2364  C     
20   C        94.5230   10.6292   61.6314  C     
21   C        95.0548    9.5161   62.3078  C     
22   C        91.4036    9.9660   52.6233  C     
23   C        90.3909    8.9779   53.3036  C     
24   C        89.8885    9.4056   54.7208  C     
25   C        89.1766    8.7746   52.3622  C     
26   C        96.0311    7.7698   52.5639  C     
27   C        96.3482    6.4246   52.3135  C     
28   C        97.1474    6.1994   51.1793  C     
29   C        97.5188    7.3568   50.4937  C     
30   S        96.7909    8.6805   51.3135  S     
31   O        95.3054    9.6450   63.6518  O     
32   C        96.7089    9.6650   64.0039  C     
33   C        96.8672   10.1791   65.3449  C     
34   N        97.8515   11.0172   65.6489  N     
35   O        96.1199    9.7491   66.2121  O     
36   C        98.1463   11.5134   66.9540  C     
37   H        92.0767   11.2761   54.2106  H     
38   H        93.0865   11.3163   52.8188  H     
39   H        96.1764    6.6545   55.8731  H     
40   H        94.2928   10.3265   57.7560  H     
41   H        95.6918    7.5141   62.0620  H     
42   H        93.9670   11.4312   59.7611  H     
43   H        94.2884   11.4706   62.1571  H     
44   H        90.8346   10.7899   52.1756  H     
45   H        91.8912    9.4317   51.7881  H     
46   H        90.8986    8.0090   53.3981  H     
47   H        90.7082    9.2514   55.4830  H     
48   H        89.0423    8.7920   55.0574  H     
49   H        89.6167   10.4647   54.7235  H     
50   H        88.6411    9.7212   52.2211  H     
51   H        88.4694    8.0478   52.7802  H     
52   H        89.5072    8.4040   51.3857  H     
53   H        95.9896    5.6611   52.8893  H     
54   H        97.4153    5.2643   50.8726  H     
55   H        98.0904    7.4011   49.6467  H     
56   H        97.1166    8.6454   63.9824  H     
57   H        97.2820   10.2862   63.3062  H     
58   H        98.4507   11.2896   64.9350  H     
59   H        97.3393   12.1542   67.3085  H     
60   H        99.0667   12.0978   66.9157  H     
61   H        98.2883   10.6908   67.6561  H     
@<TRIPOS>BOND
     1    1    2 1
     2    1    6 2
     3    1    9 1
     4    2    3 2
     5    2   26 1
     6    3    4 1
     7    4    5 1
     8    4    8 1
     9    5    6 1
    10    5    7 2
    11    6   10 1
    12    8   22 1
    13   10   12 2
    14   10   13 1
    15   11   12 1
    16   11   15 1
    17   11   16 2
    18   11   17 2
    19   13   14 1
    20   14   15 1
    21   14   19 2
    22   15   18 2
    23   18   21 1
    24   19   20 1
    25   20   21 2
    26   21   31 1
    27   22   23 1
    28   23   24 1
    29   23   25 1
    30   26   27 2
    31   26   30 1
    32   27   28 1
    33   28   29 2
    34   29   30 1
    35   31   32 1
    36   32   33 1
    37   33   34 am
    38   33   35 2
    39   34   36 1
    40    8   37 1
    41    8   38 1
    42    9   39 1
    43   13   40 1
    44   18   41 1
    45   19   42 1
    46   20   43 1
    47   22   44 1
    48   22   45 1
    49   23   46 1
    50   24   47 1
    51   24   48 1
    52   24   49 1
    53   25   50 1
    54   25   51 1
    55   25   52 1
    56   27   53 1
    57   28   54 1
    58   29   55 1
    59   32   56 1
    60   32   57 1
    61   34   58 1
    62   36   59 1
    63   36   60 1
    64   36   61 1
@<TRIPOS>PROPERTY_DATA
  Total_Score	| 9.5343
  Crash		| -2.3085
  Polar		| 2.9570
  FragIndex	| 1
  FragRMSD	| 0.262

