@<TRIPOS>MOLECULE
BindingDB_30427
 64 67 0 0 0
SMALL
NO_CHARGES


@<TRIPOS>ATOM
1    C        95.3545    8.2499   54.9992  C     
2    C        95.1619    8.6105   53.6726  C     
3    N        94.1557    9.3829   53.4248  N     
4    N        93.3022    9.8329   54.2820  N     
5    C        93.4405    9.4888   55.5759  C     
6    C        94.5184    8.7057   55.9770  C     
7    O        92.5922    9.8384   56.3874  O     
8    C        92.3080   10.7530   53.7735  C     
9    O        96.4739    7.6019   55.3204  O     
10   C        94.7673    8.4799   57.3495  C     
11   S        95.6065    6.8941   59.3493  S     
12   N        95.2429    7.2799   57.7536  N     
13   N        94.5142    9.4655   58.2572  N     
14   C        94.6469    9.4096   59.6149  C     
15   C        95.1312    8.2684   60.2910  C     
16   O        94.7846    5.6192   59.8245  O     
17   O        97.1782    6.7291   59.5100  O     
18   C        95.2851    8.2792   61.6904  C     
19   C        94.2986   10.5521   60.3647  C     
20   C        94.4844   10.5748   61.7591  C     
21   C        94.9999    9.4478   62.4286  C     
22   C        91.2671   10.1299   52.8046  C     
23   C        90.3276    9.0185   53.3761  C     
24   C        89.7965    9.3137   54.8099  C     
25   C        89.1379    8.7847   52.4070  C     
26   C        95.9806    8.2718   52.5887  C     
27   C        96.0032    8.8983   51.3269  C     
28   C        96.9360    8.3917   50.4049  C     
29   C        97.6852    7.3183   50.8802  C     
30   S        97.1717    7.0262   52.4924  S     
31   O        95.2555    9.5732   63.7755  O     
32   C        96.4284    8.9866   64.4132  C     
33   C        97.5567    8.6809   63.5070  C     
34   N        98.0001    9.5630   62.6356  N     
35   O        98.1126    7.5903   63.5026  O     
36   C        96.9067   10.0346   65.4633  C     
37   C        95.9139    7.7346   65.1957  C     
38   H        91.7564   11.2477   54.5745  H     
39   H        92.8289   11.5555   53.2400  H     
40   H        96.1885    6.8298   55.8533  H     
41   H        94.1970   10.3085   57.9009  H     
42   H        95.6595    7.4569   62.1703  H     
43   H        93.9360   11.3870   59.8974  H     
44   H        94.2638   11.4252   62.2841  H     
45   H        90.6458   10.9504   52.4369  H     
46   H        91.8049    9.7244   51.9420  H     
47   H        90.8979    8.0858   53.4102  H     
48   H        88.8769    8.7666   55.0214  H     
49   H        89.6005   10.3777   54.9431  H     
50   H        90.5282    9.0024   55.5513  H     
51   H        88.4888    9.6628   52.3827  H     
52   H        88.5448    7.9235   52.7198  H     
53   H        89.5018    8.5885   51.3975  H     
54   H        95.3930    9.6817   51.0864  H     
55   H        97.0504    8.7728   49.4637  H     
56   H        98.4055    6.8033   50.3716  H     
57   H        98.7395    9.3406   62.0494  H     
58   H        97.5920   10.4421   62.5835  H     
59   H        97.2943   10.9311   64.9762  H     
60   H        97.6977    9.6225   66.0957  H     
61   H        96.0777   10.3392   66.1049  H     
62   H        95.0720    7.9986   65.8398  H     
63   H        96.7042    7.3115   65.8203  H     
64   H        95.5689    6.9567   64.5149  H     
@<TRIPOS>BOND
     1    1    2 1
     2    1    6 2
     3    1    9 1
     4    2    3 2
     5    2   26 1
     6    3    4 1
     7    4    5 1
     8    4    8 1
     9    5    6 1
    10    5    7 2
    11    6   10 1
    12    8   22 1
    13   10   12 2
    14   10   13 1
    15   11   12 1
    16   11   15 1
    17   11   16 2
    18   11   17 2
    19   13   14 1
    20   14   15 1
    21   14   19 2
    22   15   18 2
    23   18   21 1
    24   19   20 1
    25   20   21 2
    26   21   31 1
    27   22   23 1
    28   23   24 1
    29   23   25 1
    30   26   27 2
    31   26   30 1
    32   27   28 1
    33   28   29 2
    34   29   30 1
    35   31   32 1
    36   32   33 1
    37   32   36 1
    38   32   37 1
    39   33   34 am
    40   33   35 2
    41    8   38 1
    42    8   39 1
    43    9   40 1
    44   13   41 1
    45   18   42 1
    46   19   43 1
    47   20   44 1
    48   22   45 1
    49   22   46 1
    50   23   47 1
    51   24   48 1
    52   24   49 1
    53   24   50 1
    54   25   51 1
    55   25   52 1
    56   25   53 1
    57   27   54 1
    58   28   55 1
    59   29   56 1
    60   34   57 1
    61   34   58 1
    62   36   59 1
    63   36   60 1
    64   36   61 1
    65   37   62 1
    66   37   63 1
    67   37   64 1
@<TRIPOS>PROPERTY_DATA
  Total_Score	| 9.3514
  Crash		| -2.1676
  Polar		| 2.2639
  FragIndex	| 1
  FragRMSD	| 0.221

