@<TRIPOS>MOLECULE
BindingDB_30424
 51 54 0 0 0
SMALL
NO_CHARGES


@<TRIPOS>ATOM
1    C        95.3980    8.0566   55.0320  C     
2    C        95.2218    8.3451   53.6906  C     
3    N        94.2887    9.1803   53.3753  N     
4    N        93.4748    9.7580   54.2062  N     
5    C        93.6045    9.5002   55.5204  C     
6    C        94.6258    8.6616   55.9790  C     
7    O        92.7752    9.9628   56.2989  O     
8    C        92.5258   10.6845   53.6351  C     
9    O        96.4679    7.3414   55.3799  O     
10   C        94.8674    8.5003   57.3636  C     
11   S        95.6718    6.9579   59.4193  S     
12   N        95.2940    7.2977   57.8138  N     
13   N        94.6577    9.5322   58.2369  N     
14   C        94.7715    9.5076   59.6019  C     
15   C        95.2513    8.3816   60.3102  C     
16   O        94.7981    5.7412   59.9525  O     
17   O        97.2382    6.7204   59.5584  O     
18   C        95.3908    8.4234   61.7090  C     
19   C        94.3943   10.6560   60.3270  C     
20   C        94.5130   10.6918   61.7284  C     
21   C        95.0296    9.5806   62.4220  C     
22   C        91.4497   10.0527   52.7052  C     
23   C        90.4381    9.0492   53.3455  C     
24   C        89.9538    9.4517   54.7697  C     
25   C        89.2171    8.8563   52.4040  C     
26   C        95.9938    7.8181   52.6610  C     
27   C        96.2684    6.4672   52.3777  C     
28   C        97.1069    6.2468   51.2775  C     
29   C        97.5462    7.4100   50.6438  C     
30   S        96.8466    8.7414   51.4746  S     
31   O        95.1670    9.6411   63.7702  O     
32   H        92.0023   11.2530   54.3983  H     
33   H        93.0857   11.4240   53.0482  H     
34   H        96.1255    6.5902   55.9000  H     
35   H        94.3877   10.3806   57.8581  H     
36   H        95.7516    7.6108   62.2109  H     
37   H        94.0262   11.4785   59.8384  H     
38   H        94.2277   11.5279   62.2399  H     
39   H        90.8878   10.8794   52.2535  H     
40   H        91.9720    9.5447   51.8806  H     
41   H        90.9398    8.0786   53.4204  H     
42   H        90.7654    9.3098   55.4928  H     
43   H        89.1139    8.8224   55.0894  H     
44   H        89.6443   10.5024   54.7927  H     
45   H        88.6529    9.7921   52.3203  H     
46   H        88.5448    8.0828   52.7918  H     
47   H        89.5435    8.5485   51.4051  H     
48   H        95.8687    5.7007   52.9230  H     
49   H        97.3657    5.3147   50.9563  H     
50   H        98.1556    7.4626   49.8299  H     
51   H        96.1308    9.5391   63.9423  H     
@<TRIPOS>BOND
     1    1    2 1
     2    1    6 2
     3    1    9 1
     4    2    3 2
     5    2   26 1
     6    3    4 1
     7    4    5 1
     8    4    8 1
     9    5    6 1
    10    5    7 2
    11    6   10 1
    12    8   22 1
    13   10   12 2
    14   10   13 1
    15   11   12 1
    16   11   15 1
    17   11   16 2
    18   11   17 2
    19   13   14 1
    20   14   15 1
    21   14   19 2
    22   15   18 2
    23   18   21 1
    24   19   20 1
    25   20   21 2
    26   21   31 1
    27   22   23 1
    28   23   24 1
    29   23   25 1
    30   26   27 2
    31   26   30 1
    32   27   28 1
    33   28   29 2
    34   29   30 1
    35    8   32 1
    36    8   33 1
    37    9   34 1
    38   13   35 1
    39   18   36 1
    40   19   37 1
    41   20   38 1
    42   22   39 1
    43   22   40 1
    44   23   41 1
    45   24   42 1
    46   24   43 1
    47   24   44 1
    48   25   45 1
    49   25   46 1
    50   25   47 1
    51   27   48 1
    52   28   49 1
    53   29   50 1
    54   31   51 1
@<TRIPOS>PROPERTY_DATA
  Total_Score	| 7.9097
  Crash		| -1.6771
  Polar		| 2.2574
  FragIndex	| 1
  FragRMSD	| 0.178

