@<TRIPOS>MOLECULE
BindingDB_30545
 57 60 0 0 0
SMALL
NO_CHARGES


@<TRIPOS>ATOM
1    C        96.5706    9.6913   64.2580  C     
2    O        95.2157    9.6901   63.7791  O     
3    C        95.0907    9.5955   62.4208  C     
4    C        94.4844   10.6586   61.7258  C     
5    C        94.3073   10.5946   60.3325  C     
6    C        94.7460    9.4646   59.6131  C     
7    N        94.5811    9.4459   58.2588  N     
8    C        94.9063    8.4858   57.3515  C     
9    N        95.4919    7.3387   57.7807  N     
10   S        95.8616    7.0226   59.3901  S     
11   O        95.0971    5.7268   59.9091  O     
12   O        97.4399    6.9122   59.5748  O     
13   C        95.3314    8.3885   60.3130  C     
14   C        95.4921    8.4457   61.7104  C     
15   C        94.6209    8.6908   55.9761  C     
16   C        95.4153    8.1700   54.9857  C     
17   O        96.5224    7.5107   55.3152  O     
18   C        95.1691    8.4485   53.6514  C     
19   N        94.1992    9.2629   53.3851  N     
20   N        93.4118    9.8089   54.2591  N     
21   C        92.4505   10.7580   53.7404  C     
22   C        91.3463   10.1729   52.8142  C     
23   C        90.3848    9.0782   53.3902  C     
24   C        89.8743    9.3804   54.8300  C     
25   C        89.1720    8.8798   52.4390  C     
26   C        93.5718    9.5162   55.5732  C     
27   O        92.7080    9.9246   56.3585  O     
28   C        95.9460    7.9828   52.5870  C     
29   C        96.3439    8.8615   51.5461  C     
30   C        97.1651    8.4173   50.4920  C     
31   C        97.5947    7.0836   50.4491  C     
32   C        97.1829    6.1853   51.4464  C     
33   C        96.3633    6.6289   52.5039  C     
34   H        97.0249    8.7026   64.1634  H     
35   H        96.5484    9.9580   65.3160  H     
36   H        97.1866   10.4293   63.7365  H     
37   H        94.1474   11.4751   62.2373  H     
38   H        93.8572   11.3708   59.8444  H     
39   H        95.7156    6.6604   57.1269  H     
40   H        95.8940    7.6545   62.2172  H     
41   H        97.2255    8.1858   55.3928  H     
42   H        91.9466   11.3040   54.5347  H     
43   H        93.0029   11.5230   53.1839  H     
44   H        91.8401    9.7648   51.9261  H     
45   H        90.7427   11.0245   52.4834  H     
46   H        90.9317    8.1372   53.4226  H     
47   H        90.7066    9.2753   55.5570  H     
48   H        89.4692   10.4005   54.8898  H     
49   H        89.0843    8.6739   55.1204  H     
50   H        89.5182    8.6355   51.4334  H     
51   H        88.5687    9.7927   52.3938  H     
52   H        88.5346    8.0628   52.7837  H     
53   H        96.0568    9.8431   51.5635  H     
54   H        97.4423    9.0716   49.7583  H     
55   H        98.1913    6.7625   49.6869  H     
56   H        97.4604    5.2037   51.3951  H     
57   H        96.0610    5.9452   53.2019  H     
@<TRIPOS>BOND
     1    1    2 1
     2    2    3 1
     3    3    4 ar
     4    4    5 ar
     5    5    6 ar
     6    6    7 1
     7    7    8 2
     8    8    9 1
     9    9   10 1
    10   10   11 2
    11   10   12 2
    12   10   13 1
    13    6   13 ar
    14   13   14 ar
    15    3   14 ar
    16    8   15 1
    17   15   16 2
    18   16   17 1
    19   16   18 1
    20   18   19 2
    21   19   20 1
    22   20   21 1
    23   21   22 1
    24   22   23 1
    25   23   24 1
    26   23   25 1
    27   20   26 1
    28   15   26 1
    29   26   27 2
    30   18   28 1
    31   28   29 ar
    32   29   30 ar
    33   30   31 ar
    34   31   32 ar
    35   32   33 ar
    36   28   33 ar
    37    1   34 1
    38    1   35 1
    39    1   36 1
    40    4   37 1
    41    5   38 1
    42    9   39 1
    43   14   40 1
    44   17   41 1
    45   21   42 1
    46   21   43 1
    47   22   44 1
    48   22   45 1
    49   23   46 1
    50   24   47 1
    51   24   48 1
    52   24   49 1
    53   25   50 1
    54   25   51 1
    55   25   52 1
    56   29   53 1
    57   30   54 1
    58   31   55 1
    59   32   56 1
    60   33   57 1
@<TRIPOS>PROPERTY_DATA
  Total_Score	| 8.5170
  Crash		| -1.9815
  Polar		| 2.2590
  FragIndex	| 1
  FragRMSD	| 0.166

