@<TRIPOS>MOLECULE
BindingDB_50295746
 50 53 0 0 0
SMALL
NO_CHARGES


@<TRIPOS>ATOM
1    C       107.1867   22.7288  138.9252  C     
2    C       107.2126   23.9948  139.5612  C     
3    N       106.1189   24.5862  140.1000  N     
4    C       105.9018   22.0912  138.9368  C     
5    C       104.7637   22.7119  139.4963  C     
6    C       104.9224   23.9696  140.0653  C     
7    C       103.7218   24.3659  140.5389  C     
8    C       102.8524   23.3942  140.2711  C     
9    N       103.4520   22.3833  139.6478  N     
10   S       102.6600   20.9501  139.2206  S     
11   C       102.2396   19.8699  140.5437  C     
12   O       101.4717   21.2551  138.2102  O     
13   O       103.5874   20.1909  138.1771  O     
14   C       103.1232   18.7747  140.7174  C     
15   C       102.9449   17.8422  141.7474  C     
16   C       101.8889   18.0016  142.6485  C     
17   C       101.0142   19.0893  142.5091  C     
18   C       101.1456   20.0433  141.4594  C     
19   N       100.2114   21.0485  141.4069  N     
20   O        99.3432   21.1890  142.2275  O     
21   O       100.1131   21.9194  140.4569  O     
22   C       108.3164   22.0827  138.3377  C     
23   O       108.0013   21.3530  137.3992  O     
24   N       109.6556   22.1008  138.5938  N     
25   C       110.4723   20.9142  138.2898  C     
26   C       111.1925   20.4025  139.5670  C     
27   N       111.9996   21.4904  140.1973  N     
28   C       111.1766   22.7103  140.4578  C     
29   C       110.4819   23.1735  139.1528  C     
30   C       112.7534   21.0384  141.4005  C     
31   H       108.0446   24.5233  139.6314  H     
32   H       105.7879   21.1543  138.5515  H     
33   H       103.5257   25.2219  141.0038  H     
34   H       101.8959   23.4408  140.5213  H     
35   H       103.9251   18.6368  140.0984  H     
36   H       103.5890   17.0537  141.8492  H     
37   H       101.7556   17.3261  143.4052  H     
38   H       100.2579   19.1617  143.1930  H     
39   H       109.9099   20.0630  137.8949  H     
40   H       111.2200   21.1699  137.5324  H     
41   H       110.4487   20.0177  140.2728  H     
42   H       111.8490   19.5767  139.2819  H     
43   H       112.7038   21.7593  139.5048  H     
44   H       110.4177   22.5137  141.2222  H     
45   H       111.8204   23.5192  140.8139  H     
46   H       111.2641   23.4032  138.4200  H     
47   H       110.0361   24.1410  139.3447  H     
48   H       112.0859   20.8286  142.2373  H     
49   H       113.4599   21.8109  141.7030  H     
50   H       113.3276   20.1373  141.1814  H     
@<TRIPOS>BOND
     1    1    2 2
     2    1    4 1
     3    1   22 1
     4    2    3 1
     5    3    6 2
     6    4    5 2
     7    5    6 1
     8    5    9 1
     9    6    7 1
    10    7    8 2
    11    8    9 1
    12    9   10 1
    13   10   11 1
    14   10   12 2
    15   10   13 2
    16   11   14 2
    17   11   18 1
    18   14   15 1
    19   15   16 2
    20   16   17 1
    21   17   18 2
    22   18   19 am
    23   19   20 2
    24   19   21 1
    25   22   23 2
    26   22   24 am
    27   24   25 1
    28   24   29 1
    29   25   26 1
    30   26   27 1
    31   27   28 1
    32   27   30 1
    33   28   29 1
    34    2   31 1
    35    4   32 1
    36    7   33 1
    37    8   34 1
    38   14   35 1
    39   15   36 1
    40   16   37 1
    41   17   38 1
    42   25   39 1
    43   25   40 1
    44   26   41 1
    45   26   42 1
    46   27   43 1
    47   28   44 1
    48   28   45 1
    49   29   46 1
    50   29   47 1
    51   30   48 1
    52   30   49 1
    53   30   50 1
@<TRIPOS>PROPERTY_DATA
  Total_Score	| 8.8033
  Crash		| -1.1707
  Polar		| 2.5299
  FragIndex	| 1
  FragRMSD	| 0.853

