@<TRIPOS>MOLECULE
BindingDB_50295745
 34 36 0 0 0
SMALL
NO_CHARGES


@<TRIPOS>ATOM
1    C       107.1811   22.6496  138.7752  C     
2    C       107.3001   23.9421  139.3527  C     
3    N       106.2437   24.5592  139.9365  N     
4    C       105.9006   22.0315  138.8451  C     
5    C       104.8150   22.6954  139.4511  C     
6    C       105.0310   23.9600  139.9852  C     
7    C       103.8561   24.3888  140.5059  C     
8    C       102.9516   23.4351  140.2872  C     
9    N       103.5022   22.4012  139.6582  N     
10   S       102.6167   21.0229  139.2268  S     
11   C       102.2008   19.9015  140.5213  C     
12   O       101.4184   21.4177  138.2621  O     
13   O       103.4530   20.2554  138.1150  O     
14   C       103.0773   18.7981  140.6627  C     
15   C       102.9036   17.8469  141.6793  C     
16   C       101.8751   18.0039  142.6069  C     
17   C       101.0090   19.1034  142.5032  C     
18   C       101.1172   20.0628  141.4556  C     
19   N       100.1644   21.0545  141.4205  N     
20   O        99.3219   21.1928  142.2690  O     
21   O        99.9923   21.8798  140.4368  O     
22   C       108.2803   22.0237  138.1654  C     
23   O       109.3717   22.5819  138.0913  O     
24   N       108.2425   20.8254  137.6235  N     
25   H       108.1911   24.4395  139.3512  H     
26   H       105.7680   21.1013  138.4553  H     
27   H       103.7025   25.2546  140.9642  H     
28   H       102.0107   23.5216  140.5668  H     
29   H       103.8695   18.6657  140.0233  H     
30   H       103.5369   17.0452  141.7461  H     
31   H       101.7480   17.3176  143.3557  H     
32   H       100.2647   19.1760  143.2064  H     
33   H       109.0408   20.4533  137.2121  H     
34   H       107.4251   20.3009  137.6330  H     
@<TRIPOS>BOND
     1    1    2 2
     2    1    4 1
     3    1   22 1
     4    2    3 1
     5    3    6 2
     6    4    5 2
     7    5    6 1
     8    5    9 1
     9    6    7 1
    10    7    8 2
    11    8    9 1
    12    9   10 1
    13   10   11 1
    14   10   12 2
    15   10   13 2
    16   11   14 2
    17   11   18 1
    18   14   15 1
    19   15   16 2
    20   16   17 1
    21   17   18 2
    22   18   19 am
    23   19   20 2
    24   19   21 1
    25   22   23 2
    26   22   24 am
    27    2   25 1
    28    4   26 1
    29    7   27 1
    30    8   28 1
    31   14   29 1
    32   15   30 1
    33   16   31 1
    34   17   32 1
    35   24   33 1
    36   24   34 1
@<TRIPOS>PROPERTY_DATA
  Total_Score	| 7.3918
  Crash		| -0.8207
  Polar		| 2.6033
  FragIndex	| 1
  FragRMSD	| 0.604

