@<TRIPOS>MOLECULE
BindingDB_50295737
 30 32 0 0 0
SMALL
NO_CHARGES


@<TRIPOS>ATOM
1    C       107.0446   22.9321  138.6821  C     
2    C       107.1568   24.1358  139.4081  C     
3    N       106.0748   24.6371  140.0665  N     
4    C       105.8088   22.2557  138.6487  C     
5    C       104.7073   22.8075  139.3337  C     
6    C       104.8806   23.9964  140.0356  C     
7    C       103.6849   24.3045  140.6013  C     
8    C       102.8285   23.3367  140.2771  C     
9    N       103.4158   22.4310  139.5020  N     
10   S       102.6563   20.9885  139.0554  S     
11   C       102.2791   20.0083  140.4442  C     
12   O       101.3735   21.2908  138.1725  O     
13   O       103.5762   20.0973  138.1114  O     
14   C       101.0989   20.2541  141.1838  C     
15   C       100.8050   19.4591  142.3052  C     
16   C       101.6851   18.4343  142.7214  C     
17   C       102.8646   18.1882  141.9832  C     
18   C       103.1611   18.9745  140.8503  C     
19   N       103.7136   17.2014  142.3613  N     
20   H       107.8546   22.5584  138.1858  H     
21   H       108.0458   24.6362  139.4466  H     
22   H       105.7203   21.3883  138.1381  H     
23   H       103.4986   25.0835  141.1777  H     
24   H       101.8814   23.3018  140.5798  H     
25   H       100.4683   21.0225  140.9237  H     
26   H        99.9628   19.6455  142.8525  H     
27   H       101.4554   17.8731  143.5484  H     
28   H       104.0332   18.8110  140.3260  H     
29   H       104.5183   17.0395  141.8426  H     
30   H       103.5114   16.6457  143.1282  H     
@<TRIPOS>BOND
     1    1    2 2
     2    1    4 1
     3    2    3 1
     4    3    6 2
     5    4    5 2
     6    5    6 1
     7    5    9 1
     8    6    7 1
     9    7    8 2
    10    8    9 1
    11    9   10 1
    12   10   11 1
    13   10   12 2
    14   10   13 2
    15   11   14 2
    16   11   18 1
    17   14   15 1
    18   15   16 2
    19   16   17 1
    20   17   18 2
    21   17   19 1
    22    1   20 1
    23    2   21 1
    24    4   22 1
    25    7   23 1
    26    8   24 1
    27   14   25 1
    28   15   26 1
    29   16   27 1
    30   18   28 1
    31   19   29 1
    32   19   30 1
@<TRIPOS>PROPERTY_DATA
  Total_Score	| 7.0606
  Crash		| -0.4627
  Polar		| 2.1408
  FragIndex	| 1
  FragRMSD	| 0.265

