@<TRIPOS>MOLECULE
BindingDB_50351649
 45 47 0 0 0
SMALL
NO_CHARGES


@<TRIPOS>ATOM
1    O       103.7512   20.1946  138.2755  O     
2    S       102.7498   20.9038  139.2949  S     
3    O       101.5685   21.1956  138.2721  O     
4    C       107.2565   22.6458  139.4357  C     
5    C       107.2669   24.0007  139.8643  C     
6    N       106.1231   24.6428  140.2074  N     
7    C       104.9303   24.0134  140.1443  C     
8    C       104.8080   22.6946  139.7001  C     
9    C       105.9905   22.0025  139.3475  C     
10   N       103.4958   22.3566  139.7380  N     
11   C       102.8020   23.4121  140.2170  C     
12   C       103.6659   24.4646  140.4830  C     
13   C       108.4683   21.9754  139.1363  C     
14   O       109.6546   22.5115  139.5556  O     
15   C       111.0265   22.1096  139.4079  C     
16   O       108.4985   20.7942  138.4629  O     
17   C       111.5016   22.3561  137.9432  C     
18   C       111.8034   23.0176  140.3948  C     
19   C       111.2012   20.6158  139.8212  C     
20   C       102.3342   19.7904  140.5930  C     
21   C       103.2553   18.7245  140.7644  C     
22   C       103.0609   17.7395  141.7426  C     
23   C       101.9539   17.8103  142.5969  C     
24   C       101.0530   18.8790  142.4694  C     
25   C       101.2012   19.8890  141.4746  C     
26   N       100.2514   20.8763  141.4419  N     
27   O        99.3395   20.9495  142.2272  O     
28   O       100.2098   21.8249  140.5430  O     
29   H       108.1430   24.5229  139.9129  H     
30   H       105.9296   21.0249  139.0501  H     
31   H       101.7882   23.4534  140.3769  H     
32   H       103.4183   25.3810  140.8549  H     
33   H       110.9884   21.6873  137.2492  H     
34   H       112.5780   22.1845  137.8546  H     
35   H       111.2873   23.3881  137.6536  H     
36   H       111.6671   24.0686  140.1228  H     
37   H       112.8709   22.7893  140.3849  H     
38   H       111.4241   22.8813  141.4139  H     
39   H       110.9204   20.4604  140.8619  H     
40   H       112.2356   20.3015  139.6882  H     
41   H       110.5709   19.9654  139.2113  H     
42   H       104.0932   18.6523  140.1768  H     
43   H       103.7328   16.9717  141.8394  H     
44   H       101.8084   17.0938  143.3089  H     
45   H       100.2678   18.8989  143.1227  H     
@<TRIPOS>BOND
     1    1    2 2
     2    2    3 2
     3    2   10 1
     4    2   20 1
     5    4    5 1
     6    4    9 2
     7    4   13 1
     8    5    6 2
     9    6    7 1
    10    7    8 2
    11    7   12 1
    12    8    9 1
    13    8   10 1
    14   10   11 1
    15   11   12 2
    16   13   14 1
    17   13   16 2
    18   14   15 1
    19   15   17 1
    20   15   18 1
    21   15   19 1
    22   20   21 2
    23   20   25 1
    24   21   22 1
    25   22   23 2
    26   23   24 1
    27   24   25 2
    28   25   26 am
    29   26   27 2
    30   26   28 1
    31    5   29 1
    32    9   30 1
    33   11   31 1
    34   12   32 1
    35   17   33 1
    36   17   34 1
    37   17   35 1
    38   18   36 1
    39   18   37 1
    40   18   38 1
    41   19   39 1
    42   19   40 1
    43   19   41 1
    44   21   42 1
    45   22   43 1
    46   23   44 1
    47   24   45 1
@<TRIPOS>PROPERTY_DATA
  Total_Score	| 7.4698
  Crash		| -0.9879
  Polar		| 2.4400
  FragIndex	| 1
  FragRMSD	| 0.817

