@<TRIPOS>MOLECULE
BindingDB_50295739
 29 31 0 0 0
SMALL
NO_CHARGES


@<TRIPOS>ATOM
1    C       106.8572   22.7419  138.5390  C     
2    C       107.1673   23.9730  139.1571  C     
3    N       106.2172   24.6028  139.9016  N     
4    N       105.6095   22.2130  138.6967  N     
5    C       104.6626   22.8407  139.4400  C     
6    C       104.9804   24.0537  140.0508  C     
7    C       103.8887   24.4365  140.7522  C     
8    C       102.9555   23.4946  140.5809  C     
9    N       103.4004   22.5292  139.7806  N     
10   S       102.5515   21.1455  139.3059  S     
11   C       102.2554   19.9654  140.5652  C     
12   O       101.1814   21.5333  138.5930  O     
13   O       103.3630   20.4955  138.1037  O     
14   C       101.2063   20.1141  141.4983  C     
15   C       100.9919   19.1412  142.4911  C     
16   C       101.8317   18.0180  142.5734  C     
17   C       102.9118   17.8523  141.6707  C     
18   C       103.0928   18.8393  140.6688  C     
19   N       103.7494   16.7768  141.7510  N     
20   O       104.6921   16.6329  141.0177  O     
21   O       103.6092   15.8238  142.6293  O     
22   H       107.5625   22.2319  138.0009  H     
23   H       108.0973   24.3857  139.0571  H     
24   H       103.8241   25.2401  141.3306  H     
25   H       102.0614   23.5125  141.0146  H     
26   H       100.5915   20.9238  141.4589  H     
27   H       100.2161   19.2465  143.1528  H     
28   H       101.6545   17.3288  143.3110  H     
29   H       103.8452   18.7360  139.9912  H     
@<TRIPOS>BOND
     1    1    2 2
     2    1    4 1
     3    2    3 1
     4    3    6 2
     5    4    5 2
     6    5    6 1
     7    5    9 1
     8    6    7 1
     9    7    8 2
    10    8    9 1
    11    9   10 1
    12   10   11 1
    13   10   12 2
    14   10   13 2
    15   11   14 2
    16   11   18 1
    17   14   15 1
    18   15   16 2
    19   16   17 1
    20   17   18 2
    21   17   19 am
    22   19   20 2
    23   19   21 1
    24    1   22 1
    25    2   23 1
    26    7   24 1
    27    8   25 1
    28   14   26 1
    29   15   27 1
    30   16   28 1
    31   18   29 1
@<TRIPOS>PROPERTY_DATA
  Total_Score	| 5.4566
  Crash		| -0.6060
  Polar		| 1.1982
  FragIndex	| 1
  FragRMSD	| 0.261

