@<TRIPOS>MOLECULE
BindingDB_50295754
 54 59 0 0 0
SMALL
NO_CHARGES


@<TRIPOS>ATOM
1    C       107.3074   22.7776  139.3127  C     
2    C       107.2039   24.0749  139.8976  C     
3    N       106.0217   24.6221  140.2706  N     
4    C       106.0635   22.0809  139.1657  C     
5    C       104.8431   22.6528  139.5837  C     
6    C       104.8701   23.9356  140.1186  C     
7    C       103.6068   24.2575  140.4771  C     
8    C       102.8258   23.2170  140.1879  C     
9    N       103.5431   22.2412  139.6389  N     
10   S       102.8730   20.7463  139.2137  S     
11   C       102.3803   19.7563  140.5307  C     
12   O       101.6176   21.0309  138.2811  O     
13   O       103.8363   19.9711  138.2136  O     
14   C       103.0634   18.6301  140.8661  C     
15   C       102.6478   17.8439  141.9235  C     
16   C       101.5629   18.1971  142.6530  C     
17   C       101.2754   20.0873  141.2854  C     
18   C       100.8845   19.3325  142.3091  C     
19   N        99.8520   19.8923  142.7968  N     
20   O        99.5507   20.9679  142.1572  O     
21   N       100.4454   21.0518  141.2342  N     
22   N       108.5178   22.2249  138.9332  N     
23   C       109.8296   22.8433  139.1231  C     
24   C       110.7570   21.8784  139.9410  C     
25   N       110.7127   20.4962  139.4671  N     
26   C       109.9870   20.2731  138.2261  C     
27   C       108.5657   20.8927  138.3514  C     
28   C       111.2412   19.4671  140.1610  C     
29   O       111.1368   18.3159  139.7521  O     
30   C       111.8894   19.5518  141.3919  C     
31   C       111.4595   18.7631  142.4884  C     
32   C       112.0961   18.8681  143.7389  C     
33   C       113.2087   19.7203  143.8669  C     
34   N       113.6256   20.4421  142.7969  N     
35   C       113.0056   20.3922  141.5837  C     
36   H       108.0254   24.6359  140.1137  H     
37   H       106.0446   21.1419  138.7656  H     
38   H       103.3054   25.1049  140.8990  H     
39   H       101.8481   23.1852  140.3890  H     
40   H       103.8729   18.3619  140.3566  H     
41   H       103.1480   17.0165  142.1520  H     
42   H       101.2601   17.6427  143.4188  H     
43   H       110.2761   23.0093  138.1363  H     
44   H       109.8205   23.8384  139.5740  H     
45   H       111.7920   22.2401  139.9089  H     
46   H       110.4276   21.9203  140.9855  H     
47   H       110.5288   20.7661  137.4153  H     
48   H       109.8872   19.2269  137.9324  H     
49   H       107.9884   20.2224  138.9939  H     
50   H       108.1029   20.9131  137.3645  H     
51   H       110.6618   18.1245  142.3929  H     
52   H       111.7535   18.3377  144.5450  H     
53   H       113.6941   19.8016  144.7643  H     
54   H       113.3756   20.9638  140.8205  H     
@<TRIPOS>BOND
     1    1    2 2
     2    1    4 1
     3    1   22 1
     4    2    3 1
     5    3    6 2
     6    4    5 2
     7    5    6 1
     8    5    9 1
     9    6    7 1
    10    7    8 2
    11    8    9 1
    12    9   10 1
    13   10   11 1
    14   10   12 2
    15   10   13 2
    16   11   14 2
    17   11   17 1
    18   14   15 1
    19   15   16 2
    20   16   18 1
    21   17   18 1
    22   17   21 2
    23   18   19 2
    24   19   20 1
    25   20   21 1
    26   22   23 1
    27   22   27 1
    28   23   24 1
    29   24   25 1
    30   25   26 1
    31   25   28 1
    32   26   27 1
    33   28   29 2
    34   28   30 1
    35   30   31 2
    36   30   35 1
    37   31   32 1
    38   32   33 2
    39   33   34 1
    40   34   35 2
    41    2   36 1
    42    4   37 1
    43    7   38 1
    44    8   39 1
    45   14   40 1
    46   15   41 1
    47   16   42 1
    48   23   43 1
    49   23   44 1
    50   24   45 1
    51   24   46 1
    52   26   47 1
    53   26   48 1
    54   27   49 1
    55   27   50 1
    56   31   51 1
    57   32   52 1
    58   33   53 1
    59   35   54 1
@<TRIPOS>PROPERTY_DATA
  Total_Score	| 8.2035
  Crash		| -1.3089
  Polar		| 1.2406
  FragIndex	| 1
  FragRMSD	| 0.309

