@<TRIPOS>MOLECULE
BindingDB_50295735
 30 32 0 0 0
SMALL
NO_CHARGES


@<TRIPOS>ATOM
1    C       107.0924   22.8548  138.6760  C     
2    C       107.2106   24.0906  139.3453  C     
3    N       106.1538   24.6280  140.0137  N     
4    C       105.8571   22.1664  138.6913  C     
5    C       104.7729   22.7236  139.4091  C     
6    C       104.9664   23.9596  140.0407  C     
7    C       103.8011   24.2892  140.6536  C     
8    C       102.9316   23.3020  140.4202  C     
9    N       103.4849   22.3515  139.6737  N     
10   S       102.6437   20.9412  139.2366  S     
11   C       102.2073   19.8618  140.5702  C     
12   O       101.4676   21.3002  138.2359  O     
13   O       103.5494   20.0927  138.2311  O     
14   C       103.0775   18.7547  140.7632  C     
15   C       102.8713   17.8173  141.7914  C     
16   C       101.7936   17.9839  142.6679  C     
17   C       100.9519   19.0931  142.5224  C     
18   C       101.1025   20.0567  141.4797  C     
19   N       100.1818   21.0720  141.4248  N     
20   O        99.3426   21.2430  142.2880  O     
21   O       100.0717   21.8908  140.4223  O     
22   H       107.8977   22.4529  138.1893  H     
23   H       108.0923   24.5976  139.3429  H     
24   H       105.7745   21.2842  138.1896  H     
25   H       103.6430   25.0868  141.2244  H     
26   H       102.0197   23.2991  140.7919  H     
27   H       103.8877   18.5917  140.1602  H     
28   H       103.4999   17.0184  141.9073  H     
29   H       101.6333   17.3027  143.4120  H     
30   H       100.1796   19.1696  143.1888  H     
@<TRIPOS>BOND
     1    1    2 2
     2    1    4 1
     3    2    3 1
     4    3    6 2
     5    4    5 2
     6    5    6 1
     7    5    9 1
     8    6    7 1
     9    7    8 2
    10    8    9 1
    11    9   10 1
    12   10   11 1
    13   10   12 2
    14   10   13 2
    15   11   14 2
    16   11   18 1
    17   14   15 1
    18   15   16 2
    19   16   17 1
    20   17   18 2
    21   18   19 am
    22   19   20 2
    23   19   21 1
    24    1   22 1
    25    2   23 1
    26    4   24 1
    27    7   25 1
    28    8   26 1
    29   14   27 1
    30   15   28 1
    31   16   29 1
    32   17   30 1
@<TRIPOS>PROPERTY_DATA
  Total_Score	| 7.0723
  Crash		| -0.7606
  Polar		| 2.5554
  FragIndex	| 1
  FragRMSD	| 0.658

