@<TRIPOS>MOLECULE
BindingDB_50295744
 32 34 0 0 0
SMALL
NO_CHARGES


@<TRIPOS>ATOM
1    C       107.1641   22.6766  138.8176  C     
2    C       107.3092   23.9601  139.4071  C     
3    N       106.2541   24.5907  139.9866  N     
4    C       105.8828   22.0686  138.8715  C     
5    C       104.8011   22.7463  139.4703  C     
6    C       105.0327   24.0071  140.0166  C     
7    C       103.8590   24.4501  140.5198  C     
8    C       102.9424   23.5116  140.2858  C     
9    N       103.4840   22.4717  139.6595  N     
10   S       102.6095   21.0857  139.2343  S     
11   C       102.2461   19.9528  140.5302  C     
12   O       101.3980   21.4771  138.2830  O     
13   O       103.4320   20.3196  138.1101  O     
14   C       103.1952   18.9098  140.6810  C     
15   C       103.0642   17.9334  141.6773  C     
16   C       101.9898   17.9941  142.5686  C     
17   C       101.0519   19.0298  142.4538  C     
18   C       101.1379   20.0309  141.4422  C     
19   N       100.1524   20.9873  141.4242  N     
20   O        99.2666   21.0375  142.2374  O     
21   O       100.0306   21.9188  140.5345  O     
22   C       108.2585   22.0292  138.1886  C     
23   O       109.4893   22.5891  138.1496  O     
24   O       108.1105   20.8567  137.5310  O     
25   H       108.2099   24.4416  139.4062  H     
26   H       105.7394   21.1409  138.4763  H     
27   H       103.7081   25.3190  140.9740  H     
28   H       101.9915   23.5995  140.5522  H     
29   H       104.0109   18.8423  140.0676  H     
30   H       103.7562   17.1849  141.7599  H     
31   H       101.8907   17.2853  143.2993  H     
32   H       100.2849   19.0334  143.1310  H     
@<TRIPOS>BOND
     1    1    2 2
     2    1    4 1
     3    1   22 1
     4    2    3 1
     5    3    6 2
     6    4    5 2
     7    5    6 1
     8    5    9 1
     9    6    7 1
    10    7    8 2
    11    8    9 1
    12    9   10 1
    13   10   11 1
    14   10   12 2
    15   10   13 2
    16   11   14 2
    17   11   18 1
    18   14   15 1
    19   15   16 2
    20   16   17 1
    21   17   18 2
    22   18   19 am
    23   19   20 2
    24   19   21 1
    25   22   23 2
    26   22   24 1
    27    2   25 1
    28    4   26 1
    29    7   27 1
    30    8   28 1
    31   14   29 1
    32   15   30 1
    33   16   31 1
    34   17   32 1
@<TRIPOS>PROPERTY_DATA
  Total_Score	| 7.3129
  Crash		| -0.7525
  Polar		| 2.5742
  FragIndex	| 1
  FragRMSD	| 0.622

