@<TRIPOS>MOLECULE
BindingDB_50295734
 30 32 0 0 0
SMALL
NO_CHARGES


@<TRIPOS>ATOM
1    C       106.9958   22.7906  138.5391  C     
2    C       107.2496   23.9811  139.2566  C     
3    N       106.2618   24.5803  139.9740  N     
4    C       105.7130   22.2028  138.6006  C     
5    C       104.7112   22.8411  139.3553  C     
6    C       105.0175   24.0345  140.0109  C     
7    C       103.8880   24.4396  140.6459  C     
8    C       102.9457   23.5295  140.4042  C     
9    N       103.4251   22.5496  139.6424  N     
10   S       102.5815   21.1334  139.2609  S     
11   C       102.2740   20.0329  140.5848  C     
12   O       101.2252   21.5201  138.5242  O     
13   O       103.3536   20.3453  138.1153  O     
14   C       101.1651   20.2147  141.4335  C     
15   C       100.8868   19.2877  142.4530  C     
16   C       101.7052   18.1564  142.6161  C     
17   C       102.8280   17.9396  141.7728  C     
18   C       103.1009   18.9060  140.7627  C     
19   N       103.6010   16.8232  141.9201  N     
20   O       104.5672   16.6195  141.2324  O     
21   O       103.3424   15.8927  142.7976  O     
22   H       107.7453   22.3580  137.9867  H     
23   H       108.1778   24.4003  139.2460  H     
24   H       105.5156   21.3231  138.1162  H     
25   H       103.7967   25.2447  141.2139  H     
26   H       102.0293   23.5778  140.7778  H     
27   H       100.5412   21.0105  141.3080  H     
28   H       100.0732   19.4318  143.0616  H     
29   H       101.4619   17.4977  143.3603  H     
30   H       103.8988   18.7769  140.1195  H     
@<TRIPOS>BOND
     1    1    2 2
     2    1    4 1
     3    2    3 1
     4    3    6 2
     5    4    5 2
     6    5    6 1
     7    5    9 1
     8    6    7 1
     9    7    8 2
    10    8    9 1
    11    9   10 1
    12   10   11 1
    13   10   12 2
    14   10   13 2
    15   11   14 2
    16   11   18 1
    17   14   15 1
    18   15   16 2
    19   16   17 1
    20   17   18 2
    21   17   19 am
    22   19   20 2
    23   19   21 1
    24    1   22 1
    25    2   23 1
    26    4   24 1
    27    7   25 1
    28    8   26 1
    29   14   27 1
    30   15   28 1
    31   16   29 1
    32   18   30 1
@<TRIPOS>PROPERTY_DATA
  Total_Score	| 5.5450
  Crash		| -0.6781
  Polar		| 1.2020
  FragIndex	| 1
  FragRMSD	| 0.231

