@<TRIPOS>MOLECULE
BindingDB_50295747
 59 62 0 0 0
SMALL
NO_CHARGES


@<TRIPOS>ATOM
1    C       107.4179   22.7584  139.1653  C     
2    C       107.3497   24.1236  139.5992  C     
3    N       106.1961   24.7239  139.9772  N     
4    C       106.1422   22.0807  139.1451  C     
5    C       104.9549   22.7141  139.5819  C     
6    C       105.0315   24.0491  139.9721  C     
7    C       103.8022   24.4482  140.3582  C     
8    C       102.9983   23.3910  140.2649  C     
9    N       103.6546   22.3386  139.7790  N     
10   S       102.8437   20.8966  139.4044  S     
11   C       102.4111   19.8027  140.7135  C     
12   O       101.6157   21.1938  138.4357  O     
13   O       103.7489   20.1296  138.3457  O     
14   C       103.3142   18.7211  140.8923  C     
15   C       103.0650   17.6989  141.8237  C     
16   C       101.9174   17.7548  142.6213  C     
17   C       101.0353   18.8377  142.4924  C     
18   C       101.2397   19.8859  141.5487  C     
19   N       100.3055   20.8946  141.5165  N     
20   O        99.3223   20.8981  142.2184  O     
21   O       100.4130   21.9629  140.7851  O     
22   N       108.6240   22.1392  138.8416  N     
23   C       109.9529   22.7467  138.9919  C     
24   C       110.9283   22.3847  137.8323  C     
25   N       110.9713   20.9691  137.5274  N     
26   C       110.0550   20.0909  138.2238  C     
27   C       108.6519   20.7493  138.3912  C     
28   C       111.9100   20.4747  136.6628  C     
29   O       112.1103   19.1398  136.5372  O     
30   O       112.7001   21.3048  135.9188  O     
31   C       113.7893   21.0557  134.9995  C     
32   C       113.4101   20.0137  133.9017  C     
33   C       114.0785   22.4335  134.3394  C     
34   C       115.0440   20.5628  135.7812  C     
35   H       108.1745   24.7212  139.6605  H     
36   H       106.0773   21.1038  138.8448  H     
37   H       103.5484   25.3520  140.6753  H     
38   H       102.0377   23.4153  140.5228  H     
39   H       104.1666   18.6397  140.3304  H     
40   H       103.7179   16.9130  141.9133  H     
41   H       101.7277   17.0018  143.2948  H     
42   H       100.2198   18.8404  143.1095  H     
43   H       109.9610   23.8323  139.0463  H     
44   H       110.3791   22.3682  139.9267  H     
45   H       110.6283   22.9307  136.9333  H     
46   H       111.9290   22.7267  138.1153  H     
47   H       109.9274   19.1281  137.7200  H     
48   H       110.4789   19.8803  139.2092  H     
49   H       108.0997   20.1225  139.1026  H     
50   H       108.1536   20.7088  137.4169  H     
51   H       113.2937   19.0200  134.3422  H     
52   H       114.1877   19.9673  133.1318  H     
53   H       112.4714   20.2875  133.4232  H     
54   H       113.2100   22.7703  133.7695  H     
55   H       114.9315   22.3754  133.6599  H     
56   H       114.2963   23.1852  135.1020  H     
57   H       115.3030   21.2671  136.5737  H     
58   H       115.9009   20.4612  135.1123  H     
59   H       114.8555   19.5905  136.2377  H     
@<TRIPOS>BOND
     1    1    2 2
     2    1    4 1
     3    1   22 1
     4    2    3 1
     5    3    6 2
     6    4    5 2
     7    5    6 1
     8    5    9 1
     9    6    7 1
    10    7    8 2
    11    8    9 1
    12    9   10 1
    13   10   11 1
    14   10   12 2
    15   10   13 2
    16   11   14 2
    17   11   18 1
    18   14   15 1
    19   15   16 2
    20   16   17 1
    21   17   18 2
    22   18   19 am
    23   19   20 2
    24   19   21 1
    25   22   23 1
    26   22   27 1
    27   23   24 1
    28   24   25 1
    29   25   26 1
    30   25   28 1
    31   26   27 1
    32   28   29 2
    33   28   30 1
    34   30   31 1
    35   31   32 1
    36   31   33 1
    37   31   34 1
    38    2   35 1
    39    4   36 1
    40    7   37 1
    41    8   38 1
    42   14   39 1
    43   15   40 1
    44   16   41 1
    45   17   42 1
    46   23   43 1
    47   23   44 1
    48   24   45 1
    49   24   46 1
    50   26   47 1
    51   26   48 1
    52   27   49 1
    53   27   50 1
    54   32   51 1
    55   32   52 1
    56   32   53 1
    57   33   54 1
    58   33   55 1
    59   33   56 1
    60   34   57 1
    61   34   58 1
    62   34   59 1
@<TRIPOS>PROPERTY_DATA
  Total_Score	| 8.7057
  Crash		| -1.2281
  Polar		| 2.4010
  FragIndex	| 1
  FragRMSD	| 0.688

