@<TRIPOS>MOLECULE
BindingDB_50295730
 28 30 0 0 0
SMALL
NO_CHARGES


@<TRIPOS>ATOM
1    C       107.0476   22.7510  138.5277  C     
2    C       107.2540   24.0014  139.1476  C     
3    N       106.2550   24.5784  139.8674  N     
4    C       105.8028   22.1061  138.6626  C     
5    C       104.7866   22.7358  139.4083  C     
6    C       105.0514   23.9700  139.9983  C     
7    C       103.9265   24.3399  140.6627  C     
8    C       103.0130   23.3818  140.4783  C     
9    N       103.5123   22.4079  139.7186  N     
10   S       102.6834   21.0057  139.2796  S     
11   C       102.2558   19.9257  140.5923  C     
12   O       101.3937   21.4092  138.4352  O     
13   O       103.4855   20.2282  138.1544  O     
14   C       103.0245   18.7470  140.7789  C     
15   C       102.7116   17.8353  141.7991  C     
16   C       101.6269   18.0909  142.6519  C     
17   C       100.8649   19.2588  142.4948  C     
18   C       101.1739   20.1855  141.4761  C     
19   Cl      100.2136   21.5750  141.3902  Cl    
20   H       107.8010   22.3195  137.9864  H     
21   H       108.1529   24.4787  139.0694  H     
22   H       105.6440   21.1960  138.2249  H     
23   H       103.8082   25.1692  141.1958  H     
24   H       102.1042   23.4127  140.8629  H     
25   H       103.8190   18.5455  140.1644  H     
26   H       103.2609   16.9843  141.9092  H     
27   H       101.3868   17.4154  143.3903  H     
28   H       100.0755   19.4249  143.1244  H     
@<TRIPOS>BOND
     1    1    2 2
     2    1    4 1
     3    2    3 1
     4    3    6 2
     5    4    5 2
     6    5    6 1
     7    5    9 1
     8    6    7 1
     9    7    8 2
    10    8    9 1
    11    9   10 1
    12   10   11 1
    13   10   12 2
    14   10   13 2
    15   11   14 2
    16   11   18 1
    17   14   15 1
    18   15   16 2
    19   16   17 1
    20   17   18 2
    21   18   19 1
    22    1   20 1
    23    2   21 1
    24    4   22 1
    25    7   23 1
    26    8   24 1
    27   14   25 1
    28   15   26 1
    29   16   27 1
    30   17   28 1
@<TRIPOS>PROPERTY_DATA
  Total_Score	| 5.8494
  Crash		| -0.7790
  Polar		| 1.1903
  FragIndex	| 1
  FragRMSD	| 0.180

