@<TRIPOS>MOLECULE
BindingDB_50295748
 45 48 0 0 0
SMALL
NO_CHARGES


@<TRIPOS>ATOM
1    C       107.4067   22.2839  139.4742  C     
2    C       107.5035   23.6990  139.6312  C     
3    N       106.4038   24.4361  139.9219  N     
4    C       106.1263   21.6744  139.5949  C     
5    C       104.9954   22.4961  139.7636  C     
6    C       105.1783   23.8591  139.9697  C     
7    C       103.9743   24.4140  140.1878  C     
8    C       103.0704   23.4322  140.0948  C     
9    N       103.6618   22.2731  139.8217  N     
10   S       102.8293   20.8676  139.3726  S     
11   C       102.3607   19.7725  140.6705  C     
12   O       101.7243   21.1698  138.2835  O     
13   O       103.7688   20.0908  138.3470  O     
14   C       103.2159   18.6656  140.8640  C     
15   C       102.9884   17.7246  141.8788  C     
16   C       101.9093   17.8932  142.7501  C     
17   C       101.0446   18.9871  142.5765  C     
18   C       101.2200   19.9496  141.5347  C     
19   N       100.2915   20.9631  141.4468  N     
20   O        99.3471   21.0485  142.1860  O     
21   O       100.3054   21.9156  140.5763  O     
22   N       108.5282   21.5470  139.2355  N     
23   C       109.3107   21.8007  138.0398  C     
24   C       110.5899   20.9154  137.9347  C     
25   N       110.3484   19.5206  138.3759  N     
26   C       109.5337   19.3248  139.5999  C     
27   C       109.0242   20.6367  140.2431  C     
28   H       108.4133   24.1715  139.6236  H     
29   H       106.0184   20.6601  139.4687  H     
30   H       103.8002   25.3884  140.3380  H     
31   H       102.0959   23.5912  140.1938  H     
32   H       104.0314   18.5123  140.2753  H     
33   H       103.6202   16.9236  141.9937  H     
34   H       101.7378   17.2134  143.4963  H     
35   H       100.2776   19.0719  143.2442  H     
36   H       108.6688   21.5731  137.1752  H     
37   H       109.6274   22.8447  137.9560  H     
38   H       110.9397   20.9131  136.9024  H     
39   H       111.3806   21.3480  138.5480  H     
40   H       109.8769   19.0318  137.6108  H     
41   H       111.2582   19.0746  138.5208  H     
42   H       108.6772   18.7004  139.3478  H     
43   H       110.1296   18.7829  140.3310  H     
44   H       109.8828   21.1242  140.7236  H     
45   H       108.2976   20.4091  141.0325  H     
@<TRIPOS>BOND
     1    1    2 2
     2    1    4 1
     3    1   22 1
     4    2    3 1
     5    3    6 2
     6    4    5 2
     7    5    6 1
     8    5    9 1
     9    6    7 1
    10    7    8 2
    11    8    9 1
    12    9   10 1
    13   10   11 1
    14   10   12 2
    15   10   13 2
    16   11   14 2
    17   11   18 1
    18   14   15 1
    19   15   16 2
    20   16   17 1
    21   17   18 2
    22   18   19 am
    23   19   20 2
    24   19   21 1
    25   22   23 1
    26   22   27 1
    27   23   24 1
    28   24   25 1
    29   25   26 1
    30   26   27 1
    31    2   28 1
    32    4   29 1
    33    7   30 1
    34    8   31 1
    35   14   32 1
    36   15   33 1
    37   16   34 1
    38   17   35 1
    39   23   36 1
    40   23   37 1
    41   24   38 1
    42   24   39 1
    43   25   40 1
    44   25   41 1
    45   26   42 1
    46   26   43 1
    47   27   44 1
    48   27   45 1
@<TRIPOS>PROPERTY_DATA
  Total_Score	| 9.1389
  Crash		| -0.8466
  Polar		| 3.8704
  FragIndex	| 1
  FragRMSD	| 0.726

