@<TRIPOS>MOLECULE
BindingDB_50295728
 28 30 0 0 0
SMALL
NO_CHARGES


@<TRIPOS>ATOM
1    C       107.0486   22.8818  138.6517  C     
2    C       107.2015   24.0769  139.3797  C     
3    N       106.1515   24.6188  140.0537  N     
4    C       105.7961   22.2355  138.6502  C     
5    C       104.7267   22.8092  139.3668  C     
6    C       104.9424   24.0062  140.0470  C     
7    C       103.7715   24.3560  140.6333  C     
8    C       102.8775   23.4197  140.3265  C     
9    N       103.4324   22.4698  139.5828  N     
10   S       102.6464   21.0306  139.1848  S     
11   C       102.2651   19.9888  140.5284  C     
12   O       101.3199   21.3782  138.3779  O     
13   O       103.4735   20.2282  138.0865  O     
14   C       101.1116   20.2205  141.3100  C     
15   C       100.7915   19.3532  142.3750  C     
16   C       101.6195   18.2500  142.6650  C     
17   C       102.7786   18.0186  141.8961  C     
18   C       103.1022   18.8933  140.8376  C     
19   Cl      103.7862   16.7042  142.2508  Cl    
20   H       107.8363   22.4802  138.1395  H     
21   H       108.1034   24.5519  139.3940  H     
22   H       105.6764   21.3605  138.1381  H     
23   H       103.6137   25.1630  141.1902  H     
24   H       101.9346   23.4318  140.6446  H     
25   H       100.4948   21.0141  141.1109  H     
26   H        99.9547   19.5273  142.9385  H     
27   H       101.3810   17.6177  143.4381  H     
28   H       103.9510   18.7219  140.2937  H     
@<TRIPOS>BOND
     1    1    2 2
     2    1    4 1
     3    2    3 1
     4    3    6 2
     5    4    5 2
     6    5    6 1
     7    5    9 1
     8    6    7 1
     9    7    8 2
    10    8    9 1
    11    9   10 1
    12   10   11 1
    13   10   12 2
    14   10   13 2
    15   11   14 2
    16   11   18 1
    17   14   15 1
    18   15   16 2
    19   16   17 1
    20   17   18 2
    21   17   19 1
    22    1   20 1
    23    2   21 1
    24    4   22 1
    25    7   23 1
    26    8   24 1
    27   14   25 1
    28   15   26 1
    29   16   27 1
    30   18   28 1
@<TRIPOS>PROPERTY_DATA
  Total_Score	| 5.8695
  Crash		| -0.5458
  Polar		| 1.1921
  FragIndex	| 1
  FragRMSD	| 0.206

