@<TRIPOS>MOLECULE
BindingDB_50295729
 28 30 0 0 0
SMALL
NO_CHARGES


@<TRIPOS>ATOM
1    C       107.0610   22.9480  138.6079  C     
2    C       107.2164   24.1187  139.3826  C     
3    N       106.1712   24.6000  140.1287  N     
4    C       105.8214   22.2688  138.6030  C     
5    C       104.7548   22.8017  139.3683  C     
6    C       104.9734   23.9625  140.1193  C     
7    C       103.7977   24.2630  140.7329  C     
8    C       102.9087   23.3279  140.3898  C     
9    N       103.4634   22.4389  139.5688  N     
10   S       102.7419   20.9576  139.1781  S     
11   C       102.2676   19.9703  140.5336  C     
12   O       101.5116   21.2441  138.2035  O     
13   O       103.6827   20.0899  138.2197  O     
14   C       101.2649   20.4195  141.4127  C     
15   C       100.8310   19.5829  142.4625  C     
16   C       101.4299   18.3275  142.6825  C     
17   C       102.4710   17.9014  141.8381  C     
18   C       102.8855   18.7141  140.7620  C     
19   H       107.8431   22.5748  138.0747  H     
20   H       108.1123   24.5981  139.4129  H     
21   H       105.7092   21.4223  138.0520  H     
22   H       103.6424   25.0192  141.3576  H     
23   H       101.9842   23.2822  140.7588  H     
24   H       100.8302   21.3361  141.2799  H     
25   H       100.0974   19.9018  143.0890  H     
26   H       101.1179   17.7453  143.4605  H     
27   H       102.9365   17.0108  142.0257  H     
28   H       103.6387   18.3921  140.1495  H     
@<TRIPOS>BOND
     1    1    2 2
     2    1    4 1
     3    2    3 1
     4    3    6 2
     5    4    5 2
     6    5    6 1
     7    5    9 1
     8    6    7 1
     9    7    8 2
    10    8    9 1
    11    9   10 1
    12   10   11 1
    13   10   12 2
    14   10   13 2
    15   11   14 2
    16   11   18 1
    17   14   15 1
    18   15   16 2
    19   16   17 1
    20   17   18 2
    21    1   19 1
    22    2   20 1
    23    4   21 1
    24    7   22 1
    25    8   23 1
    26   14   24 1
    27   15   25 1
    28   16   26 1
    29   17   27 1
    30   18   28 1
@<TRIPOS>PROPERTY_DATA
  Total_Score	| 5.9993
  Crash		| -0.5087
  Polar		| 1.1612
  FragIndex	| 1
  FragRMSD	| 0.273

