@<TRIPOS>MOLECULE
BindingDB_50295733
 28 30 0 0 0
SMALL
NO_CHARGES


@<TRIPOS>ATOM
1    C       107.0552   22.7368  138.6284  C     
2    C       107.2796   23.9835  139.2448  C     
3    N       106.2807   24.5910  139.9492  N     
4    C       105.7932   22.1159  138.7455  C     
5    C       104.7834   22.7646  139.4834  C     
6    C       105.0648   23.9994  140.0657  C     
7    C       103.9437   24.4042  140.7121  C     
8    C       103.0161   23.4690  140.5314  C     
9    N       103.4944   22.4675  139.7974  N     
10   S       102.6141   21.0877  139.3777  S     
11   C       102.2437   19.9462  140.6619  C     
12   O       101.2714   21.5831  138.6798  O     
13   O       103.2312   20.4247  138.0743  O     
14   C       103.0152   18.7612  140.8504  C     
15   C       102.6700   17.8376  141.8559  C     
16   C       101.5841   18.0854  142.7100  C     
17   C       100.8442   19.2683  142.5728  C     
18   C       101.1663   20.1983  141.5635  C     
19   Cl      100.1881   21.5858  141.5211  Cl    
20   Cl      104.3890   18.3510  139.9360  Cl    
21   H       107.8014   22.2730  138.1026  H     
22   H       108.1947   24.4344  139.1753  H     
23   H       105.6307   21.2111  138.3019  H     
24   H       103.8388   25.2458  141.2310  H     
25   H       102.0945   23.5317  140.8962  H     
26   H       103.2041   16.9735  141.9829  H     
27   H       101.3393   17.4122  143.4375  H     
28   H       100.0685   19.4444  143.2162  H     
@<TRIPOS>BOND
     1    1    2 2
     2    1    4 1
     3    2    3 1
     4    3    6 2
     5    4    5 2
     6    5    6 1
     7    5    9 1
     8    6    7 1
     9    7    8 2
    10    8    9 1
    11    9   10 1
    12   10   11 1
    13   10   12 2
    14   10   13 2
    15   11   14 2
    16   11   18 1
    17   14   15 1
    18   14   20 1
    19   15   16 2
    20   16   17 1
    21   17   18 2
    22   18   19 1
    23    1   21 1
    24    2   22 1
    25    4   23 1
    26    7   24 1
    27    8   25 1
    28   15   26 1
    29   16   27 1
    30   17   28 1
@<TRIPOS>PROPERTY_DATA
  Total_Score	| 5.8167
  Crash		| -0.8543
  Polar		| 1.1990
  FragIndex	| 1
  FragRMSD	| 0.253

