@<TRIPOS>MOLECULE
BindingDB_50359807
 47 49 0 0 0
SMALL
NO_CHARGES


@<TRIPOS>ATOM
1    C        20.3681   -1.1968    8.5194  C     
2    C        19.7655   -0.0914    8.0302  C     
3    C        18.4770   -1.7813    9.8099  C     
4    C        19.7394   -2.0229    9.4044  C     
5    C        17.7726   -0.6744    9.3189  C     
6    C        18.4359    0.2054    8.4121  C     
7    C        17.7111    1.3300    7.9526  C     
8    N        16.4344    1.5342    8.3564  N     
9    C        15.7585    0.7126    9.1982  C     
10   C        16.4390   -0.4178    9.7090  C     
11   Cl       20.6410    0.8729    6.9844  Cl    
12   N        14.4899    1.1121    9.4713  N     
13   C        13.5309    0.5169   10.2340  C     
14   C        12.3570    1.2298   10.5439  C     
15   N        11.3626    0.6152   11.2368  N     
16   C        11.4466   -0.6756   11.6575  C     
17   C        12.6309   -1.3940   11.3768  C     
18   N        13.5999   -0.7688   10.6622  N     
19   O        12.8052   -2.7106   11.7072  O     
20   C        13.9962   -3.0632   12.4466  C     
21   C        13.5841   -3.8009   13.7694  C     
22   N        13.8366   -3.0961   15.0657  N     
23   C        15.1767   -3.3631   15.6535  C     
24   C        13.5266   -1.6374   15.0348  C     
25   C        14.8441   -3.9496   11.5054  C     
26   C        10.4372   -1.2036   12.2803  C     
27   N         9.5448   -1.6830   12.8242  N     
28   H        21.2971   -1.4206    8.2452  H     
29   H        18.0480   -2.4009   10.4587  H     
30   H        20.2223   -2.8132    9.7637  H     
31   H        18.1286    2.0153    7.3227  H     
32   H        15.9852   -1.0444   10.3764  H     
33   H        14.2219    1.9588    9.0792  H     
34   H        12.2463    2.2061   10.2668  H     
35   H        14.6176   -2.1916   12.6767  H     
36   H        12.5144   -4.0341   13.7322  H     
37   H        14.0815   -4.7696   13.8220  H     
38   H        13.1618   -3.4933   15.7254  H     
39   H        15.3777   -4.4380   15.6863  H     
40   H        15.2135   -2.9880   16.6804  H     
41   H        15.9623   -2.8725   15.0713  H     
42   H        14.2043   -1.0937   14.3665  H     
43   H        13.6185   -1.2091   16.0404  H     
44   H        12.4979   -1.4811   14.6962  H     
45   H        14.2943   -4.8544   11.2343  H     
46   H        15.7780   -4.2393   11.9996  H     
47   H        15.0919   -3.4003   10.5893  H     
@<TRIPOS>BOND
     1    1    2 2
     2    1    4 1
     3    2    6 1
     4    2   11 1
     5    3    4 2
     6    3    5 1
     7    5    6 1
     8    5   10 2
     9    6    7 2
    10    7    8 1
    11    8    9 2
    12    9   10 1
    13    9   12 1
    14   12   13 1
    15   13   14 2
    16   13   18 1
    17   14   15 1
    18   15   16 2
    19   16   17 1
    20   16   26 1
    21   17   18 2
    22   17   19 1
    23   19   20 1
    24   20   21 1
    25   20   25 1
    26   21   22 1
    27   22   23 1
    28   22   24 1
    29   26   27 3
    30    1   28 1
    31    3   29 1
    32    4   30 1
    33    7   31 1
    34   10   32 1
    35   12   33 1
    36   14   34 1
    37   20   35 1
    38   21   36 1
    39   21   37 1
    40   22   38 1
    41   23   39 1
    42   23   40 1
    43   23   41 1
    44   24   42 1
    45   24   43 1
    46   24   44 1
    47   25   45 1
    48   25   46 1
    49   25   47 1
@<TRIPOS>PROPERTY_DATA
  Total_Score	| 9.8675
  Crash		| -1.0835
  Polar		| 5.2604
  FragIndex	| 1
  FragRMSD	| 0.471

