@<TRIPOS>MOLECULE
BindingDB_50359810
 45 48 0 0 0
SMALL
NO_CHARGES


@<TRIPOS>ATOM
1    C        20.5594   -1.0481    8.3425  C     
2    C        19.9296    0.0790    7.9295  C     
3    C        18.6481   -1.8074    9.5028  C     
4    C        19.9211   -1.9822    9.1038  C     
5    C        17.9291   -0.6771    9.1022  C     
6    C        18.5782    0.2906    8.2797  C     
7    C        17.8212    1.4207    7.8912  C     
8    N        16.5257    1.5352    8.2728  N     
9    C        15.8653    0.6382    9.0477  C     
10   C        16.5876   -0.4905    9.4969  C     
11   N        14.5726    0.9630    9.3083  N     
12   C        13.6135    0.3066   10.0216  C     
13   C        12.3463    0.9186   10.1609  C     
14   N        11.3787    0.2843   10.8712  N     
15   C        11.5665   -0.9221   11.4595  C     
16   C        12.8343   -1.5404   11.3454  C     
17   N        13.7855   -0.9015   10.6203  N     
18   C        10.5912   -1.4441   12.1302  C     
19   N         9.7290   -1.9082   12.7282  N     
20   O        13.0701   -2.7979   11.8402  O     
21   C        13.6998   -2.9313   13.1411  C     
22   C        15.2514   -3.0696   13.0235  C     
23   N        15.8812   -3.3317   14.3410  N     
24   C        15.5745   -2.3178   15.3793  C     
25   C        14.0503   -2.1267   15.5700  C     
26   C        13.3615   -1.8460   14.2140  C     
27   Cl       20.7951    1.1545    6.9958  Cl    
28   H        21.5103   -1.2069    8.1022  H     
29   H        18.2111   -2.5102   10.0577  H     
30   H        20.4050   -2.8121    9.3692  H     
31   H        18.2130    2.1571    7.3001  H     
32   H        16.1445   -1.1938   10.0824  H     
33   H        14.2707    1.7932    8.8953  H     
34   H        12.1408    1.8268    9.7382  H     
35   H        13.3266   -3.8883   13.5331  H     
36   H        15.4851   -3.9098   12.3594  H     
37   H        15.6780   -2.1613   12.5813  H     
38   H        15.5597   -4.2487   14.6740  H     
39   H        16.9053   -3.3634   14.2189  H     
40   H        16.0083   -2.6670   16.3176  H     
41   H        16.0479   -1.3699   15.1087  H     
42   H        13.6139   -3.0193   16.0316  H     
43   H        13.8742   -1.2798   16.2404  H     
44   H        13.6957   -0.8692   13.8276  H     
45   H        12.2751   -1.7990   14.3588  H     
@<TRIPOS>BOND
     1    1    2 2
     2    1    4 1
     3    2    6 1
     4    2   27 1
     5    3    4 2
     6    3    5 1
     7    5    6 1
     8    5   10 2
     9    6    7 2
    10    7    8 1
    11    8    9 2
    12    9   10 1
    13    9   11 1
    14   11   12 1
    15   12   13 2
    16   12   17 1
    17   13   14 1
    18   14   15 2
    19   15   16 1
    20   15   18 1
    21   16   17 2
    22   16   20 1
    23   18   19 3
    24   20   21 1
    25   21   22 1
    26   21   26 1
    27   22   23 1
    28   23   24 1
    29   24   25 1
    30   25   26 1
    31    1   28 1
    32    3   29 1
    33    4   30 1
    34    7   31 1
    35   10   32 1
    36   11   33 1
    37   13   34 1
    38   21   35 1
    39   22   36 1
    40   22   37 1
    41   23   38 1
    42   23   39 1
    43   24   40 1
    44   24   41 1
    45   25   42 1
    46   25   43 1
    47   26   44 1
    48   26   45 1
@<TRIPOS>PROPERTY_DATA
  Total_Score	| 9.8842
  Crash		| -0.7493
  Polar		| 4.6371
  FragIndex	| 1
  FragRMSD	| 0.977

