@<TRIPOS>MOLECULE
BindingDB_50359806
 47 49 0 0 0
SMALL
NO_CHARGES


@<TRIPOS>ATOM
1    C        20.4532   -1.0653    8.5973  C     
2    C        19.8583    0.0497    8.1237  C     
3    C        18.4400   -1.8507    9.5451  C     
4    C        19.7527   -2.0081    9.2913  C     
5    C        17.7626   -0.7135    9.0942  C     
6    C        18.4844    0.2681    8.3530  C     
7    C        17.7690    1.4089    7.9304  C     
8    N        16.4625    1.5597    8.2548  N     
9    C        15.7300    0.6645    8.9650  C     
10   C        16.3938   -0.5171    9.3808  C     
11   Cl       20.8093    1.1341    7.2797  Cl    
12   N        14.4416    1.0264    9.2221  N     
13   C        13.4662    0.3982    9.9514  C     
14   C        12.2442    1.0552   10.2013  C     
15   N        11.3008    0.4320   10.9581  N     
16   C        11.4798   -0.8083   11.4919  C     
17   C        12.6955   -1.4854   11.2467  C     
18   N        13.6095   -0.8505   10.4730  N     
19   O        12.9492   -2.7831   11.6054  O     
20   C        13.9071   -3.0908   12.6474  C     
21   C        13.3551   -2.6861   14.0578  C     
22   N        13.7981   -3.4199   15.2945  N     
23   C        13.8766   -4.9000   15.1418  C     
24   C        14.9678   -2.8476   16.0227  C     
25   C        15.3540   -2.5962   12.3556  C     
26   C        10.5125   -1.3336   12.1803  C     
27   N         9.6565   -1.8009   12.7901  N     
28   H        21.4271   -1.2106    8.4552  H     
29   H        17.9598   -2.5546   10.0624  H     
30   H        20.2173   -2.8215    9.6166  H     
31   H        18.2155    2.1524    7.3980  H     
32   H        15.8989   -1.2404    9.8999  H     
33   H        14.1874    1.8968    8.8658  H     
34   H        12.0526    1.9853    9.8176  H     
35   H        13.9582   -4.1870   12.6180  H     
36   H        13.5068   -1.6089   14.2000  H     
37   H        12.2724   -2.8395   14.0217  H     
38   H        13.0198   -3.2857   15.9391  H     
39   H        12.9568   -5.2871   14.6850  H     
40   H        13.9799   -5.3756   16.1203  H     
41   H        14.7357   -5.1917   14.5234  H     
42   H        15.8857   -2.9131   15.4386  H     
43   H        15.1259   -3.3980   16.9593  H     
44   H        14.7691   -1.7965   16.2776  H     
45   H        15.6643   -2.9493   11.3644  H     
46   H        16.0747   -3.0042   13.0825  H     
47   H        15.3937   -1.4967   12.3815  H     
@<TRIPOS>BOND
     1    1    2 2
     2    1    4 1
     3    2    6 1
     4    2   11 1
     5    3    4 2
     6    3    5 1
     7    5    6 1
     8    5   10 2
     9    6    7 2
    10    7    8 1
    11    8    9 2
    12    9   10 1
    13    9   12 1
    14   12   13 1
    15   13   14 2
    16   13   18 1
    17   14   15 1
    18   15   16 2
    19   16   17 1
    20   16   26 1
    21   17   18 2
    22   17   19 1
    23   19   20 1
    24   20   21 1
    25   20   25 1
    26   21   22 1
    27   22   23 1
    28   22   24 1
    29   26   27 3
    30    1   28 1
    31    3   29 1
    32    4   30 1
    33    7   31 1
    34   10   32 1
    35   12   33 1
    36   14   34 1
    37   20   35 1
    38   21   36 1
    39   21   37 1
    40   22   38 1
    41   23   39 1
    42   23   40 1
    43   23   41 1
    44   24   42 1
    45   24   43 1
    46   24   44 1
    47   25   45 1
    48   25   46 1
    49   25   47 1
@<TRIPOS>PROPERTY_DATA
  Total_Score	| 9.5761
  Crash		| -0.8098
  Polar		| 5.5116
  FragIndex	| 1
  FragRMSD	| 0.699

