@<TRIPOS>MOLECULE
BindingDB_50359808
 47 49 0 0 0
SMALL
NO_CHARGES


@<TRIPOS>ATOM
1    C        20.4044   -1.0340    8.4384  C     
2    C        19.7478    0.0441    7.9635  C     
3    C        18.4804   -1.8015    9.5857  C     
4    C        19.7656   -1.9687    9.2178  C     
5    C        17.7585   -0.6771    9.1596  C     
6    C        18.4039    0.2654    8.3097  C     
7    C        17.6681    1.3849    7.8766  C     
8    N        16.3830    1.5444    8.2727  N     
9    C        15.7194    0.6784    9.0746  C     
10   C        16.4144   -0.4693    9.5361  C     
11   N        14.4482    1.0553    9.3604  N     
12   C        13.4848    0.4429   10.1037  C     
13   C        12.2737    1.1252   10.3306  C     
14   N        11.3101    0.5490   11.0949  N     
15   C        11.4488   -0.6842   11.6405  C     
16   C        12.6398   -1.3981   11.3959  C     
17   N        13.6008   -0.8041   10.6356  N     
18   C        10.4716   -1.1658   12.3421  C     
19   N         9.6055   -1.5974   12.9594  N     
20   O        12.7772   -2.7028   11.7705  O     
21   C        13.9909   -3.1003   12.4406  C     
22   C        13.6122   -3.8147   13.7868  C     
23   C        14.7165   -4.0061   11.4095  C     
24   N        13.8753   -3.1163   15.0979  N     
25   C        15.1951   -3.3909   15.7287  C     
26   C        13.5826   -1.6531   15.0618  C     
27   H        21.3516   -1.1815    8.1801  H     
28   H        20.2357    0.6905    7.3834  H     
29   H        18.0493   -2.4960   10.1465  H     
30   H        20.2568   -2.7760    9.5139  H     
31   H        18.0845    2.1059    7.2761  H     
32   H        15.9675   -1.1350   10.1673  H     
33   H        14.1636    1.8967    8.9660  H     
34   H        12.1045    2.0511    9.9410  H     
35   H        14.6366   -2.2412   12.6459  H     
36   H        12.5300   -4.0406   13.7457  H     
37   H        14.1110   -4.7902   13.8179  H     
38   H        14.2238   -4.9797   11.3455  H     
39   H        15.7658   -4.1503   11.6545  H     
40   H        14.6834   -3.5296   10.4259  H     
41   H        13.1757   -3.5031   15.7470  H     
42   H        15.3728   -4.4661   15.7233  H     
43   H        15.1936   -3.0542   16.7735  H     
44   H        16.0011   -2.8916   15.1940  H     
45   H        14.2431   -1.1075   14.3821  H     
46   H        13.6793   -1.2270   16.0701  H     
47   H        12.5504   -1.4847   14.7450  H     
@<TRIPOS>BOND
     1    1    2 2
     2    1    4 1
     3    2    6 1
     4    3    4 2
     5    3    5 1
     6    5    6 1
     7    5   10 2
     8    6    7 2
     9    7    8 1
    10    8    9 2
    11    9   10 1
    12    9   11 1
    13   11   12 1
    14   12   13 2
    15   12   17 1
    16   13   14 1
    17   14   15 2
    18   15   16 1
    19   15   18 1
    20   16   17 2
    21   16   20 1
    22   18   19 3
    23   20   21 1
    24   21   22 1
    25   21   23 1
    26   22   24 1
    27   24   25 1
    28   24   26 1
    29    1   27 1
    30    2   28 1
    31    3   29 1
    32    4   30 1
    33    7   31 1
    34   10   32 1
    35   11   33 1
    36   13   34 1
    37   21   35 1
    38   22   36 1
    39   22   37 1
    40   23   38 1
    41   23   39 1
    42   23   40 1
    43   24   41 1
    44   25   42 1
    45   25   43 1
    46   25   44 1
    47   26   45 1
    48   26   46 1
    49   26   47 1
@<TRIPOS>PROPERTY_DATA
  Total_Score	| 9.9089
  Crash		| -1.1262
  Polar		| 5.2310
  FragIndex	| 1
  FragRMSD	| 0.428

