@<TRIPOS>MOLECULE
BindingDB_50359816
 45 48 0 0 0
SMALL
NO_CHARGES


@<TRIPOS>ATOM
1    C        17.7544    1.4022    7.8259  C     
2    N        16.4730    1.5856    8.2430  N     
3    C        15.7923    0.7480    9.0782  C     
4    C        16.4884   -0.3949    9.5679  C     
5    N        14.5192    1.1343    9.3583  N     
6    C        13.5424    0.5092   10.0820  C     
7    C        12.3544    1.1942   10.4056  C     
8    N        11.3866    0.5445   11.1019  N     
9    C        11.5029   -0.7487   11.5068  C     
10   C        12.6837   -1.4573   11.1911  C     
11   N        13.6290   -0.7863   10.4784  N     
12   C        10.5192   -1.2851   12.1612  C     
13   N         9.6477   -1.7625   12.7396  N     
14   C        18.4441    0.2680    8.2771  C     
15   C        17.8080   -0.6146    9.1433  C     
16   N        18.6910   -1.5731    9.4384  N     
17   C        19.8299   -1.3016    8.7781  C     
18   N        19.6934   -0.1704    8.0575  N     
19   O        12.8463   -2.7856   11.5278  O     
20   C        14.1703   -3.2882   11.8298  C     
21   C        14.5829   -3.2154   13.3382  C     
22   C        14.0163   -1.9752   14.0991  C     
23   C        14.4367   -1.9780   15.5893  C     
24   N        14.0774   -3.2595   16.2345  N     
25   C        14.6415   -4.4584   15.5758  C     
26   C        14.2133   -4.5250   14.0907  C     
27   H        18.2043    2.0831    7.2118  H     
28   H        16.0796   -1.0411   10.2360  H     
29   H        14.2489    1.9808    8.9704  H     
30   H        12.2037    2.1652   10.1305  H     
31   H        18.5378   -2.3310   10.0237  H     
32   H        20.6785   -1.8709    8.8166  H     
33   H        14.1817   -4.3303   11.4881  H     
34   H        14.9399   -2.7934   11.2346  H     
35   H        15.6771   -3.1367   13.3676  H     
36   H        14.3654   -1.0485   13.6335  H     
37   H        12.9244   -1.9854   14.0617  H     
38   H        15.5154   -1.8064   15.6777  H     
39   H        13.9261   -1.1693   16.1167  H     
40   H        14.3989   -3.2295   17.2005  H     
41   H        13.0610   -3.3480   16.2348  H     
42   H        15.7356   -4.4439   15.6540  H     
43   H        14.2808   -5.3507   16.0960  H     
44   H        13.1362   -4.6871   14.0324  H     
45   H        14.7204   -5.3742   13.6288  H     
@<TRIPOS>BOND
     1    1    2 1
     2    1   14 2
     3    2    3 2
     4    3    4 1
     5    3    5 1
     6    4   15 2
     7    5    6 1
     8    6    7 2
     9    6   11 1
    10    7    8 1
    11    8    9 2
    12    9   10 1
    13    9   12 1
    14   10   11 2
    15   10   19 1
    16   12   13 3
    17   14   15 1
    18   14   18 1
    19   15   16 1
    20   16   17 1
    21   17   18 2
    22   19   20 1
    23   20   21 1
    24   21   22 1
    25   21   26 1
    26   22   23 1
    27   23   24 1
    28   24   25 1
    29   25   26 1
    30    1   27 1
    31    4   28 1
    32    5   29 1
    33    7   30 1
    34   16   31 1
    35   17   32 1
    36   20   33 1
    37   20   34 1
    38   21   35 1
    39   22   36 1
    40   22   37 1
    41   23   38 1
    42   23   39 1
    43   24   40 1
    44   24   41 1
    45   25   42 1
    46   25   43 1
    47   26   44 1
    48   26   45 1
@<TRIPOS>PROPERTY_DATA
  Total_Score	| 10.4197
  Crash		| -0.6476
  Polar		| 6.3421
  FragIndex	| 1
  FragRMSD	| 0.349

