@<TRIPOS>MOLECULE
BindingDB_15245
 45 46 0 0 0
SMALL
NO_CHARGES


@<TRIPOS>ATOM
1    C        15.7133    0.6991    9.5031  C     
2    O        16.1000    0.1150   10.5204  O     
3    N        16.5675    0.9835    8.5218  N     
4    N        14.4479    1.0621    9.3756  N     
5    C        17.8831    0.6056    8.3653  C     
6    C        18.4784   -0.5534    8.9419  C     
7    C        18.6841    1.4087    7.5249  C     
8    C        19.8281   -0.8761    8.6990  C     
9    C        20.0253    1.0731    7.2522  C     
10   C        20.6053   -0.0631    7.8524  C     
11   Cl       20.5025   -2.2590    9.4224  Cl    
12   N        13.5080   -0.6729   10.6790  N     
13   N        11.1420    0.5801   10.8833  N     
14   C        13.4039    0.5596   10.1036  C     
15   C        11.3052   -0.6308   11.4933  C     
16   C        12.1392    1.1913   10.1874  C     
17   C        12.5468   -1.2933   11.4004  C     
18   O        12.6989   -2.5571   11.8970  O     
19   C        13.6101   -3.8090   13.7619  C     
20   C        13.9672   -2.9601   12.4849  C     
21   C        14.8872   -3.8001   11.5331  C     
22   N        13.8777   -3.2005   15.1050  N     
23   C        14.9324   -3.9086   15.9002  C     
24   C        14.0380   -1.7237   15.1429  C     
25   H        16.1891    1.5007    7.7939  H     
26   H        14.2233    1.6722    8.6508  H     
27   H        17.9330   -1.1780    9.5333  H     
28   H        18.2899    2.2698    7.1199  H     
29   H        20.5864    1.6488    6.6205  H     
30   H        21.5876   -0.2803    7.6586  H     
31   H        10.5270   -1.0637   11.9860  H     
32   H        11.9571    2.1194    9.7598  H     
33   H        12.5492   -4.0436   13.7105  H     
34   H        14.1397   -4.7699   13.7344  H     
35   H        14.5346   -2.0842   12.8245  H     
36   H        14.2850   -4.5579   10.9950  H     
37   H        15.6747   -4.2977   12.1000  H     
38   H        15.3955   -3.1479   10.8122  H     
39   H        13.0038   -3.3786   15.6198  H     
40   H        14.7730   -4.9882   15.9071  H     
41   H        14.8826   -3.5927   16.9559  H     
42   H        15.9485   -3.6964   15.5004  H     
43   H        15.0555   -1.4389   14.8697  H     
44   H        13.8045   -1.3440   16.1443  H     
45   H        13.3450   -1.2217   14.4685  H     
@<TRIPOS>BOND
     1    1    2 2
     2    1    3 am
     3    1    4 am
     4    3    5 1
     5    4   14 1
     6    5    6 2
     7    5    7 1
     8    6    8 1
     9    7    9 2
    10    8   10 2
    11    8   11 1
    12    9   10 1
    13   12   14 1
    14   12   17 2
    15   13   15 2
    16   13   16 1
    17   14   16 2
    18   15   17 1
    19   17   18 1
    20   18   20 1
    21   19   20 1
    22   19   22 1
    23   20   21 1
    24   22   23 1
    25   22   24 1
    26    3   25 1
    27    4   26 1
    28    6   27 1
    29    7   28 1
    30    9   29 1
    31   10   30 1
    32   15   31 1
    33   16   32 1
    34   19   33 1
    35   19   34 1
    36   20   35 1
    37   21   36 1
    38   21   37 1
    39   21   38 1
    40   22   39 1
    41   23   40 1
    42   23   41 1
    43   23   42 1
    44   24   43 1
    45   24   44 1
    46   24   45 1
@<TRIPOS>PROPERTY_DATA
  Total_Score	| 5.7360
  Crash		| -1.6094
  Polar		| 2.6706
  FragIndex	| 1
  FragRMSD	| 0.505

