@<TRIPOS>MOLECULE
BindingDB_15262
 52 54 0 0 0
SMALL
NO_CHARGES


@<TRIPOS>ATOM
1    C        15.7224    0.8502    8.9721  C     
2    O        16.1782    1.7644    8.3082  O     
3    N        16.4525   -0.2271    9.2812  N     
4    N        14.4825    1.1346    9.3455  N     
5    C        17.7604   -0.5627    8.9331  C     
6    C        18.5757    0.1853    8.0375  C     
7    C        18.3423   -1.7320    9.4992  C     
8    C        19.8981   -0.1852    7.7316  C     
9    C        19.6375   -2.1505    9.1104  C     
10   C        20.4343   -1.3818    8.2439  C     
11   Cl       20.8265    0.8667    6.7808  Cl    
12   N        13.6171   -0.8367   10.4345  N     
13   N        11.4630    0.5980   11.2369  N     
14   C        13.5597    0.4779   10.0936  C     
15   C        11.5365   -0.7078   11.5932  C     
16   C        12.4263    1.2103   10.5053  C     
17   C        12.6577   -1.4586   11.1784  C     
18   O        12.7320   -2.8009   11.4346  O     
19   O        17.6397   -2.5378   10.3612  O     
20   C        18.1697   -2.6829   11.7036  C     
21   C        15.0911   -3.3038   11.9019  C     
22   C        13.6574   -3.1905   12.4634  C     
23   C        17.5529   -3.9380   12.3771  C     
24   C        16.1295   -3.7456   12.9597  C     
25   C        10.5663   -1.2213   12.2883  C     
26   N         9.7099   -1.6815   12.8990  N     
27   O        21.7583   -1.7180    8.0837  O     
28   C        22.1775   -2.6523    7.0577  C     
29   C        21.6088   -4.0875    7.2148  C     
30   C        21.9850   -2.1018    5.6230  C     
31   H        16.0028   -0.8723    9.8479  H     
32   H        14.1709    2.0027    9.0349  H     
33   H        18.2338    1.0310    7.5914  H     
34   H        20.0268   -3.0126    9.4976  H     
35   H        12.3166    2.1994   10.2705  H     
36   H        19.2548   -2.8242   11.6994  H     
37   H        17.9560   -1.7853   12.2921  H     
38   H        15.0912   -4.0087   11.0656  H     
39   H        15.3858   -2.3254   11.5291  H     
40   H        13.6238   -2.5104   13.3211  H     
41   H        13.3442   -4.1768   12.8119  H     
42   H        17.5376   -4.7595   11.6552  H     
43   H        18.2044   -4.2502   13.1968  H     
44   H        16.1718   -2.9997   13.7591  H     
45   H        15.8082   -4.6931   13.4020  H     
46   H        23.2578   -2.7425    7.1997  H     
47   H        21.7906   -4.4529    8.2265  H     
48   H        22.0954   -4.7681    6.5126  H     
49   H        20.5355   -4.0999    7.0227  H     
50   H        20.9228   -2.0129    5.3842  H     
51   H        22.4499   -2.7677    4.8915  H     
52   H        22.4613   -1.1201    5.5354  H     
@<TRIPOS>BOND
     1    1    2 2
     2    1    3 1
     3    1    4 1
     4    3    5 1
     5    4   14 1
     6    5    6 1
     7    5    7 2
     8    6    8 2
     9    7    9 1
    10    7   19 1
    11    8   10 1
    12    8   11 1
    13    9   10 2
    14   10   27 1
    15   12   14 1
    16   12   17 2
    17   13   15 2
    18   13   16 1
    19   14   16 2
    20   15   17 1
    21   15   25 1
    22   17   18 1
    23   18   22 1
    24   19   20 1
    25   20   23 1
    26   21   22 1
    27   21   24 1
    28   23   24 1
    29   25   26 3
    30   27   28 1
    31   28   29 1
    32   28   30 1
    33    3   31 1
    34    4   32 1
    35    6   33 1
    36    9   34 1
    37   16   35 1
    38   20   36 1
    39   20   37 1
    40   21   38 1
    41   21   39 1
    42   22   40 1
    43   22   41 1
    44   23   42 1
    45   23   43 1
    46   24   44 1
    47   24   45 1
    48   28   46 1
    49   29   47 1
    50   29   48 1
    51   29   49 1
    52   30   50 1
    53   30   51 1
    54   30   52 1
@<TRIPOS>PROPERTY_DATA
  Total_Score	| 7.8739
  Crash		| -1.0499
  Polar		| 3.3346
  FragIndex	| 1
  FragRMSD	| 0.734

