@<TRIPOS>MOLECULE
BindingDB_15258
 58 60 0 0 0
SMALL
NO_CHARGES


@<TRIPOS>ATOM
1    C        15.7887    0.8194    9.1568  C     
2    O        16.2047    1.5803    8.3011  O     
3    N        16.6033   -0.0356    9.7846  N     
4    N        14.4820    0.9772    9.3196  N     
5    C        17.9495   -0.2548    9.5274  C     
6    C        18.8071    0.7574    9.0109  C     
7    C        18.5224   -1.5376    9.7503  C     
8    C        20.1132    0.4774    8.5690  C     
9    C        19.8275   -1.8221    9.2552  C     
10   C        20.6334   -0.8285    8.6818  C     
11   Cl       21.0218    1.7095    7.8331  Cl    
12   N        13.7635   -0.6354   10.9854  N     
13   N        11.2221    0.2763   10.6878  N     
14   C        13.5414    0.3745   10.0959  C     
15   C        11.4540   -0.7402   11.5604  C     
16   C        12.2125    0.8406    9.9624  C     
17   C        12.7761   -1.2076   11.7345  C     
18   O        13.0026   -2.2124   12.6484  O     
19   O        17.7943   -2.5071   10.4191  O     
20   C        18.5116   -3.2017   11.4874  C     
21   C        15.2582   -3.1413   12.4540  C     
22   C        14.2812   -2.2882   13.2949  C     
23   C        17.6301   -4.1477   12.3315  C     
24   C        16.5764   -3.4303   13.2161  C     
25   C        10.4311   -1.2632   12.1809  C     
26   N         9.5281   -1.7322   12.7130  N     
27   O        21.8656   -1.1631    8.1700  O     
28   C        23.0225   -0.7078    8.9090  C     
29   C        23.2100   -1.4738   10.2467  C     
30   N        24.5993   -1.4824   10.8230  N     
31   C        25.6096   -2.1486    9.9545  C     
32   C        25.0549   -0.1526   11.3050  C     
33   H        16.1780   -0.6489   10.4042  H     
34   H        14.1113    1.6781    8.7512  H     
35   H        18.4869    1.7163    8.9365  H     
36   H        20.2064   -2.7729    9.2997  H     
37   H        11.9720    1.5942    9.3119  H     
38   H        19.2932   -3.8436   11.0518  H     
39   H        19.0034   -2.4813   12.1662  H     
40   H        14.7712   -4.0929   12.2105  H     
41   H        15.4668   -2.6228   11.5175  H     
42   H        14.6981   -1.2960   13.4927  H     
43   H        14.1174   -2.7809   14.2547  H     
44   H        17.1393   -4.8733   11.6731  H     
45   H        18.2920   -4.7166   12.9958  H     
46   H        16.9962   -2.4979   13.6119  H     
47   H        16.3431   -4.0717   14.0667  H     
48   H        23.8928   -0.9083    8.2821  H     
49   H        22.9919    0.3676    9.0846  H     
50   H        22.5248   -1.0692   10.9951  H     
51   H        22.9121   -2.5124   10.0702  H     
52   H        24.5391   -2.0636   11.6615  H     
53   H        25.2827   -3.1420    9.6619  H     
54   H        26.5588   -2.2583   10.4918  H     
55   H        25.7777   -1.5612    9.0510  H     
56   H        25.1532    0.5541   10.4800  H     
57   H        26.0302   -0.2329   11.7930  H     
58   H        24.3486    0.2366   12.0424  H     
@<TRIPOS>BOND
     1    1    2 2
     2    1    3 1
     3    1    4 1
     4    3    5 1
     5    4   14 1
     6    5    6 1
     7    5    7 2
     8    6    8 2
     9    7    9 1
    10    7   19 1
    11    8   10 1
    12    8   11 1
    13    9   10 2
    14   10   27 1
    15   12   14 1
    16   12   17 2
    17   13   15 2
    18   13   16 1
    19   14   16 2
    20   15   17 1
    21   15   25 1
    22   17   18 1
    23   18   22 1
    24   19   20 1
    25   20   23 1
    26   21   22 1
    27   21   24 1
    28   23   24 1
    29   25   26 3
    30   27   28 1
    31   28   29 1
    32   29   30 1
    33   30   31 1
    34   30   32 1
    35    3   33 1
    36    4   34 1
    37    6   35 1
    38    9   36 1
    39   16   37 1
    40   20   38 1
    41   20   39 1
    42   21   40 1
    43   21   41 1
    44   22   42 1
    45   22   43 1
    46   23   44 1
    47   23   45 1
    48   24   46 1
    49   24   47 1
    50   28   48 1
    51   28   49 1
    52   29   50 1
    53   29   51 1
    54   30   52 1
    55   31   53 1
    56   31   54 1
    57   31   55 1
    58   32   56 1
    59   32   57 1
    60   32   58 1
@<TRIPOS>PROPERTY_DATA
  Total_Score	| 8.4834
  Crash		| -0.9774
  Polar		| 4.2102
  FragIndex	| 1
  FragRMSD	| 0.799

