@<TRIPOS>MOLECULE
BindingDB_50359811
 45 48 0 0 0
SMALL
NO_CHARGES


@<TRIPOS>ATOM
1    C        20.5144   -0.9658    8.2528  C     
2    C        19.8559    0.1470    7.8640  C     
3    C        18.6036   -1.7979    9.3778  C     
4    C        19.9008   -1.9244    9.0077  C     
5    C        17.8629   -0.6704    8.9987  C     
6    C        18.5154    0.3321    8.2260  C     
7    C        17.7823    1.4733    7.8550  C     
8    N        16.4855    1.5849    8.2293  N     
9    C        15.8014    0.6608    8.9535  C     
10   C        16.5042   -0.5019    9.3589  C     
11   N        14.5045    1.0000    9.1953  N     
12   C        13.5281    0.3634    9.9032  C     
13   C        12.2415    0.9377    9.9858  C     
14   N        11.2771    0.3185   10.7142  N     
15   C        11.4959   -0.8370   11.3931  C     
16   C        12.7859   -1.4118   11.3350  C     
17   N        13.7295   -0.7891   10.5868  N     
18   C        10.5345   -1.3764   12.0674  C     
19   N         9.6854   -1.8617   12.6725  N     
20   O        13.1437   -2.5572   11.9962  O     
21   C        13.8677   -2.3279   13.2287  C     
22   C        12.9827   -2.7436   14.4332  C     
23   N        13.7231   -2.7152   15.7118  N     
24   C        15.0044   -3.4580   15.7245  C     
25   C        15.9285   -3.0668   14.5435  C     
26   C        15.1719   -3.1671   13.1896  C     
27   H        21.4649   -1.0918    7.9859  H     
28   H        20.3323    0.8312    7.3177  H     
29   H        18.1830   -2.5156    9.9227  H     
30   H        20.4094   -2.7289    9.2897  H     
31   H        18.2096    2.2247    7.3094  H     
32   H        16.0490   -1.2346    9.8994  H     
33   H        14.2251    1.8458    8.8006  H     
34   H        12.0199    1.8154    9.5115  H     
35   H        14.1785   -1.2844   13.3724  H     
36   H        12.1464   -2.0466   14.5339  H     
37   H        12.5712   -3.7441   14.2766  H     
38   H        13.9053   -1.7387   15.9514  H     
39   H        13.1116   -3.1204   16.4258  H     
40   H        15.5137   -3.2386   16.6649  H     
41   H        14.7986   -4.5320   15.6935  H     
42   H        16.2804   -2.0400   14.6854  H     
43   H        16.7972   -3.7280   14.5259  H     
44   H        14.9341   -4.2160   12.9746  H     
45   H        15.8107   -2.7914   12.3826  H     
@<TRIPOS>BOND
     1    1    2 2
     2    1    4 1
     3    2    6 1
     4    3    4 2
     5    3    5 1
     6    5    6 1
     7    5   10 2
     8    6    7 2
     9    7    8 1
    10    8    9 2
    11    9   10 1
    12    9   11 1
    13   11   12 1
    14   12   13 2
    15   12   17 1
    16   13   14 1
    17   14   15 2
    18   15   16 1
    19   15   18 1
    20   16   17 2
    21   16   20 1
    22   18   19 3
    23   20   21 1
    24   21   22 1
    25   21   26 1
    26   22   23 1
    27   23   24 1
    28   24   25 1
    29   25   26 1
    30    1   27 1
    31    2   28 1
    32    3   29 1
    33    4   30 1
    34    7   31 1
    35   10   32 1
    36   11   33 1
    37   13   34 1
    38   21   35 1
    39   22   36 1
    40   22   37 1
    41   23   38 1
    42   23   39 1
    43   24   40 1
    44   24   41 1
    45   25   42 1
    46   25   43 1
    47   26   44 1
    48   26   45 1
@<TRIPOS>PROPERTY_DATA
  Total_Score	| 9.8385
  Crash		| -0.6259
  Polar		| 4.9766
  FragIndex	| 1
  FragRMSD	| 0.794

