@<TRIPOS>MOLECULE
BindingDB_50359812
 48 51 0 0 0
SMALL
NO_CHARGES


@<TRIPOS>ATOM
1    C        20.4922   -1.0139    8.6605  C     
2    C        19.8918    0.0782    8.1315  C     
3    C        18.4724   -1.7832    9.6109  C     
4    C        19.7914   -1.9315    9.3886  C     
5    C        17.7933   -0.6686    9.1130  C     
6    C        18.5101    0.2987    8.3487  C     
7    C        17.7862    1.4198    7.8852  C     
8    N        16.4652    1.5594    8.1903  N     
9    C        15.7469    0.6740    8.9239  C     
10   C        16.4210   -0.4769    9.3888  C     
11   N        14.4514    1.0203    9.1671  N     
12   C        13.4834    0.4042    9.9204  C     
13   C        12.2685    1.0743   10.1798  C     
14   N        11.3250    0.4678   10.9458  N     
15   C        11.4916   -0.7719   11.4812  C     
16   C        12.6928   -1.4757   11.2220  C     
17   N        13.6166   -0.8439   10.4486  N     
18   C        10.5313   -1.2691   12.2065  C     
19   N         9.6783   -1.6995   12.8474  N     
20   O        12.8658   -2.7803   11.6422  O     
21   C        14.1941   -3.2826   11.9169  C     
22   C        14.5711   -3.2956   13.4256  C     
23   C        14.0785   -2.0184   14.1718  C     
24   C        14.4849   -2.0410   15.6654  C     
25   N        14.0557   -3.3031   16.3096  N     
26   C        14.5267   -4.5417   15.6507  C     
27   C        14.0815   -4.5775   14.1672  C     
28   Cl       20.8319    1.1114    7.2206  Cl    
29   H        21.4614   -1.1709    8.5181  H     
30   H        17.9847   -2.4801   10.1313  H     
31   H        20.2604   -2.7245    9.7612  H     
32   H        18.2390    2.1569    7.3404  H     
33   H        15.9401   -1.1716    9.9492  H     
34   H        14.1722    1.8683    8.7787  H     
35   H        12.0882    2.0106    9.7966  H     
36   H        14.2338   -4.3061   11.5338  H     
37   H        14.9603   -2.7388   11.3742  H     
38   H        15.6647   -3.3073   13.4800  H     
39   H        14.4922   -1.1206   13.6972  H     
40   H        12.9848   -1.9629   14.1210  H     
41   H        15.5679   -1.9134   15.7684  H     
42   H        13.9956   -1.2096   16.1805  H     
43   H        14.3923   -3.2980   17.2697  H     
44   H        13.0329   -3.3225   16.3269  H     
45   H        15.6162   -4.6033   15.7107  H     
46   H        14.1035   -5.4009   16.1764  H     
47   H        12.9878   -4.6420   14.1105  H     
48   H        14.5051   -5.4710   13.6926  H     
@<TRIPOS>BOND
     1    1    2 2
     2    1    4 1
     3    2    6 1
     4    2   28 1
     5    3    4 2
     6    3    5 1
     7    5    6 1
     8    5   10 2
     9    6    7 2
    10    7    8 1
    11    8    9 2
    12    9   10 1
    13    9   11 1
    14   11   12 1
    15   12   13 2
    16   12   17 1
    17   13   14 1
    18   14   15 2
    19   15   16 1
    20   15   18 1
    21   16   17 2
    22   16   20 1
    23   18   19 3
    24   20   21 1
    25   21   22 1
    26   22   23 1
    27   22   27 1
    28   23   24 1
    29   24   25 1
    30   25   26 1
    31   26   27 1
    32    1   29 1
    33    3   30 1
    34    4   31 1
    35    7   32 1
    36   10   33 1
    37   11   34 1
    38   13   35 1
    39   21   36 1
    40   21   37 1
    41   22   38 1
    42   23   39 1
    43   23   40 1
    44   24   41 1
    45   24   42 1
    46   25   43 1
    47   25   44 1
    48   26   45 1
    49   26   46 1
    50   27   47 1
    51   27   48 1
@<TRIPOS>PROPERTY_DATA
  Total_Score	| 11.0617
  Crash		| -0.6958
  Polar		| 6.1894
  FragIndex	| 1
  FragRMSD	| 0.262

