@<TRIPOS>MOLECULE
BindingDB_50359809
 44 46 0 0 0
SMALL
NO_CHARGES


@<TRIPOS>ATOM
1    C        20.4545   -1.1452    8.3909  C     
2    C        19.8613    0.0001    7.9912  C     
3    C        18.5034   -1.8825    9.5040  C     
4    C        19.7859   -2.0725    9.1404  C     
5    C        17.8156   -0.7367    9.0904  C     
6    C        18.5126    0.2382    8.3150  C     
7    C        17.7892    1.3813    7.9087  C     
8    N        16.4850    1.5270    8.2468  N     
9    C        15.7798    0.6311    8.9816  C     
10   C        16.4530   -0.5373    9.4166  C     
11   N        14.4869    0.9917    9.2091  N     
12   C        13.5393    0.4061    9.9946  C     
13   C        12.2135    0.8902    9.9840  C     
14   N        11.2794    0.2817   10.7624  N     
15   C        11.5676   -0.7602   11.5829  C     
16   C        12.9013   -1.2239   11.6442  C     
17   N        13.8125   -0.6203   10.8393  N     
18   C        10.6087   -1.3147   12.2524  C     
19   N         9.7667   -1.8228   12.8472  N     
20   O        13.2892   -2.2717   12.4502  O     
21   C        14.3763   -2.0092   13.3659  C     
22   Cl       20.7875    1.0884    7.1289  Cl    
23   C        13.9050   -2.1392   14.8349  C     
24   N        13.8497   -3.5143   15.4215  N     
25   C        13.3657   -4.5206   14.4430  C     
26   C        15.1037   -3.9601   16.1068  C     
27   H        21.4033   -1.3298    8.1504  H     
28   H        18.0535   -2.5692   10.0634  H     
29   H        20.2606   -2.8995    9.4291  H     
30   H        18.2212    2.1220    7.3558  H     
31   H        15.9657   -1.2615    9.9437  H     
32   H        14.1995    1.8042    8.7568  H     
33   H        11.9403    1.6807    9.3965  H     
34   H        15.1737   -2.7264   13.1749  H     
35   H        14.8053   -1.0046   13.2369  H     
36   H        14.5491   -1.5116   15.4639  H     
37   H        12.9019   -1.7032   14.9034  H     
38   H        13.1400   -3.4606   16.1536  H     
39   H        12.4561   -4.1750   13.9555  H     
40   H        13.1338   -5.4500   14.9616  H     
41   H        14.1198   -4.7215   13.6845  H     
42   H        15.9415   -4.0764   15.4085  H     
43   H        14.9400   -4.9214   16.6037  H     
44   H        15.4036   -3.2475   16.8838  H     
@<TRIPOS>BOND
     1    1    2 2
     2    1    4 1
     3    2    6 1
     4    2   22 1
     5    3    4 2
     6    3    5 1
     7    5    6 1
     8    5   10 2
     9    6    7 2
    10    7    8 1
    11    8    9 2
    12    9   10 1
    13    9   11 1
    14   11   12 1
    15   12   13 2
    16   12   17 1
    17   13   14 1
    18   14   15 2
    19   15   16 1
    20   15   18 1
    21   16   17 2
    22   16   20 1
    23   18   19 3
    24   20   21 1
    25   21   23 1
    26   23   24 1
    27   24   25 1
    28   24   26 1
    29    1   27 1
    30    3   28 1
    31    4   29 1
    32    7   30 1
    33   10   31 1
    34   11   32 1
    35   13   33 1
    36   21   34 1
    37   21   35 1
    38   23   36 1
    39   23   37 1
    40   24   38 1
    41   25   39 1
    42   25   40 1
    43   25   41 1
    44   26   42 1
    45   26   43 1
    46   26   44 1
@<TRIPOS>PROPERTY_DATA
  Total_Score	| 9.5839
  Crash		| -0.6783
  Polar		| 5.4583
  FragIndex	| 1
  FragRMSD	| 0.841

