@<TRIPOS>MOLECULE
BindingDB_50359815
 28 30 0 0 0
SMALL
NO_CHARGES


@<TRIPOS>ATOM
1    C        20.4691   -0.9840    8.3341  C     
2    C        19.8002    0.1101    7.9161  C     
3    C        18.5756   -1.7959    9.5004  C     
4    C        19.8616   -1.9293    9.1155  C     
5    C        17.8260   -0.6808    9.0992  C     
6    C        18.4625    0.2968    8.2821  C     
7    C        17.7185    1.4219    7.8788  C     
8    N        16.4274    1.5452    8.2700  N     
9    C        15.7665    0.6467    9.0455  C     
10   C        16.4757   -0.5010    9.4782  C     
11   N        14.4746    0.9828    9.3021  N     
12   C        13.5190    0.3722   10.0595  C     
13   C        12.2139    0.9090   10.0475  C     
14   N        11.2470    0.3344   10.8077  N     
15   C        11.4796   -0.7493   11.5923  C     
16   C        12.7773   -1.2962   11.6140  C     
17   N        13.7378   -0.7126   10.8530  N     
18   C        10.5108   -1.2496   12.2958  C     
19   N         9.6521   -1.6940   12.9155  N     
20   H        21.4191   -1.1073    8.0682  H     
21   H        20.2651    0.7812    7.3477  H     
22   H        18.1625   -2.5030   10.0647  H     
23   H        20.3778   -2.7292    9.4028  H     
24   H        18.1355    2.1556    7.3024  H     
25   H        16.0256   -1.2100   10.0539  H     
26   H        14.1751    1.8022    8.8695  H     
27   H        11.9790    1.7226    9.4767  H     
28   H        13.0103   -2.1107   12.1873  H     
@<TRIPOS>BOND
     1    1    2 2
     2    1    4 1
     3    2    6 1
     4    3    4 2
     5    3    5 1
     6    5    6 1
     7    5   10 2
     8    6    7 2
     9    7    8 1
    10    8    9 2
    11    9   10 1
    12    9   11 1
    13   11   12 1
    14   12   13 2
    15   12   17 1
    16   13   14 1
    17   14   15 2
    18   15   16 1
    19   15   18 1
    20   16   17 2
    21   18   19 3
    22    1   20 1
    23    2   21 1
    24    3   22 1
    25    4   23 1
    26    7   24 1
    27   10   25 1
    28   11   26 1
    29   13   27 1
    30   16   28 1
@<TRIPOS>PROPERTY_DATA
  Total_Score	| 7.0743
  Crash		| -0.3485
  Polar		| 3.3420
  FragIndex	| 1
  FragRMSD	| 0.094

