@<TRIPOS>MOLECULE
BindingDB_50359814
 48 51 0 0 0
SMALL
NO_CHARGES


@<TRIPOS>ATOM
1    C        20.4784   -0.9980    8.3044  C     
2    C        19.8354    0.1172    7.8977  C     
3    C        18.5512   -1.7970    9.4284  C     
4    C        19.8422   -1.9442    9.0625  C     
5    C        17.8253   -0.6655    9.0296  C     
6    C        18.4888    0.3169    8.2433  C     
7    C        17.7651    1.4629    7.8563  C     
8    N        16.4680    1.5959    8.2334  N     
9    C        15.7815    0.6952    8.9806  C     
10   C        16.4717   -0.4699    9.3959  C     
11   N        14.4935    1.0514    9.2373  N     
12   C        13.5140    0.4173    9.9444  C     
13   C        12.2776    1.0713   10.1539  C     
14   N        11.3060    0.4517   10.8715  N     
15   C        11.4612   -0.7967   11.3939  C     
16   C        12.6797   -1.4856   11.1755  C     
17   N        13.6345   -0.8375   10.4552  N     
18   C        10.4828   -1.3137   12.0760  C     
19   N         9.6213   -1.7705   12.6795  N     
20   O        12.8359   -2.7978   11.5677  O     
21   C        14.1584   -3.3235   11.8218  C     
22   C        14.6026   -3.2522   13.3174  C     
23   C        14.0260   -2.0147   14.0825  C     
24   C        14.4622   -1.9943   15.5664  C     
25   N        14.1406   -3.2788   16.2311  N     
26   C        14.7351   -4.4642   15.5773  C     
27   C        14.2804   -4.5642   14.0999  C     
28   H        21.4335   -1.1310    8.0617  H     
29   H        20.3216    0.7906    7.3530  H     
30   H        18.1183   -2.5036    9.9786  H     
31   H        20.3442   -2.7584    9.3500  H     
32   H        18.2003    2.1969    7.2936  H     
33   H        16.0120   -1.1754    9.9567  H     
34   H        14.2224    1.9061    8.8622  H     
35   H        12.1017    2.0091    9.7847  H     
36   H        14.1370   -4.3660   11.5006  H     
37   H        14.9159   -2.8512   11.1989  H     
38   H        15.6935   -3.1513   13.3215  H     
39   H        14.3607   -1.0918   13.5988  H     
40   H        12.9300   -2.0380   14.0526  H     
41   H        15.5370   -1.7934   15.6387  H     
42   H        13.9365   -1.1953   16.0906  H     
43   H        14.4710   -3.2354   17.1926  H     
44   H        13.1252   -3.3944   16.2427  H     
45   H        15.8272   -4.4092   15.6308  H     
46   H        14.4134   -5.3565   16.1175  H     
47   H        13.2004   -4.7610   14.0600  H     
48   H        14.7961   -5.4062   13.6356  H     
@<TRIPOS>BOND
     1    1    2 2
     2    1    4 1
     3    2    6 1
     4    3    4 2
     5    3    5 1
     6    5    6 1
     7    5   10 2
     8    6    7 2
     9    7    8 1
    10    8    9 2
    11    9   10 1
    12    9   11 1
    13   11   12 1
    14   12   13 2
    15   12   17 1
    16   13   14 1
    17   14   15 2
    18   15   16 1
    19   15   18 1
    20   16   17 2
    21   16   20 1
    22   18   19 3
    23   20   21 1
    24   21   22 1
    25   22   23 1
    26   22   27 1
    27   23   24 1
    28   24   25 1
    29   25   26 1
    30   26   27 1
    31    1   28 1
    32    2   29 1
    33    3   30 1
    34    4   31 1
    35    7   32 1
    36   10   33 1
    37   11   34 1
    38   13   35 1
    39   21   36 1
    40   21   37 1
    41   22   38 1
    42   23   39 1
    43   23   40 1
    44   24   41 1
    45   24   42 1
    46   25   43 1
    47   25   44 1
    48   26   45 1
    49   26   46 1
    50   27   47 1
    51   27   48 1
@<TRIPOS>PROPERTY_DATA
  Total_Score	| 10.7311
  Crash		| -0.9015
  Polar		| 6.3368
  FragIndex	| 1
  FragRMSD	| 0.549

