@<TRIPOS>MOLECULE
BindingDB_15251
 43 45 0 0 0
SMALL
NO_CHARGES


@<TRIPOS>ATOM
1    C        15.7987    0.8676    9.1027  C     
2    O        16.3947    1.7465    8.4950  O     
3    N        16.4242   -0.2476    9.4807  N     
4    N        14.5499    1.1963    9.3821  N     
5    C        17.7099   -0.6636    9.1795  C     
6    C        18.3767   -0.2819    7.9817  C     
7    C        18.3829   -1.5429   10.0791  C     
8    C        19.6946   -0.6876    7.7059  C     
9    C        19.7091   -1.9533    9.7766  C     
10   C        20.3636   -1.5336    8.6098  C     
11   Cl       20.4714   -0.1646    6.2959  Cl    
12   N        13.6344   -0.7697   10.4492  N     
13   N        11.4441    0.6558   11.1510  N     
14   C        13.5849    0.5411   10.0849  C     
15   C        11.5181   -0.6436   11.5207  C     
16   C        12.4314    1.2677   10.4484  C     
17   C        12.6512   -1.4010   11.1559  C     
18   O        12.6828   -2.7339   11.4810  O     
19   O        17.6939   -1.9427   11.2222  O     
20   C        18.2862   -2.8935   12.1307  C     
21   C        14.8855   -2.9559   12.6036  C     
22   C        13.9319   -3.4458   11.4919  C     
23   C        17.3555   -3.2822   13.3048  C     
24   C        16.0337   -3.9634   12.8730  C     
25   C        10.5257   -1.1541   12.1865  C     
26   N         9.6474   -1.6340   12.7621  N     
27   O        21.6281   -1.9650    8.3722  O     
28   H        15.9350   -0.8096   10.0960  H     
29   H        14.2700    2.0730    9.0572  H     
30   H        17.8971    0.2834    7.2861  H     
31   H        20.2231   -2.5705   10.4043  H     
32   H        12.3268    2.2551   10.2027  H     
33   H        18.5490   -3.8076   11.5947  H     
34   H        19.1957   -2.4609   12.5505  H     
35   H        15.2824   -1.9875   12.2982  H     
36   H        14.3227   -2.8043   13.5235  H     
37   H        13.6839   -4.4952   11.6690  H     
38   H        14.4189   -3.3890   10.5092  H     
39   H        17.9029   -3.9991   13.9339  H     
40   H        17.1471   -2.3975   13.9217  H     
41   H        15.7111   -4.6461   13.6632  H     
42   H        16.2339   -4.5726   11.9927  H     
43   H        21.5500   -2.5261    7.5594  H     
@<TRIPOS>BOND
     1    1    2 2
     2    1    3 1
     3    1    4 1
     4    3    5 1
     5    4   14 1
     6    5    6 1
     7    5    7 2
     8    6    8 2
     9    7    9 1
    10    7   19 1
    11    8   10 1
    12    8   11 1
    13    9   10 2
    14   10   27 1
    15   12   14 1
    16   12   17 2
    17   13   15 2
    18   13   16 1
    19   14   16 2
    20   15   17 1
    21   15   25 1
    22   17   18 1
    23   18   22 1
    24   19   20 1
    25   20   23 1
    26   21   22 1
    27   21   24 1
    28   23   24 1
    29   25   26 3
    30    3   28 1
    31    4   29 1
    32    6   30 1
    33    9   31 1
    34   16   32 1
    35   20   33 1
    36   20   34 1
    37   21   35 1
    38   21   36 1
    39   22   37 1
    40   22   38 1
    41   23   39 1
    42   23   40 1
    43   24   41 1
    44   24   42 1
    45   27   43 1
@<TRIPOS>PROPERTY_DATA
  Total_Score	| 5.2470
  Crash		| -2.9748
  Polar		| 3.3566
  FragIndex	| 1
  FragRMSD	| 0.822

