@<TRIPOS>MOLECULE
BindingDB_50359813
 28 30 0 0 0
SMALL
NO_CHARGES


@<TRIPOS>ATOM
1    C        20.4398   -1.0775    8.4140  C     
2    C        19.8320    0.0531    7.9955  C     
3    C        18.4860   -1.8404    9.5078  C     
4    C        19.7768   -2.0146    9.1557  C     
5    C        17.7887   -0.6944    9.1033  C     
6    C        18.4782    0.2834    8.3230  C     
7    C        17.7497    1.4291    7.9345  C     
8    N        16.4516    1.5717    8.2982  N     
9    C        15.7534    0.6688    9.0382  C     
10   C        16.4319   -0.5045    9.4473  C     
11   N        14.4634    1.0186    9.2851  N     
12   C        13.5119    0.4159   10.0558  C     
13   C        12.1786    0.8710    9.9773  C     
14   N        11.2299    0.2967   10.7598  N     
15   C        11.5029   -0.7053   11.6369  C     
16   C        12.8309   -1.1623   11.7299  C     
17   N        13.7725   -0.5828   10.9454  N     
18   C        10.5454   -1.2147   12.3487  C     
19   N         9.7001   -1.6715   12.9768  N     
20   Cl       20.7399    1.1392    7.1050  Cl    
21   H        21.3916   -1.2465    8.1875  H     
22   H        18.0336   -2.5428   10.0445  H     
23   H        20.2488   -2.8431    9.4378  H     
24   H        18.1781    2.1805    7.3889  H     
25   H        15.9533   -1.2363    9.9700  H     
26   H        14.1636    1.8367    8.8457  H     
27   H        11.9100    1.6231    9.3404  H     
28   H        13.0987   -1.9083   12.3754  H     
@<TRIPOS>BOND
     1    1    2 2
     2    1    4 1
     3    2    6 1
     4    2   20 1
     5    3    4 2
     6    3    5 1
     7    5    6 1
     8    5   10 2
     9    6    7 2
    10    7    8 1
    11    8    9 2
    12    9   10 1
    13    9   11 1
    14   11   12 1
    15   12   13 2
    16   12   17 1
    17   13   14 1
    18   14   15 2
    19   15   16 1
    20   15   18 1
    21   16   17 2
    22   18   19 3
    23    1   21 1
    24    3   22 1
    25    4   23 1
    26    7   24 1
    27   10   25 1
    28   11   26 1
    29   13   27 1
    30   16   28 1
@<TRIPOS>PROPERTY_DATA
  Total_Score	| 7.2549
  Crash		| -0.4811
  Polar		| 3.3900
  FragIndex	| 1
  FragRMSD	| 0.122

