@<TRIPOS>MOLECULE
BindingDB_50180123
 32 32 0 0 0
SMALL
NO_CHARGES


@<TRIPOS>ATOM
1    S         6.8200  -20.2966    0.2663  S     
2    C         5.8205  -21.0074    1.6052  C     
3    C         5.8519  -20.0158    2.6691  C     
4    C         6.5055  -18.8736    2.3932  C     
5    C         7.0000  -18.8571    1.1484  C     
6    O         7.5785  -17.8126    0.5653  O     
7    C         4.3705  -21.3286    1.1132  C     
8    C         6.4932  -22.3292    2.0601  C     
9    O         5.2229  -20.1863    3.7147  O     
10   C         6.6342  -17.7774    3.3455  C     
11   C         3.5335  -20.1300    0.5460  C     
12   C         3.0430  -20.2280   -0.9309  C     
13   C         4.2080  -20.2854   -1.9652  C     
14   C         2.0291  -21.3920   -1.1299  C     
15   H         6.9198  -17.0898    0.5977  H     
16   H         4.4323  -22.1337    0.3696  H     
17   H         3.8086  -21.7518    1.9548  H     
18   H         6.5053  -23.0562    1.2499  H     
19   H         5.9567  -22.7638    2.9061  H     
20   H         7.5247  -22.1449    2.3707  H     
21   H         5.6626  -17.3280    3.5414  H     
22   H         7.3054  -16.9951    2.9931  H     
23   H         7.0380  -18.1558    4.2846  H     
24   H         2.6515  -19.9973    1.1852  H     
25   H         4.1012  -19.1980    0.6322  H     
26   H         2.4919  -19.3019   -1.1481  H     
27   H         4.8533  -19.4059   -1.8444  H     
28   H         3.8090  -20.2867   -2.9868  H     
29   H         4.8180  -21.1882   -1.8211  H     
30   H         2.4894  -22.3528   -0.8881  H     
31   H         1.6841  -21.4236   -2.1645  H     
32   H         1.1614  -21.2402   -0.4725  H     
@<TRIPOS>BOND
     1    1    2 1
     2    1    5 1
     3    2    3 1
     4    2    7 1
     5    2    8 1
     6    3    4 1
     7    3    9 2
     8    4    5 2
     9    4   10 1
    10    5    6 1
    11    7   11 1
    12   11   12 1
    13   12   13 1
    14   12   14 1
    15    6   15 1
    16    7   16 1
    17    7   17 1
    18    8   18 1
    19    8   19 1
    20    8   20 1
    21   10   21 1
    22   10   22 1
    23   10   23 1
    24   11   24 1
    25   11   25 1
    26   12   26 1
    27   13   27 1
    28   13   28 1
    29   13   29 1
    30   14   30 1
    31   14   31 1
    32   14   32 1
@<TRIPOS>PROPERTY_DATA
  Total_Score	| 6.5424
  Crash		| -1.5902
  Polar		| 1.9933
  FragIndex	| 1
  FragRMSD	| 0.289

