@<TRIPOS>MOLECULE
BindingDB_50180116
 44 44 0 0 0
SMALL
NO_CHARGES


@<TRIPOS>ATOM
1    S         6.5850  -20.4606    0.5160  S     
2    C         5.6830  -20.9067    2.0418  C     
3    C         6.0799  -19.8509    2.9686  C     
4    C         6.6681  -18.7616    2.4306  C     
5    C         6.8956  -18.9021    1.1242  C     
6    O         7.4060  -17.9547    0.3425  O     
7    C         4.1008  -21.0013    1.9159  C     
8    C         6.2702  -22.2736    2.5081  C     
9    O         5.7930  -19.9151    4.1607  O     
10   C         7.0417  -17.5863    3.2067  C     
11   C         3.3998  -20.3816    0.6768  C     
12   C         3.4463  -21.2791   -0.6026  C     
13   C         3.7500  -20.5090   -1.9219  C     
14   C         2.6851  -20.7051   -3.0305  C     
15   C         2.3639  -22.1904   -3.3653  C     
16   C         2.9571  -22.7359   -4.7072  C     
17   C         3.3504  -24.2502   -4.7530  C     
18   C         4.8451  -24.5592   -4.4929  C     
19   H         6.6250  -17.3955    0.0971  H     
20   H         3.7702  -22.0386    1.9714  H     
21   H         3.6337  -20.5220    2.7790  H     
22   H         6.0390  -23.0519    1.7767  H     
23   H         5.8387  -22.5738    3.4681  H     
24   H         7.3551  -22.2297    2.6285  H     
25   H         6.1589  -17.1656    3.7017  H     
26   H         7.5029  -16.8027    2.5953  H     
27   H         7.7705  -17.8937    3.9609  H     
28   H         2.3481  -20.1999    0.9169  H     
29   H         3.8486  -19.4026    0.4901  H     
30   H         4.2119  -22.0578   -0.4951  H     
31   H         2.4952  -21.8118   -0.7055  H     
32   H         3.8459  -19.4383   -1.7020  H     
33   H         4.7201  -20.8306   -2.3020  H     
34   H         1.7594  -20.1982   -2.7252  H     
35   H         3.0309  -20.2076   -3.9384  H     
36   H         2.6458  -22.8249   -2.5273  H     
37   H         1.2707  -22.2618   -3.4186  H     
38   H         2.1896  -22.5846   -5.4796  H     
39   H         3.8069  -22.1206   -5.0176  H     
40   H         2.7421  -24.8304   -4.0548  H     
41   H         3.1246  -24.6324   -5.7574  H     
42   H         5.4741  -24.0183   -5.2097  H     
43   H         5.0182  -25.6335   -4.6234  H     
44   H         5.1351  -24.2856   -3.4774  H     
@<TRIPOS>BOND
     1    1    2 1
     2    1    5 1
     3    2    3 1
     4    2    7 1
     5    2    8 1
     6    3    4 1
     7    3    9 2
     8    4    5 2
     9    4   10 1
    10    5    6 1
    11    7   11 1
    12   11   12 1
    13   12   13 1
    14   13   14 1
    15   14   15 1
    16   15   16 1
    17   16   17 1
    18   17   18 1
    19    6   19 1
    20    7   20 1
    21    7   21 1
    22    8   22 1
    23    8   23 1
    24    8   24 1
    25   10   25 1
    26   10   26 1
    27   10   27 1
    28   11   28 1
    29   11   29 1
    30   12   30 1
    31   12   31 1
    32   13   32 1
    33   13   33 1
    34   14   34 1
    35   14   35 1
    36   15   36 1
    37   15   37 1
    38   16   38 1
    39   16   39 1
    40   17   40 1
    41   17   41 1
    42   18   42 1
    43   18   43 1
    44   18   44 1
@<TRIPOS>PROPERTY_DATA
  Total_Score	| 6.8361
  Crash		| -3.8846
  Polar		| 1.9262
  FragIndex	| 1
  FragRMSD	| 0.402

