@<TRIPOS>MOLECULE
BindingDB_50180129
 47 47 0 0 0
SMALL
NO_CHARGES


@<TRIPOS>ATOM
1    S         7.1688  -20.4420    0.7447  S     
2    C         5.6124  -20.7332    1.6371  C     
3    C         5.8000  -19.8561    2.7887  C     
4    C         6.5406  -18.7563    2.5358  C     
5    C         7.2000  -18.8727    1.3824  C     
6    O         7.7855  -17.8935    0.7069  O     
7    C         4.3491  -20.3009    0.7747  C     
8    C         5.6035  -22.2357    2.0480  C     
9    O         5.1365  -19.9723    3.8129  O     
10   C         6.5365  -17.5629    3.3670  C     
11   C         4.4597  -20.6830   -0.7455  C     
12   C         3.2319  -20.4244   -1.6656  C     
13   C         2.2682  -21.6430   -1.8045  C     
14   C         1.6727  -21.8460   -3.2233  C     
15   C         2.6451  -21.9896   -4.4371  C     
16   C         2.9909  -20.7314    1.4099  C     
17   C         3.8584  -22.9560   -4.2830  C     
18   C         3.5583  -24.4583   -4.5413  C     
19   C         3.4508  -24.8361   -6.0361  C     
20   H         7.1378  -17.1576    0.6886  H     
21   H         4.3172  -19.2040    0.7703  H     
22   H         5.5667  -22.8813    1.1689  H     
23   H         4.7439  -22.4681    2.6786  H     
24   H         6.5033  -22.4855    2.6165  H     
25   H         5.5518  -17.0925    3.3328  H     
26   H         7.2813  -16.8295    3.0464  H     
27   H         6.7596  -17.8405    4.4003  H     
28   H         5.2626  -20.0718   -1.1729  H     
29   H         4.7854  -21.7225   -0.8446  H     
30   H         2.6764  -19.5500   -1.3143  H     
31   H         3.6239  -20.1536   -2.6488  H     
32   H         2.7597  -22.5670   -1.5092  H     
33   H         1.4367  -21.5091   -1.1069  H     
34   H         1.0271  -22.7267   -3.1935  H     
35   H         1.0300  -20.9856   -3.4151  H     
36   H         2.0517  -22.3023   -5.2993  H     
37   H         3.0327  -20.9995   -4.6891  H     
38   H         2.8126  -21.7949    1.2602  H     
39   H         2.1610  -20.1788    0.9670  H     
40   H         2.9745  -20.5253    2.4792  H     
41   H         4.6447  -22.6439   -4.9753  H     
42   H         4.2840  -22.8432   -3.2852  H     
43   H         4.3684  -25.0522   -4.1088  H     
44   H         2.6345  -24.7424   -4.0361  H     
45   H         2.6714  -24.2560   -6.5249  H     
46   H         3.2088  -25.8961   -6.1351  H     
47   H         4.3963  -24.6436   -6.5459  H     
@<TRIPOS>BOND
     1    1    2 1
     2    1    5 1
     3    2    3 1
     4    2    7 1
     5    2    8 1
     6    3    4 1
     7    3    9 2
     8    4    5 2
     9    4   10 1
    10    5    6 1
    11    7   11 1
    12    7   16 1
    13   11   12 1
    14   12   13 1
    15   13   14 1
    16   14   15 1
    17   15   17 1
    18   17   18 1
    19   18   19 1
    20    6   20 1
    21    7   21 1
    22    8   22 1
    23    8   23 1
    24    8   24 1
    25   10   25 1
    26   10   26 1
    27   10   27 1
    28   11   28 1
    29   11   29 1
    30   12   30 1
    31   12   31 1
    32   13   32 1
    33   13   33 1
    34   14   34 1
    35   14   35 1
    36   15   36 1
    37   15   37 1
    38   16   38 1
    39   16   39 1
    40   16   40 1
    41   17   41 1
    42   17   42 1
    43   18   43 1
    44   18   44 1
    45   19   45 1
    46   19   46 1
    47   19   47 1
@<TRIPOS>PROPERTY_DATA
  Total_Score	| 5.1409
  Crash		| -5.9329
  Polar		| 1.7254
  FragIndex	| 1
  FragRMSD	| 0.374

