@<TRIPOS>MOLECULE
BindingDB_50180110
 38 38 0 0 0
SMALL
NO_CHARGES


@<TRIPOS>ATOM
1    S         5.8405  -19.7665    0.3059  S     
2    C         5.8571  -20.8286    1.7934  C     
3    C         6.3784  -19.9354    2.8131  C     
4    C         6.9799  -18.8068    2.3690  C     
5    C         6.8553  -18.6443    1.0572  C     
6    O         7.3071  -17.6245    0.3419  O     
7    C         4.4070  -21.3807    2.1508  C     
8    C         6.9002  -21.9855    1.6342  C     
9    O         6.4538  -20.2716    3.9892  O     
10   C         7.6376  -17.8530    3.2355  C     
11   C         3.2801  -21.1234    1.1002  C     
12   C         3.4932  -21.7189   -0.3252  C     
13   C         3.3628  -20.8553   -1.6206  C     
14   C         2.0358  -21.0542   -2.4194  C     
15   C         0.6829  -21.0569   -1.6633  C     
16   C         4.3596  -22.8562    2.6777  C     
17   H         6.5155  -17.0527    0.2518  H     
18   H         4.0709  -20.8054    3.0094  H     
19   H         6.5206  -22.8114    1.0405  H     
20   H         7.1547  -22.4139    2.6148  H     
21   H         7.8298  -21.6317    1.1626  H     
22   H         6.9216  -17.5026    3.9744  H     
23   H         8.0216  -16.9794    2.7160  H     
24   H         8.4732  -18.3293    3.7266  H     
25   H         2.3382  -21.5369    1.4956  H     
26   H         3.0922  -20.0542    1.0464  H     
27   H         4.4918  -22.1650   -0.3524  H     
28   H         2.7697  -22.5191   -0.4228  H     
29   H         3.5653  -19.7960   -1.4171  H     
30   H         4.1645  -21.1631   -2.3100  H     
31   H         2.0049  -20.2656   -3.1716  H     
32   H         2.0939  -22.0071   -2.9596  H     
33   H         0.5836  -21.9804   -1.0862  H     
34   H        -0.1456  -21.0220   -2.3794  H     
35   H         0.6134  -20.1913   -0.9926  H     
36   H         4.7132  -23.5568    1.9248  H     
37   H         3.3493  -23.1451    2.9541  H     
38   H         4.9865  -22.9668    3.5524  H     
@<TRIPOS>BOND
     1    1    2 1
     2    1    5 1
     3    2    3 1
     4    2    7 1
     5    2    8 1
     6    3    4 1
     7    3    9 2
     8    4    5 2
     9    4   10 1
    10    5    6 1
    11    7   11 1
    12    7   16 1
    13   11   12 1
    14   12   13 1
    15   13   14 1
    16   14   15 1
    17    6   17 1
    18    7   18 1
    19    8   19 1
    20    8   20 1
    21    8   21 1
    22   10   22 1
    23   10   23 1
    24   10   24 1
    25   11   25 1
    26   11   26 1
    27   12   27 1
    28   12   28 1
    29   13   29 1
    30   13   30 1
    31   14   31 1
    32   14   32 1
    33   15   33 1
    34   15   34 1
    35   15   35 1
    36   16   36 1
    37   16   37 1
    38   16   38 1
@<TRIPOS>PROPERTY_DATA
  Total_Score	| 5.3051
  Crash		| -3.9452
  Polar		| 1.8795
  FragIndex	| 1
  FragRMSD	| 0.861

