@<TRIPOS>MOLECULE
BindingDB_50180121
 41 41 0 0 0
SMALL
NO_CHARGES


@<TRIPOS>ATOM
1    S         6.5064  -20.2433    0.2183  S     
2    C         5.6135  -20.8763    1.6612  C     
3    C         5.9753  -19.9514    2.7312  C     
4    C         6.5985  -18.8135    2.3519  C     
5    C         6.9032  -18.8271    1.0527  C     
6    O         7.5026  -17.8242    0.4189  O     
7    C         4.0556  -20.9489    1.4603  C     
8    C         6.2371  -22.2732    2.0281  C     
9    O         5.5991  -20.1227    3.8881  O     
10   C         6.8699  -17.7053    3.2632  C     
11   C         3.4042  -20.7242    0.0411  C     
12   C         3.7861  -21.8326   -0.9994  C     
13   C         4.2380  -21.3530   -2.4295  C     
14   C         3.1280  -21.2950   -3.5252  C     
15   C         2.9819  -22.6093   -4.3415  C     
16   C         1.8523  -20.6113    0.2499  C     
17   C         0.8945  -20.4890   -0.9795  C     
18   H         6.8097  -17.1355    0.3344  H     
19   H         3.6956  -21.9084    1.8355  H     
20   H         3.6015  -20.2119    2.1173  H     
21   H         6.0817  -23.0051    1.2260  H     
22   H         5.7881  -22.6790    2.9440  H     
23   H         7.3245  -22.1952    2.2010  H     
24   H         5.9288  -17.3268    3.6707  H     
25   H         7.3868  -16.8780    2.7724  H     
26   H         7.4972  -18.0578    4.0807  H     
27   H         3.7202  -19.7351   -0.3276  H     
28   H         4.6165  -22.4284   -0.5860  H     
29   H         2.9382  -22.5272   -1.0945  H     
30   H         4.7194  -20.3731   -2.3518  H     
31   H         5.0324  -22.0359   -2.7545  H     
32   H         2.1514  -21.0301   -3.0969  H     
33   H         3.3904  -20.5081   -4.2323  H     
34   H         3.9547  -22.8820   -4.7832  H     
35   H         2.2492  -22.4645   -5.1396  H     
36   H         2.6372  -23.4419   -3.7061  H     
37   H         1.5197  -21.4901    0.8150  H     
38   H         1.6610  -19.7102    0.8710  H     
39   H         1.2961  -19.8074   -1.7457  H     
40   H        -0.1043  -20.1466   -0.6401  H     
41   H         0.7905  -21.4879   -1.4352  H     
@<TRIPOS>BOND
     1    1    2 1
     2    1    5 1
     3    2    3 1
     4    2    7 1
     5    2    8 1
     6    3    4 1
     7    3    9 2
     8    4    5 2
     9    4   10 1
    10    5    6 1
    11    7   11 1
    12   11   12 1
    13   11   16 1
    14   12   13 1
    15   13   14 1
    16   14   15 1
    17   16   17 1
    18    6   18 1
    19    7   19 1
    20    7   20 1
    21    8   21 1
    22    8   22 1
    23    8   23 1
    24   10   24 1
    25   10   25 1
    26   10   26 1
    27   11   27 1
    28   12   28 1
    29   12   29 1
    30   13   30 1
    31   13   31 1
    32   14   32 1
    33   14   33 1
    34   15   34 1
    35   15   35 1
    36   15   36 1
    37   16   37 1
    38   16   38 1
    39   17   39 1
    40   17   40 1
    41   17   41 1
@<TRIPOS>PROPERTY_DATA
  Total_Score	| 6.7848
  Crash		| -3.9223
  Polar		| 2.0232
  FragIndex	| 1
  FragRMSD	| 0.332

