@<TRIPOS>MOLECULE
BindingDB_50180130
 56 56 0 0 0
SMALL
NO_CHARGES


@<TRIPOS>ATOM
1    S         6.6316  -20.3234    0.2807  S     
2    C         5.7902  -20.9893    1.7487  C     
3    C         5.8525  -19.9283    2.7377  C     
4    C         6.4751  -18.7985    2.3583  C     
5    C         6.8757  -18.8448    1.0799  C     
6    O         7.4580  -17.8485    0.4234  O     
7    C         4.3418  -21.4564    1.3870  C     
8    C         6.5866  -22.2337    2.2258  C     
9    O         5.3797  -20.0792    3.8598  O     
10   C         6.7058  -17.6678    3.2439  C     
11   C         3.3544  -20.3471    0.9244  C     
12   C         2.4144  -20.7495   -0.2502  C     
13   C         3.1671  -20.8708   -1.6152  C     
14   C         2.2384  -21.1470   -2.8372  C     
15   C         3.0012  -21.5496   -4.1436  C     
16   C         2.9608  -23.0773   -4.5064  C     
17   C         4.3431  -23.7876   -4.5554  C     
18   C         4.2080  -25.3410   -4.6470  C     
19   C         5.3241  -26.2546   -4.0303  C     
20   C         6.6336  -25.6161   -3.4736  C     
21   C         6.4666  -24.7347   -2.2076  C     
22   C         7.6966  -24.7058   -1.2579  C     
23   H         6.7642  -17.1644    0.3197  H     
24   H         4.4273  -22.2186    0.6110  H     
25   H         3.8887  -21.9423    2.2536  H     
26   H         6.6072  -22.9913    1.4397  H     
27   H         6.1274  -22.6753    3.1145  H     
28   H         7.6153  -21.9762    2.4721  H     
29   H         5.7535  -17.2603    3.5802  H     
30   H         7.2696  -16.8627    2.7691  H     
31   H         7.2725  -17.9982    4.1144  H     
32   H         2.7155  -20.0734    1.7637  H     
33   H         3.8916  -19.4456    0.6204  H     
34   H         1.9247  -21.7038   -0.0284  H     
35   H         1.6269  -19.9876   -0.3444  H     
36   H         3.7139  -19.9388   -1.8200  H     
37   H         3.8965  -21.6807   -1.5379  H     
38   H         1.5015  -21.9195   -2.5693  H     
39   H         1.6778  -20.2213   -3.0239  H     
40   H         2.5229  -20.9994   -4.9666  H     
41   H         4.0286  -21.1789   -4.0920  H     
42   H         2.3312  -23.6086   -3.7862  H     
43   H         2.4987  -23.1821   -5.4943  H     
44   H         4.9092  -23.4357   -5.4278  H     
45   H         4.9062  -23.5137   -3.6394  H     
46   H         3.2594  -25.6463   -4.1812  H     
47   H         4.1134  -25.5814   -5.7198  H     
48   H         4.8958  -26.8596   -3.2280  H     
49   H         5.6163  -26.9644   -4.8128  H     
50   H         7.3172  -26.4547   -3.2359  H     
51   H         7.1088  -25.0426   -4.2703  H     
52   H         6.2699  -23.7067   -2.5076  H     
53   H         5.6236  -25.0851   -1.6085  H     
54   H         7.8855  -25.7011   -0.8739  H     
55   H         7.4947  -24.0356   -0.4150  H     
56   H         8.5741  -24.3339   -1.7964  H     
@<TRIPOS>BOND
     1    1    2 1
     2    1    5 1
     3    2    3 1
     4    2    7 1
     5    2    8 1
     6    3    4 1
     7    3    9 2
     8    4    5 2
     9    4   10 1
    10    5    6 1
    11    7   11 1
    12   11   12 1
    13   12   13 1
    14   13   14 1
    15   14   15 1
    16   15   16 1
    17   16   17 1
    18   17   18 1
    19   18   19 1
    20   19   20 1
    21   20   21 1
    22   21   22 1
    23    6   23 1
    24    7   24 1
    25    7   25 1
    26    8   26 1
    27    8   27 1
    28    8   28 1
    29   10   29 1
    30   10   30 1
    31   10   31 1
    32   11   32 1
    33   11   33 1
    34   12   34 1
    35   12   35 1
    36   13   36 1
    37   13   37 1
    38   14   38 1
    39   14   39 1
    40   15   40 1
    41   15   41 1
    42   16   42 1
    43   16   43 1
    44   17   44 1
    45   17   45 1
    46   18   46 1
    47   18   47 1
    48   19   48 1
    49   19   49 1
    50   20   50 1
    51   20   51 1
    52   21   52 1
    53   21   53 1
    54   22   54 1
    55   22   55 1
    56   22   56 1
@<TRIPOS>PROPERTY_DATA
  Total_Score	| 7.8802
  Crash		| -5.7335
  Polar		| 2.0313
  FragIndex	| 1
  FragRMSD	| 0.343

