@<TRIPOS>MOLECULE
BindingDB_50138281
 28 28 0 0 0
SMALL
NO_CHARGES


@<TRIPOS>ATOM
1    C         6.4073  -18.7260    2.4445  C     
2    C         5.6003  -20.8336    1.6833  C     
3    C         6.8999  -18.7467    1.2043  C     
4    C         5.8508  -19.9055    2.7841  C     
5    S         6.8015  -20.2555    0.4492  S     
6    C         4.1655  -20.7853    1.3081  C     
7    C         3.5543  -20.4681    0.1354  C     
8    O         7.4969  -17.7451    0.5704  O     
9    C         2.1953  -20.6368    0.0500  C     
10   O         5.4356  -20.1262    3.9146  O     
11   C         1.5990  -21.5365   -0.7444  C     
12   C         6.4411  -17.5361    3.2817  C     
13   C         5.9962  -22.2907    2.0674  C     
14   C         4.2479  -19.9244   -1.0366  C     
15   H         3.5606  -21.1645    2.0120  H     
16   H         6.9156  -16.9639    0.6843  H     
17   H         1.6121  -20.0992    0.6506  H     
18   H         0.6105  -21.6226   -0.7465  H     
19   H         2.1256  -22.1290   -1.3423  H     
20   H         7.4732  -17.2012    3.3976  H     
21   H         6.0302  -17.7087    4.2778  H     
22   H         5.8590  -16.7408    2.8126  H     
23   H         7.0377  -22.3378    2.3924  H     
24   H         5.8746  -22.9590    1.2138  H     
25   H         5.3722  -22.6651    2.8801  H     
26   H         4.6302  -18.9256   -0.8170  H     
27   H         3.6025  -19.8157   -1.9133  H     
28   H         5.0720  -20.5827   -1.3236  H     
@<TRIPOS>BOND
     1    1    3 2
     2    1    4 1
     3    1   12 1
     4    2    4 1
     5    2    5 1
     6    2    6 1
     7    2   13 1
     8    3    5 1
     9    3    8 1
    10    4   10 2
    11    6    7 2
    12    7    9 1
    13    7   14 1
    14    9   11 2
    15    6   15 1
    16    8   16 1
    17    9   17 1
    18   11   18 1
    19   11   19 1
    20   12   20 1
    21   12   21 1
    22   12   22 1
    23   13   23 1
    24   13   24 1
    25   13   25 1
    26   14   26 1
    27   14   27 1
    28   14   28 1
@<TRIPOS>PROPERTY_DATA
  Total_Score	| 6.2470
  Crash		| -1.3358
  Polar		| 1.9987
  FragIndex	| 1
  FragRMSD	| 0.223

