@<TRIPOS>MOLECULE
BindingDB_50180104
 50 50 0 0 0
SMALL
NO_CHARGES


@<TRIPOS>ATOM
1    S         6.5633  -20.3435    0.2544  S     
2    C         5.7652  -21.0277    1.7348  C     
3    C         5.8540  -19.9756    2.7335  C     
4    C         6.4736  -18.8407    2.3457  C     
5    C         6.8609  -18.8860    1.0657  C     
6    O         7.4470  -17.8844    0.4344  O     
7    C         4.3084  -21.4763    1.3809  C     
8    C         6.5922  -22.2759    2.1620  C     
9    O         5.4385  -20.1535    3.8730  O     
10   C         6.6946  -17.7113    3.2321  C     
11   C         3.2670  -20.3511    1.0890  C     
12   C         2.2069  -20.6600   -0.0165  C     
13   C         2.5885  -20.1859   -1.4646  C     
14   C         3.3839  -21.2129   -2.3429  C     
15   C         2.5547  -21.7942   -3.5309  C     
16   C         3.1277  -23.1024   -4.1679  C     
17   C         4.6950  -23.2938   -4.1697  C     
18   C         5.1783  -24.7822   -4.2646  C     
19   C         6.0405  -25.2581   -3.0510  C     
20   C         6.1463  -26.7976   -2.9284  C     
21   H         6.7328  -17.2210    0.2942  H     
22   H         4.3713  -22.1456    0.5163  H     
23   H         3.9156  -22.0716    2.2097  H     
24   H         6.5581  -23.0394    1.3760  H     
25   H         6.2171  -22.7160    3.0953  H     
26   H         7.6383  -22.0138    2.3235  H     
27   H         5.7404  -17.2983    3.5704  H     
28   H         7.2556  -16.9067    2.7519  H     
29   H         7.2614  -18.0333    4.1101  H     
30   H         2.7036  -20.1750    2.0193  H     
31   H         3.7753  -19.4084    0.8424  H     
32   H         1.9674  -21.7318   -0.0118  H     
33   H         1.2934  -20.1222    0.2564  H     
34   H         1.6455  -19.9212   -1.9789  H     
35   H         3.1678  -19.2488   -1.4075  H     
36   H         4.2772  -20.7173   -2.7538  H     
37   H         3.7143  -22.0629   -1.7206  H     
38   H         1.5588  -22.0509   -3.1487  H     
39   H         2.4544  -21.0266   -4.3129  H     
40   H         2.6186  -23.9643   -3.7070  H     
41   H         2.7979  -23.1003   -5.2204  H     
42   H         5.0839  -22.7688   -5.0483  H     
43   H         5.1427  -22.8111   -3.2988  H     
44   H         4.3214  -25.4523   -4.4020  H     
45   H         5.7936  -24.8839   -5.1677  H     
46   H         7.0638  -24.8810   -3.1896  H     
47   H         5.6517  -24.8438   -2.1055  H     
48   H         5.1828  -27.2049   -2.6097  H     
49   H         6.9066  -27.0511   -2.1831  H     
50   H         6.4201  -27.2417   -3.8944  H     
@<TRIPOS>BOND
     1    1    2 1
     2    1    5 1
     3    2    3 1
     4    2    7 1
     5    2    8 1
     6    3    4 1
     7    3    9 2
     8    4    5 2
     9    4   10 1
    10    5    6 1
    11    7   11 1
    12   11   12 1
    13   12   13 1
    14   13   14 1
    15   14   15 1
    16   15   16 1
    17   16   17 1
    18   17   18 1
    19   18   19 1
    20   19   20 1
    21    6   21 1
    22    7   22 1
    23    7   23 1
    24    8   24 1
    25    8   25 1
    26    8   26 1
    27   10   27 1
    28   10   28 1
    29   10   29 1
    30   11   30 1
    31   11   31 1
    32   12   32 1
    33   12   33 1
    34   13   34 1
    35   13   35 1
    36   14   36 1
    37   14   37 1
    38   15   38 1
    39   15   39 1
    40   16   40 1
    41   16   41 1
    42   17   42 1
    43   17   43 1
    44   18   44 1
    45   18   45 1
    46   19   46 1
    47   19   47 1
    48   20   48 1
    49   20   49 1
    50   20   50 1
@<TRIPOS>PROPERTY_DATA
  Total_Score	| 8.4647
  Crash		| -4.3404
  Polar		| 2.0048
  FragIndex	| 1
  FragRMSD	| 0.365

