@<TRIPOS>MOLECULE
BindingDB_50180122
 53 53 0 0 0
SMALL
NO_CHARGES


@<TRIPOS>ATOM
1    S         6.9472  -20.3007    0.3795  S     
2    C         5.7036  -20.7807    1.6187  C     
3    C         6.0589  -19.9101    2.7355  C     
4    C         6.6771  -18.7635    2.3995  C     
5    C         7.1275  -18.7973    1.1450  C     
6    O         7.6716  -17.7826    0.4936  O     
7    C         4.2344  -20.4714    1.0974  C     
8    C         5.9479  -22.2870    1.9440  C     
9    O         5.9084  -20.2416    3.9052  O     
10   C         6.7718  -17.6124    3.2834  C     
11   C         3.8915  -21.1213   -0.2892  C     
12   C         2.4096  -21.0089   -0.7567  C     
13   C         2.1453  -21.6283   -2.1574  C     
14   C         3.3849  -21.6720   -3.0915  C     
15   C         3.1696  -22.4172   -4.4388  C     
16   C         3.6175  -23.9129   -4.4928  C     
17   C         5.1135  -24.1554   -4.1233  C     
18   C         5.5722  -25.6390   -3.9876  C     
19   C         6.1089  -26.0471   -2.5829  C     
20   C         6.9214  -24.9823   -1.8106  C     
21   C         3.1244  -20.8195    2.1406  C     
22   H         6.9719  -17.0960    0.4409  H     
23   H         4.1752  -19.3854    0.9530  H     
24   H         5.8441  -22.9047    1.0495  H     
25   H         5.2354  -22.6478    2.6886  H     
26   H         6.9532  -22.4337    2.3415  H     
27   H         5.7720  -17.2270    3.5018  H     
28   H         7.3638  -16.8017    2.8477  H     
29   H         7.2440  -17.9052    4.2192  H     
30   H         4.5022  -20.6425   -1.0474  H     
31   H         4.1774  -22.1746   -0.2748  H     
32   H         1.7661  -21.5325   -0.0484  H     
33   H         2.1121  -19.9587   -0.7621  H     
34   H         1.7692  -22.6400   -2.0115  H     
35   H         1.3602  -21.0473   -2.6521  H     
36   H         3.6850  -20.6404   -3.3085  H     
37   H         4.2141  -22.1428   -2.5749  H     
38   H         2.1139  -22.3584   -4.7091  H     
39   H         3.7236  -21.8706   -5.2034  H     
40   H         2.9654  -24.4990   -3.8546  H     
41   H         3.4669  -24.2812   -5.5107  H     
42   H         5.7233  -23.6732   -4.8906  H     
43   H         5.3446  -23.6616   -3.1858  H     
44   H         4.7305  -26.2864   -4.2576  H     
45   H         6.3669  -25.8287   -4.7140  H     
46   H         5.2693  -26.3255   -1.9593  H     
47   H         6.7309  -26.9402   -2.7000  H     
48   H         7.2956  -25.4265   -0.8859  H     
49   H         6.2839  -24.1371   -1.5516  H     
50   H         7.7685  -24.6270   -2.3996  H     
51   H         2.8747  -21.8791    2.1448  H     
52   H         2.2230  -20.2490    1.9055  H     
53   H         3.4130  -20.5282    3.1503  H     
@<TRIPOS>BOND
     1    1    2 1
     2    1    5 1
     3    2    3 1
     4    2    7 1
     5    2    8 1
     6    3    4 1
     7    3    9 2
     8    4    5 2
     9    4   10 1
    10    5    6 1
    11    7   11 1
    12    7   21 1
    13   11   12 1
    14   12   13 1
    15   13   14 1
    16   14   15 1
    17   15   16 1
    18   16   17 1
    19   17   18 1
    20   18   19 1
    21   19   20 1
    22    6   22 1
    23    7   23 1
    24    8   24 1
    25    8   25 1
    26    8   26 1
    27   10   27 1
    28   10   28 1
    29   10   29 1
    30   11   30 1
    31   11   31 1
    32   12   32 1
    33   12   33 1
    34   13   34 1
    35   13   35 1
    36   14   36 1
    37   14   37 1
    38   15   38 1
    39   15   39 1
    40   16   40 1
    41   16   41 1
    42   17   42 1
    43   17   43 1
    44   18   44 1
    45   18   45 1
    46   19   46 1
    47   19   47 1
    48   20   48 1
    49   20   49 1
    50   20   50 1
    51   21   51 1
    52   21   52 1
    53   21   53 1
@<TRIPOS>PROPERTY_DATA
  Total_Score	| 7.1268
  Crash		| -4.8692
  Polar		| 1.8430
  FragIndex	| 1
  FragRMSD	| 0.293

