@<TRIPOS>MOLECULE
BindingDB_50180127
 59 59 0 0 0
SMALL
NO_CHARGES


@<TRIPOS>ATOM
1    S         6.5398  -20.2909    0.3918  S     
2    C         5.6482  -20.8927    1.8525  C     
3    C         5.8430  -19.8718    2.8691  C     
4    C         6.6250  -18.8338    2.5226  C     
5    C         7.0346  -18.9104    1.2547  C     
6    O         7.7951  -17.9919    0.6759  O     
7    C         4.1360  -21.1651    1.5485  C     
8    C         6.3291  -22.2148    2.3065  C     
9    O         5.3934  -20.0093    3.9994  O     
10   C         7.0271  -17.7451    3.4058  C     
11   C         3.6255  -20.9147    0.0967  C     
12   C         2.0844  -20.8719   -0.0278  C     
13   C         1.5622  -20.5794   -1.4601  C     
14   C         1.8663  -21.6993   -2.4959  C     
15   C         2.8260  -21.2692   -3.6528  C     
16   C         3.8453  -22.3646   -4.0555  C     
17   C         3.2425  -23.6743   -4.6299  C     
18   C         4.3290  -24.6079   -5.2476  C     
19   C         4.2954  -26.0485   -4.6718  C     
20   C         5.6107  -26.5693   -4.0279  C     
21   C         6.6366  -25.5078   -3.5318  C     
22   C         6.3336  -24.9456   -2.1138  C     
23   C         7.5733  -24.7168   -1.2303  C     
24   H         7.1730  -17.4748    0.1280  H     
25   H         3.9247  -22.2123    1.7796  H     
26   H         3.5399  -20.5762    2.2507  H     
27   H         6.2815  -22.9550    1.5102  H     
28   H         5.8341  -22.6264    3.1880  H     
29   H         7.3761  -22.0502    2.5518  H     
30   H         6.6157  -17.8477    4.4106  H     
31   H         6.6868  -16.7888    2.9981  H     
32   H         8.1161  -17.7242    3.4921  H     
33   H         4.0219  -19.9737   -0.2931  H     
34   H         3.9821  -21.7370   -0.5350  H     
35   H         1.6725  -21.8267    0.3021  H     
36   H         1.7147  -20.0947    0.6443  H     
37   H         0.4788  -20.4405   -1.3948  H     
38   H         1.9869  -19.6388   -1.8094  H     
39   H         2.2714  -22.5659   -1.9650  H     
40   H         0.9214  -22.0251   -2.9374  H     
41   H         2.2270  -21.0109   -4.5293  H     
42   H         3.4051  -20.3703   -3.3723  H     
43   H         4.4997  -21.9453   -4.8169  H     
44   H         4.4626  -22.5867   -3.1856  H     
45   H         2.6996  -24.2127   -3.8535  H     
46   H         2.5166  -23.4012   -5.4002  H     
47   H         4.1650  -24.6806   -6.3268  H     
48   H         5.3145  -24.1617   -5.1009  H     
49   H         3.4959  -26.1335   -3.9448  H     
50   H         4.0347  -26.7214   -5.4893  H     
51   H         5.3394  -27.1819   -3.1657  H     
52   H         6.0975  -27.2324   -4.7446  H     
53   H         7.6211  -25.9838   -3.5122  H     
54   H         6.6903  -24.6823   -4.2439  H     
55   H         5.8179  -23.9908   -2.2148  H     
56   H         5.6833  -25.6416   -1.5781  H     
57   H         7.9939  -25.6787   -0.9417  H     
58   H         7.2890  -24.1809   -0.3226  H     
59   H         8.3289  -24.1370   -1.7620  H     
@<TRIPOS>BOND
     1    1    2 1
     2    1    5 1
     3    2    3 1
     4    2    7 1
     5    2    8 1
     6    3    4 1
     7    3    9 2
     8    4    5 2
     9    4   10 1
    10    5    6 1
    11    7   11 1
    12   11   12 1
    13   12   13 1
    14   13   14 1
    15   14   15 1
    16   15   16 1
    17   16   17 1
    18   17   18 1
    19   18   19 1
    20   19   20 1
    21   20   21 1
    22   21   22 1
    23   22   23 1
    24    6   24 1
    25    7   25 1
    26    7   26 1
    27    8   27 1
    28    8   28 1
    29    8   29 1
    30   10   30 1
    31   10   31 1
    32   10   32 1
    33   11   33 1
    34   11   34 1
    35   12   35 1
    36   12   36 1
    37   13   37 1
    38   13   38 1
    39   14   39 1
    40   14   40 1
    41   15   41 1
    42   15   42 1
    43   16   43 1
    44   16   44 1
    45   17   45 1
    46   17   46 1
    47   18   47 1
    48   18   48 1
    49   19   49 1
    50   19   50 1
    51   20   51 1
    52   20   52 1
    53   21   53 1
    54   21   54 1
    55   22   55 1
    56   22   56 1
    57   23   57 1
    58   23   58 1
    59   23   59 1
@<TRIPOS>PROPERTY_DATA
  Total_Score	| 6.3502
  Crash		| -7.4864
  Polar		| 1.1816
  FragIndex	| 1
  FragRMSD	| 0.294

