@<TRIPOS>MOLECULE
BindingDB_50180103
 38 38 0 0 0
SMALL
NO_CHARGES


@<TRIPOS>ATOM
1    S         6.4464  -20.2481    0.1826  S     
2    C         5.5176  -20.9303    1.5859  C     
3    C         5.8239  -20.0196    2.6820  C     
4    C         6.5210  -18.9050    2.3685  C     
5    C         6.8868  -18.8786    1.0845  C     
6    O         7.5482  -17.8824    0.5064  O     
7    C         3.9570  -20.9989    1.3674  C     
8    C         6.1213  -22.3347    1.8744  C     
9    O         5.4107  -20.2344    3.8162  O     
10   C         6.8189  -17.8530    3.3275  C     
11   C         3.3923  -21.4342   -0.0213  C     
12   C         3.3293  -20.2964   -1.0930  C     
13   C         3.9753  -20.6352   -2.4773  C     
14   C         3.0035  -20.9119   -3.6670  C     
15   C         2.8287  -22.3936   -4.1057  C     
16   C         4.1317  -23.1940   -4.3596  C     
17   H         6.9162  -17.1325    0.4783  H     
18   H         3.5468  -21.6889    2.1127  H     
19   H         3.5034  -20.0322    1.5938  H     
20   H         6.0416  -22.9764    0.9957  H     
21   H         5.6037  -22.8230    2.7015  H     
22   H         7.1778  -22.2535    2.1399  H     
23   H         5.8893  -17.4363    3.7191  H     
24   H         7.4001  -17.0368    2.8932  H     
25   H         7.3958  -18.2720    4.1523  H     
26   H         3.9571  -22.2903   -0.3850  H     
27   H         2.3681  -21.7869    0.1351  H     
28   H         2.2931  -19.9794   -1.2366  H     
29   H         3.8299  -19.4051   -0.7050  H     
30   H         4.5855  -19.7773   -2.7608  H     
31   H         4.6723  -21.4736   -2.3874  H     
32   H         2.0141  -20.5237   -3.4240  H     
33   H         3.3478  -20.3561   -4.5489  H     
34   H         2.2251  -22.9141   -3.3602  H     
35   H         2.2733  -22.3948   -5.0471  H     
36   H         4.7414  -22.7067   -5.1218  H     
37   H         3.8789  -24.1975   -4.7202  H     
38   H         4.7224  -23.2858   -3.4413  H     
@<TRIPOS>BOND
     1    1    2 1
     2    1    5 1
     3    2    3 1
     4    2    7 1
     5    2    8 1
     6    3    4 1
     7    3    9 2
     8    4    5 2
     9    4   10 1
    10    5    6 1
    11    7   11 1
    12   11   12 1
    13   12   13 1
    14   13   14 1
    15   14   15 1
    16   15   16 1
    17    6   17 1
    18    7   18 1
    19    7   19 1
    20    8   20 1
    21    8   21 1
    22    8   22 1
    23   10   23 1
    24   10   24 1
    25   10   25 1
    26   11   26 1
    27   11   27 1
    28   12   28 1
    29   12   29 1
    30   13   30 1
    31   13   31 1
    32   14   32 1
    33   14   33 1
    34   15   34 1
    35   15   35 1
    36   16   36 1
    37   16   37 1
    38   16   38 1
@<TRIPOS>PROPERTY_DATA
  Total_Score	| 6.8151
  Crash		| -2.3025
  Polar		| 2.0136
  FragIndex	| 1
  FragRMSD	| 0.370

