@<TRIPOS>MOLECULE
BindingDB_30273
 60 64 0 0 0
SMALL
NO_CHARGES


@<TRIPOS>ATOM
1    C        37.7222  -32.9865  -18.2275  C     
2    C        36.6750  -32.3770  -18.9575  C     
3    C        36.8488  -31.1167  -19.6066  C     
4    C        38.1042  -30.4691  -19.4674  C     
5    C        38.9557  -32.3321  -18.1428  C     
6    N        40.1003  -32.7047  -17.5488  N     
7    C        39.1401  -31.0796  -18.7359  C     
8    C        41.0142  -31.7300  -17.7022  C     
9    C        42.3250  -31.6574  -17.2804  C     
10   C        40.4409  -30.6827  -18.4390  C     
11   C        41.2047  -29.4571  -18.7986  C     
12   C        42.4070  -29.2745  -17.8087  C     
13   N        42.9990  -30.5207  -17.3846  N     
14   O        42.8801  -32.6351  -16.7808  O     
15   C        41.7038  -29.5383  -20.2677  C     
16   C        35.8030  -30.5497  -20.3492  C     
17   O        34.6570  -30.9552  -20.1665  O     
18   N        36.0335  -29.6106  -21.2629  N     
19   C        35.1529  -28.9740  -22.0733  C     
20   N        35.5220  -28.0099  -22.9435  N     
21   C        34.5338  -27.4404  -23.7003  C     
22   C        33.2566  -27.9710  -23.4382  C     
23   S        33.4502  -29.1773  -22.2392  S     
24   C        34.7812  -26.4144  -24.6019  C     
25   O        33.8345  -25.7881  -25.0816  O     
26   N        36.0242  -26.0515  -24.9001  N     
27   C        36.4206  -24.8689  -25.6282  C     
28   C        36.6801  -25.8661  -27.9845  C     
29   C        38.6872  -25.7278  -26.5302  C     
30   C        37.9701  -24.7149  -25.5927  C     
31   C        35.9305  -24.8263  -27.1041  C     
32   N        38.1719  -25.7341  -27.9379  N     
33   C        38.7178  -24.6284  -28.7839  C     
34   H        37.5758  -33.8880  -17.7690  H     
35   H        35.7853  -32.8790  -19.0157  H     
36   H        38.2817  -29.5519  -19.8792  H     
37   H        40.2432  -33.5412  -17.0758  H     
38   H        40.5439  -28.5898  -18.7096  H     
39   H        43.1844  -28.6499  -18.2519  H     
40   H        42.0530  -28.7618  -16.9098  H     
41   H        43.9161  -30.4996  -17.0608  H     
42   H        42.5032  -30.2784  -20.3634  H     
43   H        42.0990  -28.5667  -20.5750  H     
44   H        40.8910  -29.8099  -20.9453  H     
45   H        36.9604  -29.3490  -21.3785  H     
46   H        32.3672  -27.7007  -23.8665  H     
47   H        36.7419  -26.5866  -24.5147  H     
48   H        36.0041  -24.0040  -25.1008  H     
49   H        36.4135  -26.8695  -27.6389  H     
50   H        36.3201  -25.7939  -29.0114  H     
51   H        39.7665  -25.5425  -26.5136  H     
52   H        38.5428  -26.7311  -26.1296  H     
53   H        38.2383  -23.7001  -25.8992  H     
54   H        38.3353  -24.8472  -24.5708  H     
55   H        34.8524  -25.0192  -27.1380  H     
56   H        36.1110  -23.8221  -27.5095  H     
57   H        38.5369  -26.5953  -28.3528  H     
58   H        38.3661  -24.7339  -29.8117  H     
59   H        39.8081  -24.6757  -28.8088  H     
60   H        38.4193  -23.6471  -28.4103  H     
@<TRIPOS>BOND
     1    1    2 2
     2    1    5 1
     3    2    3 1
     4    3    4 2
     5    3   16 1
     6    4    7 1
     7    5    6 1
     8    5    7 2
     9    6    8 1
    10    7   10 1
    11    8    9 1
    12    8   10 2
    13    9   13 1
    14    9   14 2
    15   10   11 1
    16   11   12 1
    17   11   15 1
    18   12   13 1
    19   16   17 2
    20   16   18 am
    21   18   19 1
    22   19   20 2
    23   19   23 1
    24   20   21 1
    25   21   22 2
    26   21   24 1
    27   22   23 1
    28   24   25 2
    29   24   26 am
    30   26   27 1
    31   27   30 1
    32   27   31 1
    33   28   31 1
    34   28   32 1
    35   29   30 1
    36   29   32 1
    37   32   33 1
    38    1   34 1
    39    2   35 1
    40    4   36 1
    41    6   37 1
    42   11   38 1
    43   12   39 1
    44   12   40 1
    45   13   41 1
    46   15   42 1
    47   15   43 1
    48   15   44 1
    49   18   45 1
    50   22   46 1
    51   26   47 1
    52   27   48 1
    53   28   49 1
    54   28   50 1
    55   29   51 1
    56   29   52 1
    57   30   53 1
    58   30   54 1
    59   31   55 1
    60   31   56 1
    61   32   57 1
    62   33   58 1
    63   33   59 1
    64   33   60 1
@<TRIPOS>PROPERTY_DATA
  Total_Score	| 11.0273
  Crash		| -1.4684
  Polar		| 6.6658
  FragIndex	| 1
  FragRMSD	| 0.791

