@<TRIPOS>MOLECULE
BindingDB_30272
 63 67 0 0 0
SMALL
NO_CHARGES


@<TRIPOS>ATOM
1    C        37.5112  -32.9503  -18.2582  C     
2    C        36.5094  -32.2913  -18.9948  C     
3    C        36.7308  -31.0226  -19.6092  C     
4    C        38.0170  -30.4358  -19.4548  C     
5    C        38.7672  -32.3393  -18.1341  C     
6    N        39.8781  -32.7539  -17.4988  N     
7    C        39.0180  -31.0996  -18.7194  C     
8    C        40.8470  -31.8299  -17.6600  C     
9    C        42.1489  -31.8189  -17.1929  C     
10   C        40.3376  -30.7715  -18.4208  C     
11   C        41.1422  -29.5678  -18.7573  C     
12   C        42.6722  -29.8543  -18.5434  C     
13   N        42.9701  -30.8292  -17.5235  N     
14   O        42.5599  -32.7093  -16.4548  O     
15   C        40.6585  -28.3414  -17.9378  C     
16   C        35.7100  -30.4055  -20.3610  C     
17   O        34.5887  -30.9035  -20.3817  O     
18   N        35.9176  -29.2793  -21.0355  N     
19   C        35.0988  -28.6232  -21.8873  C     
20   N        35.4876  -27.4646  -22.4656  N     
21   C        34.6086  -26.8985  -23.3363  C     
22   C        33.4104  -27.6183  -23.5014  C     
23   S        33.5225  -28.9931  -22.4797  S     
24   C        34.8641  -25.6733  -23.9191  C     
25   O        34.9125  -24.7630  -23.0971  O     
26   C        35.4860  -24.1095  -25.7211  C     
27   C        36.9370  -24.1503  -26.2853  C     
28   C        37.1129  -25.2720  -27.3601  C     
29   C        36.5551  -26.6226  -26.8181  C     
30   C        35.1297  -26.4797  -26.2313  C     
31   N        35.1121  -25.4291  -25.2233  N     
32   N        38.5113  -25.4429  -27.9168  N     
33   C        38.8104  -24.5219  -29.0592  C     
34   C        39.6231  -25.4192  -26.9185  C     
35   H        37.3308  -33.8580  -17.8199  H     
36   H        35.6047  -32.7650  -19.0781  H     
37   H        38.2443  -29.5320  -19.8626  H     
38   H        39.9673  -33.5876  -17.0074  H     
39   H        40.9901  -29.3453  -19.8171  H     
40   H        43.0942  -30.2423  -19.4753  H     
41   H        43.2156  -28.9377  -18.3047  H     
42   H        43.8649  -30.8363  -17.1435  H     
43   H        39.5970  -28.1546  -18.1102  H     
44   H        41.2098  -27.4476  -18.2373  H     
45   H        40.8148  -28.5041  -16.8697  H     
46   H        36.7855  -28.8711  -20.9175  H     
47   H        32.6136  -27.3549  -24.0863  H     
48   H        35.4413  -23.3305  -24.9476  H     
49   H        34.7921  -23.8075  -26.5156  H     
50   H        37.1781  -23.1776  -26.7175  H     
51   H        37.6285  -24.3249  -25.4554  H     
52   H        36.4469  -25.0081  -28.1950  H     
53   H        36.5415  -27.3653  -27.6218  H     
54   H        37.1956  -26.9907  -26.0210  H     
55   H        34.4220  -26.2253  -27.0259  H     
56   H        34.8309  -27.4588  -25.8560  H     
57   H        38.5281  -26.3941  -28.3119  H     
58   H        38.0781  -24.6432  -29.8646  H     
59   H        39.7947  -24.7487  -29.4878  H     
60   H        38.8063  -23.4757  -28.7340  H     
61   H        39.7638  -24.4086  -26.5210  H     
62   H        40.5589  -25.7474  -27.3982  H     
63   H        39.4241  -26.1088  -26.0957  H     
@<TRIPOS>BOND
     1    1    2 2
     2    1    5 1
     3    2    3 1
     4    3    4 2
     5    3   16 1
     6    4    7 1
     7    5    6 1
     8    5    7 2
     9    6    8 1
    10    7   10 1
    11    8    9 1
    12    8   10 2
    13    9   13 1
    14    9   14 2
    15   10   11 1
    16   11   12 1
    17   11   15 1
    18   12   13 1
    19   16   17 2
    20   16   18 am
    21   18   19 1
    22   19   20 2
    23   19   23 1
    24   20   21 1
    25   21   22 2
    26   21   24 1
    27   22   23 1
    28   24   25 2
    29   24   31 1
    30   26   27 1
    31   26   31 1
    32   27   28 1
    33   28   29 1
    34   28   32 1
    35   29   30 1
    36   30   31 1
    37   32   33 1
    38   32   34 1
    39    1   35 1
    40    2   36 1
    41    4   37 1
    42    6   38 1
    43   11   39 1
    44   12   40 1
    45   12   41 1
    46   13   42 1
    47   15   43 1
    48   15   44 1
    49   15   45 1
    50   18   46 1
    51   22   47 1
    52   26   48 1
    53   26   49 1
    54   27   50 1
    55   27   51 1
    56   28   52 1
    57   29   53 1
    58   29   54 1
    59   30   55 1
    60   30   56 1
    61   32   57 1
    62   33   58 1
    63   33   59 1
    64   33   60 1
    65   34   61 1
    66   34   62 1
    67   34   63 1
@<TRIPOS>PROPERTY_DATA
  Total_Score	| 8.7397
  Crash		| -1.6601
  Polar		| 4.8174
  FragIndex	| 1
  FragRMSD	| 0.946

