@<TRIPOS>MOLECULE
BindingDB_30271
 57 61 0 0 0
SMALL
NO_CHARGES


@<TRIPOS>ATOM
1    C        37.5716  -32.9786  -18.1337  C     
2    C        36.5516  -32.3320  -18.8586  C     
3    C        36.7690  -31.0824  -19.5092  C     
4    C        38.0551  -30.4820  -19.3919  C     
5    C        38.8297  -32.3657  -18.0509  C     
6    N        39.9534  -32.7713  -17.4354  N     
7    C        39.0653  -31.1310  -18.6575  C     
8    C        40.9134  -31.8455  -17.6261  C     
9    C        42.2194  -31.8345  -17.1884  C     
10   C        40.3904  -30.7936  -18.3798  C     
11   C        41.1803  -29.5813  -18.7308  C     
12   C        42.7147  -29.8577  -18.5350  C     
13   N        43.0320  -30.8460  -17.5389  N     
14   O        42.6422  -32.7295  -16.4697  O     
15   C        40.6979  -28.3614  -17.8975  C     
16   C        35.7397  -30.4787  -20.2446  C     
17   O        34.5864  -30.8438  -20.0508  O     
18   N        35.9912  -29.5584  -21.1743  N     
19   C        35.1249  -28.9718  -22.0357  C     
20   N        35.5316  -28.1135  -22.9980  N     
21   C        34.5824  -27.6388  -23.8497  C     
22   C        33.2930  -28.1167  -23.5638  C     
23   S        33.4248  -29.1740  -22.2241  S     
24   C        34.8821  -26.7845  -24.9062  C     
25   O        34.0212  -26.5707  -25.7436  O     
26   N        36.1116  -26.2873  -25.0340  N     
27   C        36.6478  -25.3100  -25.9580  C     
28   C        34.9904  -24.6752  -27.9308  C     
29   C        35.9257  -25.4298  -28.9155  C     
30   C        36.7406  -26.5482  -28.2153  C     
31   C        37.5618  -25.9858  -27.0257  C     
32   C        35.7076  -24.2436  -26.6145  C     
33   H        37.3972  -33.8762  -17.6826  H     
34   H        35.6453  -32.8053  -18.9234  H     
35   H        38.2656  -29.5816  -19.8314  H     
36   H        40.0551  -33.5961  -16.9366  H     
37   H        41.0071  -29.3604  -19.7892  H     
38   H        43.1271  -30.2253  -19.4769  H     
39   H        43.2525  -28.9401  -18.2948  H     
40   H        43.9367  -30.8663  -17.1895  H     
41   H        39.6325  -28.1769  -18.0593  H     
42   H        41.2391  -27.4623  -18.1978  H     
43   H        40.8664  -28.5293  -16.8313  H     
44   H        36.9182  -29.3115  -21.2960  H     
45   H        32.4233  -27.9065  -24.0570  H     
46   H        36.7576  -26.6223  -24.3895  H     
47   H        37.3222  -24.7282  -25.3105  H     
48   H        34.6185  -23.7748  -28.4299  H     
49   H        34.1154  -25.2914  -27.6990  H     
50   H        35.3119  -25.8762  -29.7075  H     
51   H        36.6167  -24.7175  -29.3768  H     
52   H        36.0602  -27.3292  -27.8621  H     
53   H        37.4194  -27.0057  -28.9431  H     
54   H        38.2741  -25.2461  -27.4066  H     
55   H        38.1462  -26.7908  -26.5739  H     
56   H        34.9615  -23.9226  -25.8823  H     
57   H        36.3165  -23.3606  -26.8477  H     
@<TRIPOS>BOND
     1    1    2 2
     2    1    5 1
     3    2    3 1
     4    3    4 2
     5    3   16 1
     6    4    7 1
     7    5    6 1
     8    5    7 2
     9    6    8 1
    10    7   10 1
    11    8    9 1
    12    8   10 2
    13    9   13 1
    14    9   14 2
    15   10   11 1
    16   11   12 1
    17   11   15 1
    18   12   13 1
    19   16   17 2
    20   16   18 am
    21   18   19 1
    22   19   20 2
    23   19   23 1
    24   20   21 1
    25   21   22 2
    26   21   24 1
    27   22   23 1
    28   24   25 2
    29   24   26 am
    30   26   27 1
    31   27   31 1
    32   27   32 1
    33   28   29 1
    34   28   32 1
    35   29   30 1
    36   30   31 1
    37    1   33 1
    38    2   34 1
    39    4   35 1
    40    6   36 1
    41   11   37 1
    42   12   38 1
    43   12   39 1
    44   13   40 1
    45   15   41 1
    46   15   42 1
    47   15   43 1
    48   18   44 1
    49   22   45 1
    50   26   46 1
    51   27   47 1
    52   28   48 1
    53   28   49 1
    54   29   50 1
    55   29   51 1
    56   30   52 1
    57   30   53 1
    58   31   54 1
    59   31   55 1
    60   32   56 1
    61   32   57 1
@<TRIPOS>PROPERTY_DATA
  Total_Score	| 8.8414
  Crash		| -1.3546
  Polar		| 4.5563
  FragIndex	| 1
  FragRMSD	| 0.326

