@<TRIPOS>MOLECULE
BindingDB_30265
 50 53 0 0 0
SMALL
NO_CHARGES


@<TRIPOS>ATOM
1    C        37.6670  -32.9974  -18.1086  C     
2    C        36.6258  -32.3808  -18.8331  C     
3    C        36.8030  -31.1220  -19.4783  C     
4    C        38.0656  -30.4761  -19.3389  C     
5    C        38.9063  -32.3484  -18.0239  C     
6    N        40.0480  -32.7318  -17.4285  N     
7    C        39.1006  -31.0974  -18.6132  C     
8    C        40.9722  -31.7709  -17.5967  C     
9    C        42.2932  -31.7254  -17.1937  C     
10   C        40.4100  -30.7179  -18.3253  C     
11   C        41.1888  -29.5073  -18.7145  C     
12   C        42.4264  -29.3574  -17.7623  C     
13   N        43.0000  -30.6099  -17.3482  N     
14   O        42.8412  -32.7132  -16.7162  O     
15   C        41.6323  -29.5837  -20.1969  C     
16   C        35.7635  -30.5498  -20.2219  C     
17   O        34.6112  -30.9050  -20.0043  O     
18   N        36.0099  -29.6411  -21.1627  N     
19   C        35.1312  -29.0423  -22.0021  C     
20   N        35.5180  -28.1238  -22.9076  N     
21   C        34.5570  -27.5929  -23.7170  C     
22   C        33.2769  -28.1102  -23.4609  C     
23   S        33.4316  -29.2517  -22.1892  S     
24   C        34.8410  -26.6213  -24.6629  C     
25   O        33.9307  -26.1141  -25.2993  O     
26   N        36.0932  -26.2318  -24.8697  N     
27   C        36.5692  -25.1537  -25.6931  C     
28   C        37.6742  -25.6374  -26.6602  C     
29   N        37.1425  -26.4118  -27.7886  N     
30   H        37.5206  -33.9007  -17.6569  H     
31   H        35.7365  -32.8822  -18.8956  H     
32   H        38.2369  -29.5557  -19.7456  H     
33   H        40.1832  -33.5679  -16.9557  H     
34   H        40.5471  -28.6267  -18.5925  H     
35   H        43.2093  -28.7563  -18.2314  H     
36   H        42.1163  -28.8279  -16.8562  H     
37   H        43.9234  -30.6113  -17.0470  H     
38   H        42.3843  -30.3677  -20.3318  H     
39   H        42.0655  -28.6274  -20.4998  H     
40   H        40.7809  -29.7971  -20.8495  H     
41   H        36.9391  -29.3851  -21.2789  H     
42   H        32.3987  -27.8616  -23.9285  H     
43   H        36.7680  -26.6795  -24.3421  H     
44   H        35.7751  -24.6461  -26.2562  H     
45   H        37.0112  -24.4089  -25.0140  H     
46   H        38.2151  -24.7651  -27.0688  H     
47   H        38.3999  -26.2583  -26.1217  H     
48   H        36.4168  -27.0579  -27.4554  H     
49   H        37.8922  -26.9506  -28.2069  H     
50   H        36.7389  -25.7891  -28.4882  H     
@<TRIPOS>BOND
     1    1    2 2
     2    1    5 1
     3    2    3 1
     4    3    4 2
     5    3   16 1
     6    4    7 1
     7    5    6 1
     8    5    7 2
     9    6    8 1
    10    7   10 1
    11    8    9 1
    12    8   10 2
    13    9   13 1
    14    9   14 2
    15   10   11 1
    16   11   12 1
    17   11   15 1
    18   12   13 1
    19   16   17 2
    20   16   18 am
    21   18   19 1
    22   19   20 2
    23   19   23 1
    24   20   21 1
    25   21   22 2
    26   21   24 1
    27   22   23 1
    28   24   25 2
    29   24   26 am
    30   26   27 1
    31   27   28 1
    32   28   29 1
    33    1   30 1
    34    2   31 1
    35    4   32 1
    36    6   33 1
    37   11   34 1
    38   12   35 1
    39   12   36 1
    40   13   37 1
    41   15   38 1
    42   15   39 1
    43   15   40 1
    44   18   41 1
    45   22   42 1
    46   26   43 1
    47   27   44 1
    48   27   45 1
    49   28   46 1
    50   28   47 1
    51   29   48 1
    52   29   49 1
    53   29   50 1
@<TRIPOS>PROPERTY_DATA
  Total_Score	| 10.6400
  Crash		| -1.0466
  Polar		| 6.2071
  FragIndex	| 1
  FragRMSD	| 0.730

