@<TRIPOS>MOLECULE
BindingDB_30269
 48 51 0 0 0
SMALL
NO_CHARGES


@<TRIPOS>ATOM
1    C        37.4493  -33.1048  -18.2822  C     
2    C        36.4458  -32.4565  -19.0140  C     
3    C        36.6718  -31.1827  -19.6401  C     
4    C        37.9537  -30.5845  -19.4800  C     
5    C        38.7011  -32.4693  -18.1386  C     
6    N        39.7809  -32.8732  -17.4795  N     
7    C        38.9555  -31.2263  -18.7314  C     
8    C        40.7574  -31.9500  -17.6328  C     
9    C        42.0402  -31.9472  -17.1490  C     
10   C        40.2762  -30.9006  -18.4267  C     
11   C        41.1067  -29.7152  -18.7815  C     
12   C        42.6170  -30.0546  -18.5579  C     
13   N        42.8881  -30.9703  -17.4902  N     
14   O        42.4425  -32.8408  -16.4143  O     
15   C        40.6788  -28.4514  -17.9853  C     
16   C        35.6318  -30.5624  -20.3387  C     
17   O        34.4693  -30.9385  -20.1718  O     
18   N        35.8821  -29.6020  -21.2273  N     
19   C        35.0124  -28.9709  -22.0543  C     
20   N        35.4404  -28.0595  -22.9502  N     
21   C        34.4870  -27.5170  -23.7603  C     
22   C        33.2002  -28.0249  -23.5483  C     
23   S        33.3179  -29.1736  -22.2833  S     
24   C        34.8054  -26.5716  -24.7189  C     
25   O        33.9132  -26.0407  -25.3857  O     
26   N        36.0860  -26.2383  -24.8943  N     
27   C        36.5910  -25.2146  -25.7661  C     
28   C        37.2925  -25.8512  -27.0011  C     
29   O        38.6867  -26.1115  -26.7472  O     
30   H        37.2748  -34.0208  -17.8698  H     
31   H        35.5552  -32.9461  -19.1411  H     
32   H        38.1625  -29.6660  -19.8916  H     
33   H        39.8683  -33.7015  -16.9651  H     
34   H        40.9534  -29.5068  -19.8452  H     
35   H        43.0030  -30.5192  -19.4672  H     
36   H        43.2032  -29.1511  -18.3917  H     
37   H        43.7664  -30.9531  -17.0883  H     
38   H        39.6249  -28.2097  -18.1711  H     
39   H        41.2859  -27.5946  -18.3085  H     
40   H        40.8301  -28.5995  -16.9097  H     
41   H        36.8095  -29.3216  -21.3095  H     
42   H        32.3398  -27.7684  -24.0386  H     
43   H        36.7516  -26.7611  -24.4007  H     
44   H        35.7698  -24.5639  -26.1112  H     
45   H        37.2905  -24.6067  -25.1964  H     
46   H        36.7866  -26.7897  -27.2469  H     
47   H        37.2217  -25.1679  -27.8613  H     
48   H        38.8807  -26.9256  -27.2789  H     
@<TRIPOS>BOND
     1    1    2 2
     2    1    5 1
     3    2    3 1
     4    3    4 2
     5    3   16 1
     6    4    7 1
     7    5    6 1
     8    5    7 2
     9    6    8 1
    10    7   10 1
    11    8    9 1
    12    8   10 2
    13    9   13 1
    14    9   14 2
    15   10   11 1
    16   11   12 1
    17   11   15 1
    18   12   13 1
    19   16   17 2
    20   16   18 am
    21   18   19 1
    22   19   20 2
    23   19   23 1
    24   20   21 1
    25   21   22 2
    26   21   24 1
    27   22   23 1
    28   24   25 2
    29   24   26 am
    30   26   27 1
    31   27   28 1
    32   28   29 1
    33    1   30 1
    34    2   31 1
    35    4   32 1
    36    6   33 1
    37   11   34 1
    38   12   35 1
    39   12   36 1
    40   13   37 1
    41   15   38 1
    42   15   39 1
    43   15   40 1
    44   18   41 1
    45   22   42 1
    46   26   43 1
    47   27   44 1
    48   27   45 1
    49   28   46 1
    50   28   47 1
    51   29   48 1
@<TRIPOS>PROPERTY_DATA
  Total_Score	| 9.4138
  Crash		| -0.8825
  Polar		| 5.3368
  FragIndex	| 1
  FragRMSD	| 0.451

