@<TRIPOS>MOLECULE
BindingDB_30268
 51 54 0 0 0
SMALL
NO_CHARGES


@<TRIPOS>ATOM
1    C        37.7097  -33.0452  -18.1915  C     
2    C        36.6810  -32.4196  -18.9225  C     
3    C        36.8397  -31.1223  -19.5024  C     
4    C        38.0930  -30.4703  -19.3172  C     
5    C        38.9280  -32.3677  -18.0344  C     
6    N        40.0515  -32.7491  -17.4101  N     
7    C        39.1172  -31.1002  -18.5862  C     
8    C        40.9742  -31.7777  -17.5396  C     
9    C        42.2939  -31.7564  -17.1320  C     
10   C        40.4159  -30.7183  -18.2650  C     
11   C        41.2054  -29.5187  -18.6598  C     
12   C        42.4993  -29.4034  -17.7759  C     
13   N        43.0262  -30.6627  -17.3237  N     
14   O        42.8258  -32.7440  -16.6440  O     
15   C        41.5767  -29.5814  -20.1697  C     
16   C        35.7943  -30.5361  -20.2254  C     
17   O        34.6551  -30.9459  -20.0507  O     
18   N        36.0223  -29.5660  -21.1115  N     
19   C        35.1433  -28.9965  -21.9645  C     
20   N        35.5025  -28.0678  -22.8816  N     
21   C        34.5248  -27.6086  -23.7147  C     
22   C        33.2663  -28.1798  -23.4645  C     
23   S        33.4612  -29.2942  -22.1769  S     
24   C        34.7545  -26.6405  -24.6821  C     
25   O        33.8119  -26.2345  -25.3533  O     
26   N        35.9702  -26.1176  -24.8310  N     
27   C        36.3096  -24.9736  -25.6265  C     
28   C        37.3949  -25.2770  -26.6864  C     
29   C        38.7561  -25.2428  -26.1965  C     
30   O        39.1502  -24.2676  -25.5801  O     
31   N        39.6134  -26.2022  -26.4433  N     
32   H        37.5730  -33.9766  -17.7938  H     
33   H        35.8029  -32.9412  -19.0443  H     
34   H        38.2617  -29.5356  -19.6875  H     
35   H        40.1895  -33.6015  -16.9613  H     
36   H        40.5886  -28.6299  -18.4887  H     
37   H        43.2930  -28.8738  -18.3150  H     
38   H        42.2728  -28.8109  -16.8811  H     
39   H        43.9549  -30.6805  -17.0398  H     
40   H        42.3058  -30.3806  -20.3491  H     
41   H        42.0016  -28.6198  -20.4856  H     
42   H        40.6902  -29.7808  -20.7781  H     
43   H        36.9416  -29.2680  -21.1892  H     
44   H        32.3913  -27.9832  -23.9563  H     
45   H        36.6947  -26.5121  -24.3192  H     
46   H        35.4366  -24.5482  -26.1423  H     
47   H        36.6869  -24.2056  -24.9509  H     
48   H        37.1810  -26.2451  -27.1361  H     
49   H        37.3011  -24.5253  -27.4776  H     
50   H        40.5273  -26.1281  -26.1217  H     
51   H        39.3490  -26.9847  -26.9500  H     
@<TRIPOS>BOND
     1    1    2 2
     2    1    5 1
     3    2    3 1
     4    3    4 2
     5    3   16 1
     6    4    7 1
     7    5    6 1
     8    5    7 2
     9    6    8 1
    10    7   10 1
    11    8    9 1
    12    8   10 2
    13    9   13 1
    14    9   14 2
    15   10   11 1
    16   11   12 1
    17   11   15 1
    18   12   13 1
    19   16   17 2
    20   16   18 am
    21   18   19 1
    22   19   20 2
    23   19   23 1
    24   20   21 1
    25   21   22 2
    26   21   24 1
    27   22   23 1
    28   24   25 2
    29   24   26 am
    30   26   27 1
    31   27   28 1
    32   28   29 1
    33   29   30 2
    34   29   31 am
    35    1   32 1
    36    2   33 1
    37    4   34 1
    38    6   35 1
    39   11   36 1
    40   12   37 1
    41   12   38 1
    42   13   39 1
    43   15   40 1
    44   15   41 1
    45   15   42 1
    46   18   43 1
    47   22   44 1
    48   26   45 1
    49   27   46 1
    50   27   47 1
    51   28   48 1
    52   28   49 1
    53   31   50 1
    54   31   51 1
@<TRIPOS>PROPERTY_DATA
  Total_Score	| 9.7950
  Crash		| -1.1280
  Polar		| 5.6973
  FragIndex	| 1
  FragRMSD	| 0.694

