@<TRIPOS>MOLECULE
BindingDB_30259
 41 44 0 0 0
SMALL
NO_CHARGES


@<TRIPOS>ATOM
1    C        37.7199  -33.0821  -18.2947  C     
2    C        36.6842  -32.4802  -19.0355  C     
3    C        36.8325  -31.1974  -19.6414  C     
4    C        38.0803  -30.5302  -19.4655  C     
5    C        38.9327  -32.3944  -18.1463  C     
6    N        40.0619  -32.7511  -17.5057  N     
7    C        39.1117  -31.1359  -18.7176  C     
8    C        40.9745  -31.7691  -17.6401  C     
9    C        42.2897  -31.7006  -17.2099  C     
10   C        40.4035  -30.7312  -18.3839  C     
11   C        41.1667  -29.5153  -18.7655  C     
12   C        42.3868  -29.3365  -17.7963  C     
13   N        42.9813  -30.5747  -17.3701  N     
14   O        42.8551  -32.6747  -16.7285  O     
15   C        41.6198  -29.5964  -20.2451  C     
16   C        35.7762  -30.6242  -20.3684  C     
17   O        34.6400  -31.0605  -20.2142  O     
18   N        35.9691  -29.5951  -21.1947  N     
19   C        35.0618  -28.9625  -21.9804  C     
20   N        35.3893  -27.8850  -22.7279  N     
21   C        34.3995  -27.3199  -23.4740  C     
22   C        33.1659  -27.9791  -23.3478  C     
23   S        33.3917  -29.2761  -22.2507  S     
24   C        34.6259  -26.1907  -24.2453  C     
25   O        35.7315  -25.6665  -24.2679  O     
26   N        33.6887  -25.6007  -24.9472  N     
27   H        37.5835  -33.9982  -17.8675  H     
28   H        35.8111  -33.0053  -19.1282  H     
29   H        38.2455  -29.6015  -19.8553  H     
30   H        40.1993  -33.5905  -17.0381  H     
31   H        40.5096  -28.6470  -18.6525  H     
32   H        43.1617  -28.7144  -18.2486  H     
33   H        42.0510  -28.8194  -16.8927  H     
34   H        43.8987  -30.5551  -17.0553  H     
35   H        42.4396  -30.3087  -20.3640  H     
36   H        41.9692  -28.6172  -20.5726  H     
37   H        40.7955  -29.9029  -20.8948  H     
38   H        36.8756  -29.2506  -21.2482  H     
39   H        32.2812  -27.7295  -23.7946  H     
40   H        33.8923  -24.7970  -25.4454  H     
41   H        32.7782  -25.9519  -24.9571  H     
@<TRIPOS>BOND
     1    1    2 2
     2    1    5 1
     3    2    3 1
     4    3    4 2
     5    3   16 1
     6    4    7 1
     7    5    6 1
     8    5    7 2
     9    6    8 1
    10    7   10 1
    11    8    9 1
    12    8   10 2
    13    9   13 1
    14    9   14 2
    15   10   11 1
    16   11   12 1
    17   11   15 1
    18   12   13 1
    19   16   17 2
    20   16   18 am
    21   18   19 1
    22   19   20 2
    23   19   23 1
    24   20   21 1
    25   21   22 2
    26   21   24 1
    27   22   23 1
    28   24   25 2
    29   24   26 am
    30    1   27 1
    31    2   28 1
    32    4   29 1
    33    6   30 1
    34   11   31 1
    35   12   32 1
    36   12   33 1
    37   13   34 1
    38   15   35 1
    39   15   36 1
    40   15   37 1
    41   18   38 1
    42   22   39 1
    43   26   40 1
    44   26   41 1
@<TRIPOS>PROPERTY_DATA
  Total_Score	| 7.8960
  Crash		| -0.7802
  Polar		| 3.8456
  FragIndex	| 1
  FragRMSD	| 0.983

