@<TRIPOS>MOLECULE
BindingDB_30262
 44 47 0 0 0
SMALL
NO_CHARGES


@<TRIPOS>ATOM
1    C        37.7644  -33.0902  -18.2744  C     
2    C        36.7051  -32.4546  -18.9505  C     
3    C        36.8346  -31.1378  -19.4837  C     
4    C        38.0755  -30.4645  -19.2998  C     
5    C        38.9780  -32.4025  -18.1273  C     
6    N        40.1298  -32.7863  -17.5471  N     
7    C        39.1249  -31.1017  -18.6130  C     
8    C        41.0235  -31.7850  -17.6511  C     
9    C        42.3428  -31.7347  -17.2466  C     
10   C        40.4232  -30.7027  -18.2988  C     
11   C        41.1667  -29.4529  -18.6223  C     
12   C        42.4729  -29.3483  -17.7566  C     
13   N        43.0390  -30.6095  -17.3609  N     
14   O        42.8973  -32.7238  -16.7903  O     
15   C        41.4778  -29.4035  -20.1421  C     
16   C        35.7807  -30.5504  -20.1956  C     
17   O        34.6361  -30.9559  -20.0153  O     
18   N        36.0010  -29.5887  -21.0938  N     
19   C        35.1190  -29.0104  -21.9424  C     
20   N        35.5096  -28.0977  -22.8605  N     
21   C        34.5534  -27.6228  -23.7090  C     
22   C        33.2725  -28.1540  -23.4645  C     
23   S        33.4250  -29.2607  -22.1645  S     
24   C        34.8505  -26.7193  -24.7160  C     
25   O        33.9581  -26.2737  -25.4260  O     
26   N        36.1163  -26.3283  -24.9086  N     
27   C        36.5485  -25.3932  -25.8910  C     
28   H        37.6504  -34.0356  -17.9055  H     
29   H        35.8339  -32.9791  -19.0618  H     
30   H        38.2256  -29.5157  -19.6466  H     
31   H        40.2907  -33.6416  -17.1253  H     
32   H        40.5223  -28.5998  -18.3830  H     
33   H        43.2468  -28.7760  -18.2757  H     
34   H        42.2375  -28.8039  -16.8408  H     
35   H        43.9549  -30.6124  -17.0441  H     
36   H        42.1419  -30.2203  -20.4343  H     
37   H        41.9561  -28.4619  -20.4038  H     
38   H        40.5636  -29.4808  -20.7263  H     
39   H        36.9228  -29.3003  -21.2050  H     
40   H        32.4158  -27.9481  -23.9718  H     
41   H        36.8008  -26.7242  -24.3501  H     
42   H        36.3311  -25.7559  -26.9025  H     
43   H        37.6347  -25.2573  -25.7882  H     
44   H        36.0577  -24.4240  -25.7304  H     
@<TRIPOS>BOND
     1    1    2 2
     2    1    5 1
     3    2    3 1
     4    3    4 2
     5    3   16 1
     6    4    7 1
     7    5    6 1
     8    5    7 2
     9    6    8 1
    10    7   10 1
    11    8    9 1
    12    8   10 2
    13    9   13 1
    14    9   14 2
    15   10   11 1
    16   11   12 1
    17   11   15 1
    18   12   13 1
    19   16   17 2
    20   16   18 am
    21   18   19 1
    22   19   20 2
    23   19   23 1
    24   20   21 1
    25   21   22 2
    26   21   24 1
    27   22   23 1
    28   24   25 2
    29   24   26 am
    30   26   27 1
    31    1   28 1
    32    2   29 1
    33    4   30 1
    34    6   31 1
    35   11   32 1
    36   12   33 1
    37   12   34 1
    38   13   35 1
    39   15   36 1
    40   15   37 1
    41   15   38 1
    42   18   39 1
    43   22   40 1
    44   26   41 1
    45   27   42 1
    46   27   43 1
    47   27   44 1
@<TRIPOS>PROPERTY_DATA
  Total_Score	| 9.3441
  Crash		| -1.0001
  Polar		| 5.0345
  FragIndex	| 1
  FragRMSD	| 0.629

