@<TRIPOS>MOLECULE
BindingDB_30267
 48 51 0 0 0
SMALL
NO_CHARGES


@<TRIPOS>ATOM
1    C        37.7029  -32.9883  -18.0194  C     
2    C        36.6733  -32.4007  -18.7805  C     
3    C        36.8586  -31.1788  -19.4882  C     
4    C        38.1267  -30.5424  -19.3869  C     
5    C        38.9436  -32.3419  -17.9532  C     
6    N        40.0755  -32.6989  -17.3205  N     
7    C        39.1505  -31.1298  -18.6186  C     
8    C        41.0132  -31.7674  -17.5467  C     
9    C        42.3313  -31.7259  -17.1657  C     
10   C        40.4669  -30.7513  -18.3356  C     
11   C        41.2603  -29.5589  -18.7503  C     
12   C        42.4829  -29.3764  -17.7882  C     
13   N        43.0540  -30.6195  -17.3535  N     
14   O        42.8845  -32.7101  -16.6750  O     
15   C        41.7202  -29.6905  -20.2313  C     
16   C        35.8154  -30.6236  -20.2468  C     
17   O        34.6600  -30.9924  -20.0366  O     
18   N        36.0477  -29.6867  -21.1606  N     
19   C        35.1782  -29.0667  -21.9867  C     
20   N        35.5635  -28.0958  -22.8420  N     
21   C        34.5988  -27.5462  -23.6295  C     
22   C        33.3312  -28.1095  -23.4379  C     
23   S        33.4828  -29.3144  -22.2188  S     
24   C        34.8733  -26.4981  -24.4889  C     
25   O        33.9374  -26.0180  -25.1451  O     
26   N        36.1024  -26.0348  -24.6304  N     
27   C        36.5372  -24.9481  -25.4671  C     
28   C        37.6227  -25.4366  -26.2825  C     
29   O        38.7613  -24.9835  -26.1885  O     
30   N        37.4158  -26.4180  -27.1497  N     
31   H        37.5397  -33.8714  -17.5179  H     
32   H        35.7767  -32.9095  -18.8309  H     
33   H        38.3312  -29.6662  -19.8630  H     
34   H        40.1866  -33.5080  -16.7982  H     
35   H        40.6195  -28.6699  -18.6804  H     
36   H        43.2706  -28.7847  -18.2712  H     
37   H        42.1616  -28.8262  -16.9021  H     
38   H        43.9833  -30.6253  -17.0638  H     
39   H        42.5796  -30.3775  -20.3084  H     
40   H        42.0514  -28.7150  -20.6023  H     
41   H        40.9048  -30.0544  -20.8799  H     
42   H        36.9747  -29.4148  -21.2604  H     
43   H        32.4591  -27.8472  -23.9085  H     
44   H        36.7925  -26.4718  -24.1083  H     
45   H        35.7554  -24.5735  -26.1316  H     
46   H        36.8812  -24.1379  -24.8184  H     
47   H        38.1607  -26.8234  -27.6501  H     
48   H        36.5238  -26.8015  -27.2480  H     
@<TRIPOS>BOND
     1    1    2 2
     2    1    5 1
     3    2    3 1
     4    3    4 2
     5    3   16 1
     6    4    7 1
     7    5    6 1
     8    5    7 2
     9    6    8 1
    10    7   10 1
    11    8    9 1
    12    8   10 2
    13    9   13 1
    14    9   14 2
    15   10   11 1
    16   11   12 1
    17   11   15 1
    18   12   13 1
    19   16   17 2
    20   16   18 am
    21   18   19 1
    22   19   20 2
    23   19   23 1
    24   20   21 1
    25   21   22 2
    26   21   24 1
    27   22   23 1
    28   24   25 2
    29   24   26 am
    30   26   27 1
    31   27   28 1
    32   28   29 2
    33   28   30 am
    34    1   31 1
    35    2   32 1
    36    4   33 1
    37    6   34 1
    38   11   35 1
    39   12   36 1
    40   12   37 1
    41   13   38 1
    42   15   39 1
    43   15   40 1
    44   15   41 1
    45   18   42 1
    46   22   43 1
    47   26   44 1
    48   27   45 1
    49   27   46 1
    50   30   47 1
    51   30   48 1
@<TRIPOS>PROPERTY_DATA
  Total_Score	| 9.7598
  Crash		| -1.1442
  Polar		| 5.9148
  FragIndex	| 1
  FragRMSD	| 0.796

