@<TRIPOS>MOLECULE
BindingDB_30266
 59 62 0 0 0
SMALL
NO_CHARGES


@<TRIPOS>ATOM
1    C        37.6936  -33.0285  -18.2013  C     
2    C        36.6642  -32.4260  -18.9513  C     
3    C        36.8304  -31.1545  -19.5778  C     
4    C        38.0824  -30.4957  -19.4087  C     
5    C        38.9185  -32.3520  -18.0719  C     
6    N        40.0447  -32.7193  -17.4405  N     
7    C        39.1104  -31.1002  -18.6594  C     
8    C        40.9704  -31.7513  -17.5943  C     
9    C        42.2895  -31.6935  -17.1850  C     
10   C        40.4118  -30.7113  -18.3422  C     
11   C        41.1862  -29.5050  -18.7450  C     
12   C        42.4252  -29.3377  -17.7991  C     
13   N        42.9980  -30.5854  -17.3643  N     
14   O        42.8419  -32.6750  -16.7071  O     
15   C        41.6162  -29.6064  -20.2319  C     
16   C        35.7812  -30.5935  -20.3223  C     
17   O        34.6429  -31.0233  -20.1743  O     
18   N        35.9972  -29.6149  -21.1964  N     
19   C        35.1114  -29.0050  -22.0175  C     
20   N        35.4996  -27.9994  -22.8314  N     
21   C        34.5494  -27.4376  -23.6312  C     
22   C        33.2790  -28.0134  -23.4681  C     
23   S        33.4318  -29.2589  -22.2930  S     
24   C        34.8490  -26.3710  -24.4640  C     
25   O        33.9416  -25.7935  -25.0588  O     
26   N        36.1174  -25.9742  -24.5831  N     
27   C        36.6055  -24.7954  -25.2316  C     
28   C        37.8594  -25.0925  -26.1094  C     
29   C        37.6829  -24.8499  -27.6452  C     
30   N        37.5960  -26.1245  -28.4442  N     
31   C        36.4073  -26.9596  -28.0817  C     
32   C        37.6690  -25.8890  -29.9199  C     
33   H        37.5519  -33.9419  -17.7629  H     
34   H        35.7896  -32.9470  -19.0470  H     
35   H        38.2562  -29.5762  -19.8157  H     
36   H        40.1817  -33.5532  -16.9594  H     
37   H        40.5395  -28.6289  -18.6295  H     
38   H        43.2017  -28.7407  -18.2804  H     
39   H        42.1177  -28.7971  -16.9011  H     
40   H        43.9245  -30.5820  -17.0757  H     
41   H        42.4154  -30.3418  -20.3556  H     
42   H        41.9845  -28.6345  -20.5723  H     
43   H        40.7751  -29.8948  -20.8689  H     
44   H        36.9080  -29.2927  -21.2614  H     
45   H        32.4092  -27.7494  -23.9487  H     
46   H        36.7829  -26.5232  -24.1318  H     
47   H        35.8298  -24.2788  -25.8113  H     
48   H        36.9069  -24.1247  -24.4112  H     
49   H        38.6722  -24.4460  -25.7541  H     
50   H        38.2047  -26.1174  -25.9345  H     
51   H        36.8053  -24.2209  -27.8548  H     
52   H        38.5612  -24.2776  -27.9739  H     
53   H        38.4099  -26.7044  -28.2093  H     
54   H        36.2992  -27.0601  -26.9929  H     
55   H        36.5488  -27.9700  -28.4832  H     
56   H        35.4771  -26.5469  -28.4826  H     
57   H        36.8017  -25.3167  -30.2714  H     
58   H        37.7040  -26.8457  -30.4573  H     
59   H        38.5799  -25.3381  -30.1799  H     
@<TRIPOS>BOND
     1    1    2 2
     2    1    5 1
     3    2    3 1
     4    3    4 2
     5    3   16 1
     6    4    7 1
     7    5    6 1
     8    5    7 2
     9    6    8 1
    10    7   10 1
    11    8    9 1
    12    8   10 2
    13    9   13 1
    14    9   14 2
    15   10   11 1
    16   11   12 1
    17   11   15 1
    18   12   13 1
    19   16   17 2
    20   16   18 am
    21   18   19 1
    22   19   20 2
    23   19   23 1
    24   20   21 1
    25   21   22 2
    26   21   24 1
    27   22   23 1
    28   24   25 2
    29   24   26 am
    30   26   27 1
    31   27   28 1
    32   28   29 1
    33   29   30 1
    34   30   31 1
    35   30   32 1
    36    1   33 1
    37    2   34 1
    38    4   35 1
    39    6   36 1
    40   11   37 1
    41   12   38 1
    42   12   39 1
    43   13   40 1
    44   15   41 1
    45   15   42 1
    46   15   43 1
    47   18   44 1
    48   22   45 1
    49   26   46 1
    50   27   47 1
    51   27   48 1
    52   28   49 1
    53   28   50 1
    54   29   51 1
    55   29   52 1
    56   30   53 1
    57   31   54 1
    58   31   55 1
    59   31   56 1
    60   32   57 1
    61   32   58 1
    62   32   59 1
@<TRIPOS>PROPERTY_DATA
  Total_Score	| 11.0874
  Crash		| -1.3417
  Polar		| 6.4323
  FragIndex	| 1
  FragRMSD	| 0.798

