@<TRIPOS>MOLECULE
BindingDB_30264
 56 59 0 0 0
SMALL
NO_CHARGES


@<TRIPOS>ATOM
1    C        37.6146  -32.9078  -17.9652  C     
2    C        36.5850  -32.2948  -18.7173  C     
3    C        36.7947  -31.0728  -19.4223  C     
4    C        38.0763  -30.4622  -19.3241  C     
5    C        38.8720  -32.2963  -17.9241  C     
6    N        40.0112  -32.6865  -17.3171  N     
7    C        39.1009  -31.0832  -18.5756  C     
8    C        40.9648  -31.7665  -17.5382  C     
9    C        42.2909  -31.7363  -17.1549  C     
10   C        40.4189  -30.7293  -18.3134  C     
11   C        41.2142  -29.5410  -18.7238  C     
12   C        42.4549  -29.3900  -17.7782  C     
13   N        43.0202  -30.6489  -17.3542  N     
14   O        42.8213  -32.7192  -16.6477  O     
15   C        41.6356  -29.6352  -20.2146  C     
16   C        35.7630  -30.5084  -20.1969  C     
17   O        34.6201  -30.9129  -20.0348  O     
18   N        36.0004  -29.5808  -21.1252  N     
19   C        35.1353  -29.0077  -21.9910  C     
20   N        35.5367  -28.1166  -22.9232  N     
21   C        34.5783  -27.6274  -23.7593  C     
22   C        33.2894  -28.1366  -23.5020  C     
23   S        33.4389  -29.2228  -22.1881  S     
24   C        34.8795  -26.6987  -24.7517  C     
25   O        33.9689  -26.2497  -25.4475  O     
26   N        36.1348  -26.2645  -24.9488  N     
27   C        36.4933  -25.1263  -25.7567  C     
28   C        36.7244  -25.4539  -27.2709  C     
29   N        38.1215  -25.6480  -27.8404  N     
30   C        38.2495  -25.0832  -29.2152  C     
31   C        39.2710  -25.2214  -26.9880  C     
32   H        37.4409  -33.7834  -17.4684  H     
33   H        35.6829  -32.7725  -18.7504  H     
34   H        38.2803  -29.5740  -19.7819  H     
35   H        40.1210  -33.5022  -16.8097  H     
36   H        40.5812  -28.6559  -18.6068  H     
37   H        43.2363  -28.7865  -18.2499  H     
38   H        42.1446  -28.8655  -16.8714  H     
39   H        43.9459  -30.6557  -17.0670  H     
40   H        42.4836  -30.3153  -20.3354  H     
41   H        41.9406  -28.6491  -20.5704  H     
42   H        40.8134  -29.9886  -20.8426  H     
43   H        36.9187  -29.2959  -21.2199  H     
44   H        32.4190  -27.9127  -23.9787  H     
45   H        36.8430  -26.6459  -24.3897  H     
46   H        35.7242  -24.3447  -25.6835  H     
47   H        37.3736  -24.6735  -25.3096  H     
48   H        36.1797  -26.3829  -27.5029  H     
49   H        36.1934  -24.6577  -27.8404  H     
50   H        38.2420  -26.6554  -27.9531  H     
51   H        37.4756  -25.4911  -29.8686  H     
52   H        39.2163  -25.3411  -29.6585  H     
53   H        38.1530  -23.9930  -29.2095  H     
54   H        39.2742  -24.1471  -26.8021  H     
55   H        40.2331  -25.4781  -27.4701  H     
56   H        39.2784  -25.7646  -26.0568  H     
@<TRIPOS>BOND
     1    1    2 2
     2    1    5 1
     3    2    3 1
     4    3    4 2
     5    3   16 1
     6    4    7 1
     7    5    6 1
     8    5    7 2
     9    6    8 1
    10    7   10 1
    11    8    9 1
    12    8   10 2
    13    9   13 1
    14    9   14 2
    15   10   11 1
    16   11   12 1
    17   11   15 1
    18   12   13 1
    19   16   17 2
    20   16   18 am
    21   18   19 1
    22   19   20 2
    23   19   23 1
    24   20   21 1
    25   21   22 2
    26   21   24 1
    27   22   23 1
    28   24   25 2
    29   24   26 am
    30   26   27 1
    31   27   28 1
    32   28   29 1
    33   29   30 1
    34   29   31 1
    35    1   32 1
    36    2   33 1
    37    4   34 1
    38    6   35 1
    39   11   36 1
    40   12   37 1
    41   12   38 1
    42   13   39 1
    43   15   40 1
    44   15   41 1
    45   15   42 1
    46   18   43 1
    47   22   44 1
    48   26   45 1
    49   27   46 1
    50   27   47 1
    51   28   48 1
    52   28   49 1
    53   29   50 1
    54   30   51 1
    55   30   52 1
    56   30   53 1
    57   31   54 1
    58   31   55 1
    59   31   56 1
@<TRIPOS>PROPERTY_DATA
  Total_Score	| 10.7024
  Crash		| -1.0837
  Polar		| 6.6967
  FragIndex	| 1
  FragRMSD	| 0.731

