@<TRIPOS>MOLECULE
BindingDB_30270
 50 53 0 0 0
SMALL
NO_CHARGES


@<TRIPOS>ATOM
1    C        37.7537  -33.0421  -18.2458  C     
2    C        36.6968  -32.4166  -18.9347  C     
3    C        36.8260  -31.1045  -19.4703  C     
4    C        38.0631  -30.4280  -19.2729  C     
5    C        38.9648  -32.3545  -18.0880  C     
6    N        40.1141  -32.7465  -17.5111  N     
7    C        39.1193  -31.0623  -18.5847  C     
8    C        41.0158  -31.7509  -17.6157  C     
9    C        42.3396  -31.7149  -17.2219  C     
10   C        40.4215  -30.6669  -18.2669  C     
11   C        41.1627  -29.4200  -18.5873  C     
12   C        42.4916  -29.3344  -17.7537  C     
13   N        43.0449  -30.5954  -17.3486  N     
14   O        42.9005  -32.7122  -16.8027  O     
15   C        41.4214  -29.3325  -20.1197  C     
16   C        35.7649  -30.5352  -20.1951  C     
17   O        34.6239  -30.9508  -20.0226  O     
18   N        35.9856  -29.5775  -21.0916  N     
19   C        35.1110  -29.0077  -21.9534  C     
20   N        35.5120  -28.0872  -22.8623  N     
21   C        34.5701  -27.5997  -23.7160  C     
22   C        33.2912  -28.1437  -23.5029  C     
23   S        33.4254  -29.2631  -22.2066  S     
24   C        34.8713  -26.6476  -24.6807  C     
25   O        33.9709  -26.1031  -25.3046  O     
26   N        36.1429  -26.3063  -24.8825  N     
27   C        36.6407  -25.2500  -25.7107  C     
28   C        37.5095  -25.7864  -26.8808  C     
29   C        36.6999  -26.5207  -27.9751  C     
30   H        37.6450  -33.9885  -17.8880  H     
31   H        35.8307  -32.9510  -19.0511  H     
32   H        38.2032  -29.4785  -19.6188  H     
33   H        40.2681  -33.6174  -17.1136  H     
34   H        40.5285  -28.5670  -18.3074  H     
35   H        43.2575  -28.7948  -18.3099  H     
36   H        42.3087  -28.7601  -16.8412  H     
37   H        43.9650  -30.6013  -17.0480  H     
38   H        42.1027  -30.1237  -20.4397  H     
39   H        41.8545  -28.3612  -20.3717  H     
40   H        40.4876  -29.4275  -20.6697  H     
41   H        36.9025  -29.2648  -21.1706  H     
42   H        32.4381  -27.9305  -24.0226  H     
43   H        36.8108  -26.8090  -24.3945  H     
44   H        35.8413  -24.6095  -26.1038  H     
45   H        37.2669  -24.6226  -25.0712  H     
46   H        38.0067  -24.9284  -27.3466  H     
47   H        38.2812  -26.4635  -26.4964  H     
48   H        36.2723  -27.4432  -27.5669  H     
49   H        37.3664  -26.7817  -28.8104  H     
50   H        35.8917  -25.8867  -28.3528  H     
@<TRIPOS>BOND
     1    1    2 2
     2    1    5 1
     3    2    3 1
     4    3    4 2
     5    3   16 1
     6    4    7 1
     7    5    6 1
     8    5    7 2
     9    6    8 1
    10    7   10 1
    11    8    9 1
    12    8   10 2
    13    9   13 1
    14    9   14 2
    15   10   11 1
    16   11   12 1
    17   11   15 1
    18   12   13 1
    19   16   17 2
    20   16   18 am
    21   18   19 1
    22   19   20 2
    23   19   23 1
    24   20   21 1
    25   21   22 2
    26   21   24 1
    27   22   23 1
    28   24   25 2
    29   24   26 am
    30   26   27 1
    31   27   28 1
    32   28   29 1
    33    1   30 1
    34    2   31 1
    35    4   32 1
    36    6   33 1
    37   11   34 1
    38   12   35 1
    39   12   36 1
    40   13   37 1
    41   15   38 1
    42   15   39 1
    43   15   40 1
    44   18   41 1
    45   22   42 1
    46   26   43 1
    47   27   44 1
    48   27   45 1
    49   28   46 1
    50   28   47 1
    51   29   48 1
    52   29   49 1
    53   29   50 1
@<TRIPOS>PROPERTY_DATA
  Total_Score	| 10.1431
  Crash		| -0.9831
  Polar		| 5.0347
  FragIndex	| 1
  FragRMSD	| 0.642

