@<TRIPOS>MOLECULE
BindingDB_50265027
 34 36 0 0 0
SMALL
NO_CHARGES


@<TRIPOS>ATOM
1    C       -14.5880  -34.9257  -20.2359  C     
2    C       -13.4254  -34.1977  -20.5052  C     
3    N       -12.6306  -33.8193  -19.4621  N     
4    C       -14.9019  -35.2746  -18.9760  C     
5    C       -14.0577  -34.8908  -17.9568  C     
6    N       -12.9487  -34.1631  -18.2233  N     
7    C       -12.2985  -33.9665  -17.0609  C     
8    C       -13.0518  -34.6082  -16.0779  C     
9    N       -14.1386  -35.1539  -16.6489  N     
10   N       -13.1400  -33.8946  -21.7903  N     
11   C       -12.0241  -33.1251  -22.2470  C     
12   C       -12.3597  -31.6177  -22.2901  C     
13   C       -11.1065  -33.2421  -16.8490  C     
14   C       -10.9318  -31.9718  -17.4380  C     
15   C        -9.7663  -31.2230  -17.1987  C     
16   C        -8.7313  -31.7598  -16.4044  C     
17   C        -8.8893  -33.0415  -15.8323  C     
18   C       -10.0805  -33.7678  -16.0337  C     
19   O       -12.1467  -31.0381  -21.0046  O     
20   C        -7.6421  -31.0727  -16.2144  C     
21   N        -6.6861  -30.4572  -16.0557  N     
22   H       -15.1792  -35.2169  -20.9827  H     
23   H       -15.7187  -35.8152  -18.7834  H     
24   H       -12.8313  -34.6454  -15.0773  H     
25   H       -13.8227  -34.1263  -22.4562  H     
26   H       -11.1237  -33.3227  -21.6532  H     
27   H       -11.8059  -33.4717  -23.2613  H     
28   H       -11.7056  -31.1104  -23.0055  H     
29   H       -13.3901  -31.4503  -22.6017  H     
30   H       -11.6614  -31.5613  -18.0195  H     
31   H        -9.6815  -30.2840  -17.6093  H     
32   H        -8.1400  -33.4615  -15.2731  H     
33   H       -10.1777  -34.6955  -15.6060  H     
34   H       -12.5231  -30.1366  -21.0845  H     
@<TRIPOS>BOND
     1    1    2 1
     2    1    4 2
     3    2    3 2
     4    2   10 1
     5    3    6 1
     6    4    5 1
     7    5    6 1
     8    5    9 2
     9    6    7 1
    10    7    8 2
    11    7   13 1
    12    8    9 1
    13   10   11 1
    14   11   12 1
    15   12   19 1
    16   13   14 2
    17   13   18 1
    18   14   15 1
    19   15   16 2
    20   16   17 1
    21   16   20 1
    22   17   18 2
    23   20   21 3
    24    1   22 1
    25    4   23 1
    26    8   24 1
    27   10   25 1
    28   11   26 1
    29   11   27 1
    30   12   28 1
    31   12   29 1
    32   14   30 1
    33   15   31 1
    34   17   32 1
    35   18   33 1
    36   19   34 1
@<TRIPOS>PROPERTY_DATA
  Total_Score	| 7.2844
  Crash		| -0.7283
  Polar		| 3.4400
  FragIndex	| 1
  FragRMSD	| 0.499

