@<TRIPOS>MOLECULE
BindingDB_50264943
 46 48 0 0 0
SMALL
NO_CHARGES


@<TRIPOS>ATOM
1    C       -14.7165  -35.0545  -20.2330  C     
2    C       -13.5624  -34.3387  -20.5630  C     
3    N       -12.7089  -34.0115  -19.5503  N     
4    C       -14.9838  -35.3687  -18.9494  C     
5    C       -14.0744  -35.0021  -17.9739  C     
6    N       -12.9418  -34.3362  -18.2924  N     
7    C       -12.2376  -34.1002  -17.1589  C     
8    C       -13.0231  -34.6697  -16.1466  C     
9    N       -14.1379  -35.2103  -16.6593  N     
10   N       -13.3000  -34.0347  -21.8580  N     
11   C       -12.1839  -33.2693  -22.3450  C     
12   C       -12.7916  -32.0669  -23.1240  C     
13   C       -11.0000  -33.3884  -16.9669  C     
14   C       -10.4059  -33.2713  -15.6836  C     
15   C        -9.2651  -32.4828  -15.4581  C     
16   C        -8.6205  -31.7923  -16.5124  C     
17   C        -9.1699  -31.9580  -17.8070  C     
18   C       -10.3258  -32.7301  -18.0258  C     
19   C       -11.1955  -34.1662  -23.1770  C     
20   C        -9.8595  -33.4400  -23.5032  C     
21   C       -10.8828  -35.5296  -22.4873  C     
22   O       -11.8254  -31.0647  -23.4360  O     
23   C        -7.5024  -30.9846  -16.2633  C     
24   O        -7.0394  -30.8614  -15.1368  O     
25   N        -6.8875  -30.2899  -17.1969  N     
26   H       -15.3568  -35.3285  -20.9459  H     
27   H       -15.8182  -35.8539  -18.7070  H     
28   H       -12.8157  -34.6933  -15.1448  H     
29   H       -13.9287  -34.3669  -22.5183  H     
30   H       -11.6253  -32.8466  -21.5011  H     
31   H       -13.2429  -32.4148  -24.0588  H     
32   H       -13.5727  -31.6000  -22.5182  H     
33   H       -10.8018  -33.7489  -14.8698  H     
34   H        -8.9146  -32.4126  -14.4990  H     
35   H        -8.7462  -31.4945  -18.6130  H     
36   H       -10.6748  -32.7796  -18.9779  H     
37   H       -11.6777  -34.4095  -24.1337  H     
38   H       -10.0242  -32.5915  -24.1575  H     
39   H        -9.1705  -34.1134  -24.0073  H     
40   H        -9.3828  -33.0926  -22.5849  H     
41   H       -10.5033  -35.3582  -21.4778  H     
42   H       -10.1371  -36.0943  -23.0458  H     
43   H       -11.7856  -36.1439  -22.4229  H     
44   H       -12.2496  -30.2087  -23.1934  H     
45   H        -6.1153  -29.7473  -16.9678  H     
46   H        -7.1907  -30.3185  -18.1151  H     
@<TRIPOS>BOND
     1    1    2 1
     2    1    4 2
     3    2    3 2
     4    2   10 1
     5    3    6 1
     6    4    5 1
     7    5    6 1
     8    5    9 2
     9    6    7 1
    10    7    8 2
    11    7   13 1
    12    8    9 1
    13   11   10 1
    14   11   12 1
    15   11   19 1
    16   12   22 1
    17   13   14 2
    18   13   18 1
    19   14   15 1
    20   15   16 2
    21   16   17 1
    22   16   23 1
    23   17   18 2
    24   19   20 1
    25   19   21 1
    26   23   24 2
    27   23   25 am
    28    1   26 1
    29    4   27 1
    30    8   28 1
    31   10   29 1
    32   11   30 1
    33   12   31 1
    34   12   32 1
    35   14   33 1
    36   15   34 1
    37   17   35 1
    38   18   36 1
    39   19   37 1
    40   20   38 1
    41   20   39 1
    42   20   40 1
    43   21   41 1
    44   21   42 1
    45   21   43 1
    46   22   44 1
    47   25   45 1
    48   25   46 1
@<TRIPOS>PROPERTY_DATA
  Total_Score	| 9.0583
  Crash		| -1.1879
  Polar		| 4.6168
  FragIndex	| 1
  FragRMSD	| 0.638

