@<TRIPOS>MOLECULE
BindingDB_50265026
 37 39 0 0 0
SMALL
NO_CHARGES


@<TRIPOS>ATOM
1    C       -13.9273  -35.3789  -20.5468  C     
2    C       -12.6113  -34.8813  -20.6150  C     
3    N       -12.0718  -34.3337  -19.4896  N     
4    C       -14.6266  -35.3017  -19.3960  C     
5    C       -14.0133  -34.7692  -18.2760  C     
6    N       -12.7524  -34.2902  -18.3616  N     
7    C       -12.3714  -33.8810  -17.1417  C     
8    C       -13.4526  -34.1330  -16.3000  C     
9    N       -14.4591  -34.6714  -17.0137  N     
10   N       -11.7891  -34.8756  -21.6876  N     
11   C       -11.9965  -35.4109  -22.9958  C     
12   C       -12.7849  -34.3696  -23.8247  C     
13   C       -11.1575  -33.2795  -16.7657  C     
14   C       -10.9313  -31.9161  -17.0469  C     
15   C        -9.7620  -31.2792  -16.5909  C     
16   C        -8.7814  -32.0097  -15.8868  C     
17   C        -8.9893  -33.3822  -15.6349  C     
18   C       -10.1827  -34.0050  -16.0473  C     
19   C       -10.6005  -35.7143  -23.5950  C     
20   O       -13.4901  -34.9764  -24.9052  O     
21   C        -7.7143  -31.4137  -15.4472  C     
22   N        -6.7767  -30.8821  -15.0506  N     
23   H       -14.3464  -35.7995  -21.3418  H     
24   H       -15.5529  -35.6528  -19.3347  H     
25   H       -13.4869  -33.9234  -15.3002  H     
26   H       -10.9229  -34.4549  -21.5436  H     
27   H       -12.5692  -36.3380  -22.9643  H     
28   H       -13.5092  -33.8553  -23.1853  H     
29   H       -12.1070  -33.6211  -24.2461  H     
30   H       -11.6320  -31.3586  -17.5417  H     
31   H        -9.6441  -30.2724  -16.7671  H     
32   H        -8.2864  -33.9412  -15.1439  H     
33   H       -10.3296  -34.9982  -15.8273  H     
34   H       -10.0250  -34.7915  -23.7132  H     
35   H       -10.6936  -36.1961  -24.5663  H     
36   H       -10.0399  -36.3812  -22.9328  H     
37   H       -14.4416  -34.9749  -24.6273  H     
@<TRIPOS>BOND
     1    1    2 1
     2    1    4 2
     3    2    3 2
     4    2   10 1
     5    3    6 1
     6    4    5 1
     7    5    6 1
     8    5    9 2
     9    6    7 1
    10    7    8 2
    11    7   13 1
    12    8    9 1
    13   11   10 1
    14   11   12 1
    15   11   19 1
    16   12   20 1
    17   13   14 2
    18   13   18 1
    19   14   15 1
    20   15   16 2
    21   16   17 1
    22   16   21 1
    23   17   18 2
    24   21   22 3
    25    1   23 1
    26    4   24 1
    27    8   25 1
    28   10   26 1
    29   11   27 1
    30   12   28 1
    31   12   29 1
    32   14   30 1
    33   15   31 1
    34   17   32 1
    35   18   33 1
    36   19   34 1
    37   19   35 1
    38   19   36 1
    39   20   37 1
@<TRIPOS>PROPERTY_DATA
  Total_Score	| 8.0485
  Crash		| -0.8961
  Polar		| 3.3568
  FragIndex	| 1
  FragRMSD	| 0.679

