@<TRIPOS>MOLECULE
BindingDB_50264945
 46 48 0 0 0
SMALL
NO_CHARGES


@<TRIPOS>ATOM
1    C       -14.4514  -34.8028  -20.2901  C     
2    C       -13.2261  -34.1418  -20.4758  C     
3    N       -12.4988  -33.8126  -19.3720  N     
4    C       -14.8710  -35.1301  -19.0522  C     
5    C       -14.0744  -34.8051  -17.9672  C     
6    N       -12.9156  -34.1396  -18.1656  N     
7    C       -12.3190  -33.9864  -16.9717  C     
8    C       -13.1490  -34.6028  -16.0362  C     
9    N       -14.2316  -35.0872  -16.6662  N     
10   N       -12.8273  -33.8285  -21.7318  N     
11   C       -11.5860  -33.1850  -22.0946  C     
12   C       -11.8750  -31.6643  -22.2127  C     
13   C       -11.1112  -33.3111  -16.7065  C     
14   C        -9.9998  -33.9964  -16.1809  C     
15   C        -8.8133  -33.3000  -15.8796  C     
16   C        -8.7348  -31.8978  -16.0526  C     
17   C        -9.8524  -31.2197  -16.5875  C     
18   C       -11.0200  -31.9201  -16.9381  C     
19   C       -10.9684  -33.8556  -23.3718  C     
20   C        -9.6138  -33.2188  -23.8026  C     
21   C       -10.7732  -35.3913  -23.1941  C     
22   O       -12.7562  -31.3855  -23.2967  O     
23   C        -7.5315  -31.1308  -15.6273  C     
24   C        -6.9388  -30.5000  -16.6836  C     
25   N        -6.4633  -29.9647  -17.5806  N     
26   H       -14.9972  -35.0721  -21.0757  H     
27   H       -15.7141  -35.6365  -18.9199  H     
28   H       -12.9797  -34.6508  -15.0277  H     
29   H       -13.4604  -34.0190  -22.4471  H     
30   H       -10.8486  -33.3009  -21.2878  H     
31   H       -12.3364  -31.3080  -21.2875  H     
32   H       -10.9488  -31.1021  -22.3463  H     
33   H       -10.0402  -35.0062  -16.0378  H     
34   H        -8.0199  -33.8179  -15.5081  H     
35   H        -9.8302  -30.2034  -16.7158  H     
36   H       -11.8212  -31.3958  -17.2899  H     
37   H       -11.6736  -33.7111  -24.1957  H     
38   H        -9.7452  -32.1709  -24.0762  H     
39   H        -9.2192  -33.7361  -24.6769  H     
40   H        -8.8770  -33.2808  -23.0012  H     
41   H       -10.1022  -35.6075  -22.3600  H     
42   H       -10.3465  -35.8295  -24.1014  H     
43   H       -11.7272  -35.8843  -23.0124  H     
44   H       -12.9598  -30.4269  -23.2182  H     
45   H        -7.8357  -30.3877  -14.8864  H     
46   H        -6.7924  -31.7759  -15.1480  H     
@<TRIPOS>BOND
     1    1    2 1
     2    1    4 2
     3    2    3 2
     4    2   10 1
     5    3    6 1
     6    4    5 1
     7    5    6 1
     8    5    9 2
     9    6    7 1
    10    7    8 2
    11    7   13 1
    12    8    9 1
    13   11   10 1
    14   11   12 1
    15   11   19 1
    16   12   22 1
    17   13   14 2
    18   13   18 1
    19   14   15 1
    20   15   16 2
    21   16   17 1
    22   16   23 1
    23   17   18 2
    24   19   20 1
    25   19   21 1
    26   23   24 1
    27   24   25 3
    28    1   26 1
    29    4   27 1
    30    8   28 1
    31   10   29 1
    32   11   30 1
    33   12   31 1
    34   12   32 1
    35   14   33 1
    36   15   34 1
    37   17   35 1
    38   18   36 1
    39   19   37 1
    40   20   38 1
    41   20   39 1
    42   20   40 1
    43   21   41 1
    44   21   42 1
    45   21   43 1
    46   22   44 1
    47   23   45 1
    48   23   46 1
@<TRIPOS>PROPERTY_DATA
  Total_Score	| 8.1209
  Crash		| -1.5710
  Polar		| 2.7590
  FragIndex	| 1
  FragRMSD	| 0.594

