@<TRIPOS>MOLECULE
BindingDB_50265060
 40 42 0 0 0
SMALL
NO_CHARGES


@<TRIPOS>ATOM
1    C       -14.7109  -34.5978  -20.2365  C     
2    C       -13.5350  -33.8888  -20.5093  C     
3    N       -12.6728  -33.6631  -19.4757  N     
4    C       -14.9673  -35.0642  -18.9996  C     
5    C       -14.0556  -34.8068  -17.9931  C     
6    N       -12.9373  -34.0936  -18.2511  N     
7    C       -12.2457  -33.9726  -17.0994  C     
8    C       -12.9880  -34.6687  -16.1405  C     
9    N       -14.1005  -35.1636  -16.7044  N     
10   N       -13.3158  -33.4679  -21.7775  N     
11   C       -12.1330  -32.8855  -22.3484  C     
12   C       -11.0685  -33.9838  -22.6052  C     
13   C       -11.0546  -33.2392  -16.8522  C     
14   C       -10.9032  -31.9260  -17.3560  C     
15   C        -9.7583  -31.1628  -17.0648  C     
16   C        -8.7259  -31.7083  -16.2748  C     
17   C        -8.8568  -33.0217  -15.7768  C     
18   C       -10.0143  -33.7735  -16.0536  C     
19   C       -11.5802  -31.6457  -21.5987  C     
20   O       -10.7570  -34.6758  -21.3807  O     
21   C        -7.6655  -31.0004  -16.0058  C     
22   N        -6.7333  -30.3727  -15.7707  N     
23   C       -10.5974  -36.0967  -21.4933  C     
24   H       -15.3569  -34.7872  -20.9651  H     
25   H       -15.7911  -35.5851  -18.8085  H     
26   H       -12.7557  -34.7619  -15.1498  H     
27   H       -14.0334  -33.6580  -22.4048  H     
28   H       -12.4414  -32.5245  -23.3345  H     
29   H       -11.4646  -34.6590  -23.3708  H     
30   H       -10.1525  -33.5365  -22.9967  H     
31   H       -11.6416  -31.4924  -17.9120  H     
32   H        -9.6933  -30.2064  -17.4287  H     
33   H        -8.1146  -33.4427  -15.2110  H     
34   H       -10.0821  -34.7230  -15.6767  H     
35   H       -12.3937  -30.9629  -21.3492  H     
36   H       -10.8670  -31.1136  -22.2313  H     
37   H       -11.0675  -31.9348  -20.6827  H     
38   H       -11.5366  -36.5559  -21.8087  H     
39   H       -10.3383  -36.4934  -20.5114  H     
40   H        -9.8036  -36.3536  -22.1998  H     
@<TRIPOS>BOND
     1    1    2 1
     2    1    4 2
     3    2    3 2
     4    2   10 1
     5    3    6 1
     6    4    5 1
     7    5    6 1
     8    5    9 2
     9    6    7 1
    10    7    8 2
    11    7   13 1
    12    8    9 1
    13   11   10 1
    14   11   12 1
    15   11   19 1
    16   12   20 1
    17   13   14 2
    18   13   18 1
    19   14   15 1
    20   15   16 2
    21   16   17 1
    22   16   21 1
    23   17   18 2
    24   20   23 1
    25   21   22 3
    26    1   24 1
    27    4   25 1
    28    8   26 1
    29   10   27 1
    30   11   28 1
    31   12   29 1
    32   12   30 1
    33   14   31 1
    34   15   32 1
    35   17   33 1
    36   18   34 1
    37   19   35 1
    38   19   36 1
    39   19   37 1
    40   23   38 1
    41   23   39 1
    42   23   40 1
@<TRIPOS>PROPERTY_DATA
  Total_Score	| 7.8540
  Crash		| -1.0918
  Polar		| 2.3742
  FragIndex	| 1
  FragRMSD	| 1.081

