@<TRIPOS>MOLECULE
BindingDB_50264947
 48 50 0 0 0
SMALL
NO_CHARGES


@<TRIPOS>ATOM
1    C       -14.6369  -34.9214  -20.1860  C     
2    C       -13.4505  -34.2333  -20.4501  C     
3    N       -12.6679  -33.8677  -19.3886  N     
4    C       -14.9945  -35.2156  -18.9200  C     
5    C       -14.1588  -34.8298  -17.8894  C     
6    N       -13.0113  -34.1613  -18.1439  N     
7    C       -12.3697  -33.9668  -16.9734  C     
8    C       -13.1912  -34.5410  -15.9977  C     
9    N       -14.2820  -35.0553  -16.5756  N     
10   N       -13.1231  -33.9807  -21.7375  N     
11   C       -12.0084  -33.2161  -22.2111  C     
12   C       -12.6365  -32.0252  -23.0006  C     
13   C       -11.1452  -33.2929  -16.7154  C     
14   C       -10.9757  -31.9405  -17.0851  C     
15   C        -9.8283  -31.2228  -16.7043  C     
16   C        -8.7970  -31.8538  -15.9713  C     
17   C        -8.9407  -33.2183  -15.6400  C     
18   C       -10.1028  -33.9261  -15.9987  C     
19   C       -10.9507  -34.1112  -22.9634  C     
20   C       -10.8010  -35.5226  -22.3124  C     
21   C       -11.1552  -34.2743  -24.5040  C     
22   O       -11.7010  -31.0114  -23.3795  O     
23   C        -7.6004  -31.0883  -15.5451  C     
24   N        -6.9170  -30.5028  -16.7039  N     
25   H       -15.2275  -35.2069  -20.9364  H     
26   H       -15.8278  -35.7246  -18.7287  H     
27   H       -13.0086  -34.5659  -14.9918  H     
28   H       -13.7347  -34.3283  -22.4077  H     
29   H       -11.4866  -32.7715  -21.3575  H     
30   H       -13.1418  -32.3923  -23.9037  H     
31   H       -13.3868  -31.5399  -22.3645  H     
32   H       -11.7073  -31.4472  -17.6010  H     
33   H        -9.7536  -30.2308  -16.9515  H     
34   H        -8.2014  -33.7035  -15.1249  H     
35   H       -10.1744  -34.9120  -15.7305  H     
36   H        -9.9737  -33.6170  -22.8434  H     
37   H       -10.6460  -35.4435  -21.2330  H     
38   H        -9.9474  -36.0563  -22.7385  H     
39   H       -11.6988  -36.1316  -22.4855  H     
40   H       -12.1770  -34.6089  -24.7374  H     
41   H       -10.4390  -34.9825  -24.9221  H     
42   H       -10.9611  -33.3238  -25.0014  H     
43   H       -12.1740  -30.1691  -23.2375  H     
44   H        -7.9015  -30.2836  -14.8697  H     
45   H        -6.8843  -31.7177  -15.0078  H     
46   H        -6.7171  -31.2382  -17.3826  H     
47   H        -6.0429  -30.0662  -16.4033  H     
48   H        -7.5079  -29.7912  -17.1413  H     
@<TRIPOS>BOND
     1    1    2 1
     2    1    4 2
     3    2    3 2
     4    2   10 1
     5    3    6 1
     6    4    5 1
     7    5    6 1
     8    5    9 2
     9    6    7 1
    10    7    8 2
    11    7   13 1
    12    8    9 1
    13   11   10 1
    14   11   12 1
    15   11   19 1
    16   12   22 1
    17   13   14 2
    18   13   18 1
    19   14   15 1
    20   15   16 2
    21   16   17 1
    22   16   23 1
    23   17   18 2
    24   19   20 1
    25   19   21 1
    26   23   24 1
    27    1   25 1
    28    4   26 1
    29    8   27 1
    30   10   28 1
    31   11   29 1
    32   12   30 1
    33   12   31 1
    34   14   32 1
    35   15   33 1
    36   17   34 1
    37   18   35 1
    38   19   36 1
    39   20   37 1
    40   20   38 1
    41   20   39 1
    42   21   40 1
    43   21   41 1
    44   21   42 1
    45   22   43 1
    46   23   44 1
    47   23   45 1
    48   24   46 1
    49   24   47 1
    50   24   48 1
@<TRIPOS>PROPERTY_DATA
  Total_Score	| 8.0910
  Crash		| -2.0388
  Polar		| 3.1908
  FragIndex	| 1
  FragRMSD	| 0.595

