@<TRIPOS>MOLECULE
BindingDB_50265063
 44 47 0 0 0
SMALL
NO_CHARGES


@<TRIPOS>ATOM
1    C       -14.6730  -34.8936  -20.2732  C     
2    C       -13.5251  -34.1626  -20.5975  C     
3    N       -12.6869  -33.8273  -19.5720  N     
4    C       -14.9495  -35.2233  -18.9984  C     
5    C       -14.0651  -34.8415  -18.0080  C     
6    N       -12.9501  -34.1421  -18.3108  N     
7    C       -12.2836  -33.8977  -17.1592  C     
8    C       -13.0461  -34.5147  -16.1594  C     
9    N       -14.1396  -35.0743  -16.6970  N     
10   N       -13.3455  -33.8368  -21.9007  N     
11   C       -12.2959  -33.1500  -22.6055  C     
12   C       -11.0812  -33.1544  -16.9563  C     
13   C       -10.6769  -32.1465  -17.8654  C     
14   C        -9.5147  -31.3826  -17.6530  C     
15   C        -8.7124  -31.6179  -16.5173  C     
16   C        -9.0972  -32.6188  -15.5976  C     
17   C       -10.2657  -33.3744  -15.8177  C     
18   C        -7.6238  -30.9239  -16.3229  C     
19   N        -6.6609  -30.3189  -16.1553  N     
20   C       -10.8457  -33.2917  -22.0466  C     
21   C        -9.7755  -32.6026  -22.9383  C     
22   C        -9.8583  -33.0850  -24.4062  C     
23   C       -11.2845  -32.8868  -24.9750  C     
24   C       -12.3585  -33.5922  -24.1040  C     
25   O       -13.6321  -33.2836  -24.6772  O     
26   H       -15.2991  -35.1791  -20.9864  H     
27   H       -15.7637  -35.7439  -18.7713  H     
28   H       -12.8405  -34.5215  -15.1614  H     
29   H       -14.0882  -34.0976  -22.4662  H     
30   H       -12.5589  -32.0908  -22.5685  H     
31   H       -11.2554  -31.9043  -18.6634  H     
32   H        -9.2606  -30.6579  -18.3354  H     
33   H        -8.5319  -32.8022  -14.7629  H     
34   H       -10.5040  -34.0937  -15.1298  H     
35   H       -10.7985  -32.8324  -21.0540  H     
36   H       -10.5940  -34.3527  -21.9489  H     
37   H        -9.9082  -31.5181  -22.9029  H     
38   H        -8.7800  -32.8281  -22.5465  H     
39   H        -9.1389  -32.5222  -25.0102  H     
40   H        -9.5946  -34.1446  -24.4562  H     
41   H       -11.5047  -31.8185  -25.0293  H     
42   H       -11.3217  -33.2847  -25.9925  H     
43   H       -12.2084  -34.6722  -24.1757  H     
44   H       -14.2779  -33.9454  -24.3149  H     
@<TRIPOS>BOND
     1    1    2 1
     2    1    4 2
     3    2    3 2
     4    2   10 1
     5    3    6 1
     6    4    5 1
     7    5    6 1
     8    5    9 2
     9    6    7 1
    10    7    8 2
    11    7   12 1
    12    8    9 1
    13   11   10 1
    14   11   20 1
    15   11   24 1
    16   12   13 2
    17   12   17 1
    18   13   14 1
    19   14   15 2
    20   15   16 1
    21   15   18 1
    22   16   17 2
    23   18   19 3
    24   20   21 1
    25   21   22 1
    26   22   23 1
    27   23   24 1
    28   24   25 1
    29    1   26 1
    30    4   27 1
    31    8   28 1
    32   10   29 1
    33   11   30 1
    34   13   31 1
    35   14   32 1
    36   16   33 1
    37   17   34 1
    38   20   35 1
    39   20   36 1
    40   21   37 1
    41   21   38 1
    42   22   39 1
    43   22   40 1
    44   23   41 1
    45   23   42 1
    46   24   43 1
    47   25   44 1
@<TRIPOS>PROPERTY_DATA
  Total_Score	| 7.8810
  Crash		| -0.7752
  Polar		| 4.0324
  FragIndex	| 1
  FragRMSD	| 0.537

