@<TRIPOS>MOLECULE
BindingDB_50264982
 47 49 0 0 0
SMALL
NO_CHARGES


@<TRIPOS>ATOM
1    C       -14.7148  -35.1308  -20.3403  C     
2    C       -13.5959  -34.3402  -20.6412  C     
3    N       -12.8106  -33.9338  -19.6050  N     
4    C       -14.9912  -35.4701  -19.0649  C     
5    C       -14.1607  -35.0116  -18.0565  C     
6    N       -13.0927  -34.2411  -18.3563  N     
7    C       -12.4436  -33.9348  -17.2187  C     
8    C       -13.1638  -34.5784  -16.2063  C     
9    N       -14.2154  -35.2243  -16.7359  N     
10   N       -13.3076  -34.0136  -21.9212  N     
11   C       -12.1462  -33.2948  -22.3775  C     
12   C       -12.6647  -31.9707  -23.0046  C     
13   C       -11.2763  -33.1345  -17.0626  C     
14   C       -10.3957  -33.3191  -15.9721  C     
15   C        -9.2195  -32.5520  -15.8516  C     
16   C        -8.9115  -31.5388  -16.7874  C     
17   C        -9.7968  -31.3430  -17.8663  C     
18   C       -10.9518  -32.1326  -18.0059  C     
19   C       -11.2978  -34.2040  -23.3413  C     
20   C        -9.9639  -33.5458  -23.8013  C     
21   C       -10.9497  -35.5817  -22.7015  C     
22   O       -11.6324  -30.9978  -23.1132  O     
23   C        -7.6628  -30.7407  -16.6943  C     
24   C        -7.4114  -30.2045  -15.3468  C     
25   O        -8.3558  -29.4746  -14.7102  O     
26   O        -6.3125  -30.6000  -14.6660  O     
27   H       -15.2896  -35.4759  -21.0712  H     
28   H       -15.7653  -36.0552  -18.8512  H     
29   H       -12.9593  -34.5544  -15.2066  H     
30   H       -13.9405  -34.2988  -22.5987  H     
31   H       -11.4984  -33.0263  -21.5297  H     
32   H       -13.0906  -32.1415  -23.9956  H     
33   H       -13.4424  -31.5396  -22.3678  H     
34   H       -10.5858  -34.0382  -15.2683  H     
35   H        -8.5888  -32.7330  -15.0676  H     
36   H        -9.5913  -30.6397  -18.5786  H     
37   H       -11.5612  -31.9444  -18.8024  H     
38   H       -11.8952  -34.4029  -24.2414  H     
39   H       -10.1467  -32.6222  -24.3479  H     
40   H        -9.4178  -34.2164  -24.4688  H     
41   H        -9.3274  -33.3283  -22.9392  H     
42   H       -10.3478  -35.4405  -21.7990  H     
43   H       -10.3862  -36.2028  -23.4034  H     
44   H       -11.8549  -36.1286  -22.4337  H     
45   H       -12.0963  -30.1326  -23.0361  H     
46   H        -6.8363  -31.3871  -16.9914  H     
47   H        -7.6720  -29.8972  -17.3897  H     
@<TRIPOS>BOND
     1    1    2 1
     2    1    4 2
     3    2    3 2
     4    2   10 1
     5    3    6 1
     6    4    5 1
     7    5    6 1
     8    5    9 2
     9    6    7 1
    10    7    8 2
    11    7   13 1
    12    8    9 1
    13   11   10 1
    14   11   12 1
    15   11   19 1
    16   12   22 1
    17   13   14 2
    18   13   18 1
    19   14   15 1
    20   15   16 2
    21   16   17 1
    22   16   23 1
    23   17   18 2
    24   19   20 1
    25   19   21 1
    26   23   24 1
    27   24   25 1
    28   24   26 2
    29    1   27 1
    30    4   28 1
    31    8   29 1
    32   10   30 1
    33   11   31 1
    34   12   32 1
    35   12   33 1
    36   14   34 1
    37   15   35 1
    38   17   36 1
    39   18   37 1
    40   19   38 1
    41   20   39 1
    42   20   40 1
    43   20   41 1
    44   21   42 1
    45   21   43 1
    46   21   44 1
    47   22   45 1
    48   23   46 1
    49   23   47 1
@<TRIPOS>PROPERTY_DATA
  Total_Score	| 9.5420
  Crash		| -1.1311
  Polar		| 5.4607
  FragIndex	| 1
  FragRMSD	| 0.648

