@<TRIPOS>MOLECULE
BindingDB_50264946
 44 46 0 0 0
SMALL
NO_CHARGES


@<TRIPOS>ATOM
1    C       -14.7227  -35.0352  -20.3044  C     
2    C       -13.5613  -34.3533  -20.6826  C     
3    N       -12.6871  -34.0003  -19.6973  N     
4    C       -14.9635  -35.3185  -19.0072  C     
5    C       -14.0341  -34.9239  -18.0559  C     
6    N       -12.9022  -34.2791  -18.4218  N     
7    C       -12.1690  -34.0209  -17.3105  C     
8    C       -12.9354  -34.5507  -16.2625  C     
9    N       -14.0685  -35.0955  -16.7307  N     
10   N       -13.3287  -34.0641  -21.9870  N     
11   C       -12.2298  -33.2948  -22.5100  C     
12   C       -12.8462  -32.1638  -23.3838  C     
13   C       -10.9245  -33.3101  -17.1773  C     
14   C       -10.3262  -32.6382  -18.2777  C     
15   C        -9.1785  -31.8443  -18.1289  C     
16   C        -8.5815  -31.6901  -16.8676  C     
17   C        -9.1104  -32.3945  -15.7678  C     
18   C       -10.2535  -33.1990  -15.9266  C     
19   C       -11.2204  -34.2267  -23.2790  C     
20   C        -9.8899  -33.5071  -23.6648  C     
21   C       -10.8515  -35.5166  -22.4836  C     
22   O       -11.9199  -31.1111  -23.6641  O     
23   N        -7.5325  -30.8604  -16.7289  N     
24   H       -15.3793  -35.3187  -20.9950  H     
25   H       -15.7928  -35.7921  -18.7350  H     
26   H       -12.7032  -34.5426  -15.2699  H     
27   H       -13.9854  -34.3831  -22.6238  H     
28   H       -11.6813  -32.8092  -21.6943  H     
29   H       -13.2108  -32.5746  -24.3298  H     
30   H       -13.7023  -31.7179  -22.8599  H     
31   H       -10.7240  -32.6823  -19.2106  H     
32   H        -8.7913  -31.3554  -18.9434  H     
33   H        -8.6805  -32.2987  -14.8441  H     
34   H       -10.5994  -33.6849  -15.0987  H     
35   H       -11.6882  -34.5565  -24.2124  H     
36   H       -10.0685  -32.6990  -24.3750  H     
37   H        -9.2017  -34.2102  -24.1472  H     
38   H        -9.3955  -33.0984  -22.7730  H     
39   H       -10.4392  -35.2561  -21.5043  H     
40   H       -10.1122  -36.1200  -23.0229  H     
41   H       -11.7335  -36.1440  -22.3353  H     
42   H       -12.3285  -30.2954  -23.2930  H     
43   H        -7.1245  -30.7247  -15.8597  H     
44   H        -7.2085  -30.3590  -17.4964  H     
@<TRIPOS>BOND
     1    1    2 1
     2    1    4 2
     3    2    3 2
     4    2   10 1
     5    3    6 1
     6    4    5 1
     7    5    6 1
     8    5    9 2
     9    6    7 1
    10    7    8 2
    11    7   13 1
    12    8    9 1
    13   11   10 1
    14   11   12 1
    15   11   19 1
    16   12   22 1
    17   13   14 2
    18   13   18 1
    19   14   15 1
    20   15   16 2
    21   16   17 1
    22   16   23 1
    23   17   18 2
    24   19   20 1
    25   19   21 1
    26    1   24 1
    27    4   25 1
    28    8   26 1
    29   10   27 1
    30   11   28 1
    31   12   29 1
    32   12   30 1
    33   14   31 1
    34   15   32 1
    35   17   33 1
    36   18   34 1
    37   19   35 1
    38   20   36 1
    39   20   37 1
    40   20   38 1
    41   21   39 1
    42   21   40 1
    43   21   41 1
    44   22   42 1
    45   23   43 1
    46   23   44 1
@<TRIPOS>PROPERTY_DATA
  Total_Score	| 8.0412
  Crash		| -0.6182
  Polar		| 3.6801
  FragIndex	| 1
  FragRMSD	| 0.882

