@<TRIPOS>MOLECULE
BindingDB_50264944
 46 48 0 0 0
SMALL
NO_CHARGES


@<TRIPOS>ATOM
1    C       -14.7382  -34.8203  -20.1898  C     
2    C       -13.5575  -34.1301  -20.4932  C     
3    N       -12.7027  -33.8330  -19.4688  N     
4    C       -15.0119  -35.1946  -18.9253  C     
5    C       -14.0987  -34.8937  -17.9311  C     
6    N       -12.9746  -34.2057  -18.2309  N     
7    C       -12.2755  -34.0573  -17.0896  C     
8    C       -13.0115  -34.6943  -16.0907  C     
9    N       -14.1388  -35.1938  -16.6273  N     
10   N       -13.2895  -33.8340  -21.7883  N     
11   C       -12.1457  -33.1282  -22.3024  C     
12   C       -12.7300  -31.9060  -23.0651  C     
13   C       -11.1010  -33.3069  -16.8793  C     
14   C        -9.9546  -33.8787  -16.2769  C     
15   C        -8.8155  -33.0934  -16.0273  C     
16   C        -8.7969  -31.7195  -16.3588  C     
17   C        -9.9494  -31.1516  -16.9464  C     
18   C       -11.0734  -31.9397  -17.2195  C     
19   C       -11.2238  -34.0903  -23.1463  C     
20   C        -9.8568  -33.4362  -23.5287  C     
21   C       -10.9431  -35.4356  -22.4006  C     
22   O       -11.7305  -30.9731  -23.4762  O     
23   C        -7.5941  -30.8929  -16.1127  C     
24   O        -7.2985  -30.8302  -14.7218  O     
25   H       -15.3826  -35.0489  -20.9100  H     
26   H       -15.8483  -35.6884  -18.7059  H     
27   H       -12.7634  -34.7417  -15.1036  H     
28   H       -13.9481  -34.1297  -22.4430  H     
29   H       -11.5386  -32.7369  -21.4746  H     
30   H       -13.2862  -32.2360  -23.9424  H     
31   H       -13.4201  -31.3776  -22.3973  H     
32   H        -9.9418  -34.8710  -16.0233  H     
33   H        -7.9954  -33.5298  -15.5977  H     
34   H        -9.9730  -30.1581  -17.1879  H     
35   H       -11.8918  -31.4986  -17.6474  H     
36   H       -11.7449  -34.3379  -24.0831  H     
37   H        -9.9987  -32.5679  -24.1758  H     
38   H        -9.2314  -34.1476  -24.0767  H     
39   H        -9.3172  -33.1226  -22.6294  H     
40   H       -10.5506  -35.2426  -21.3982  H     
41   H       -10.2172  -36.0477  -22.9444  H     
42   H       -11.8594  -36.0216  -22.3073  H     
43   H       -12.0988  -30.0833  -23.2280  H     
44   H        -6.7457  -31.3310  -16.6364  H     
45   H        -7.7138  -29.8706  -16.4805  H     
46   H        -8.0860  -30.4136  -14.3141  H     
@<TRIPOS>BOND
     1    1    2 1
     2    1    4 2
     3    2    3 2
     4    2   10 1
     5    3    6 1
     6    4    5 1
     7    5    6 1
     8    5    9 2
     9    6    7 1
    10    7    8 2
    11    7   13 1
    12    8    9 1
    13   11   10 1
    14   11   12 1
    15   11   19 1
    16   12   22 1
    17   13   14 2
    18   13   18 1
    19   14   15 1
    20   15   16 2
    21   16   17 1
    22   16   23 1
    23   17   18 2
    24   19   20 1
    25   19   21 1
    26   23   24 1
    27    1   25 1
    28    4   26 1
    29    8   27 1
    30   10   28 1
    31   11   29 1
    32   12   30 1
    33   12   31 1
    34   14   32 1
    35   15   33 1
    36   17   34 1
    37   18   35 1
    38   19   36 1
    39   20   37 1
    40   20   38 1
    41   20   39 1
    42   21   40 1
    43   21   41 1
    44   21   42 1
    45   22   43 1
    46   23   44 1
    47   23   45 1
    48   24   46 1
@<TRIPOS>PROPERTY_DATA
  Total_Score	| 8.9771
  Crash		| -1.8204
  Polar		| 4.5488
  FragIndex	| 1
  FragRMSD	| 0.586

