@<TRIPOS>MOLECULE
BindingDB_50265064
 43 46 0 0 0
SMALL
NO_CHARGES


@<TRIPOS>ATOM
1    C       -14.1642  -34.8443  -20.4082  C     
2    C       -12.9487  -34.1437  -20.5459  C     
3    N       -12.2950  -33.7875  -19.4006  N     
4    C       -14.6425  -35.1760  -19.1930  C     
5    C       -13.9178  -34.8071  -18.0736  C     
6    N       -12.7707  -34.1082  -18.2105  N     
7    C       -12.2593  -33.8981  -16.9836  C     
8    C       -13.1441  -34.5118  -16.0919  C     
9    N       -14.1611  -35.0564  -16.7793  N     
10   N       -12.3399  -33.7942  -21.7068  N     
11   C       -12.7730  -34.0575  -23.0558  C     
12   C       -11.0700  -33.2106  -16.6518  C     
13   C       -10.9266  -31.8364  -16.9464  C     
14   C        -9.7448  -31.1438  -16.6124  C     
15   C        -8.6816  -31.8249  -15.9900  C     
16   C        -8.8165  -33.1935  -15.6914  C     
17   C       -10.0051  -33.8820  -16.0101  C     
18   C        -7.5766  -31.1952  -15.6971  C     
19   N        -6.6035  -30.6410  -15.4405  N     
20   C       -13.6084  -32.8661  -23.6052  C     
21   C       -12.7452  -31.6004  -23.8576  C     
22   C       -11.5295  -31.9054  -24.7716  C     
23   C       -10.6851  -33.0919  -24.2373  C     
24   C       -11.5601  -34.3494  -23.9906  C     
25   H       -14.6971  -35.1018  -21.2014  H     
26   H       -15.4909  -35.6864  -19.0973  H     
27   H       -13.0558  -34.5292  -15.0760  H     
28   H       -11.5317  -33.2637  -21.6141  H     
29   H       -13.3913  -34.9566  -23.0881  H     
30   H       -11.6845  -31.3165  -17.3872  H     
31   H        -9.6771  -30.1445  -16.8310  H     
32   H        -8.0488  -33.7117  -15.2576  H     
33   H       -10.0711  -34.8807  -15.8036  H     
34   H       -14.0737  -33.1722  -24.5485  H     
35   H       -14.4117  -32.6247  -22.9017  H     
36   H       -13.3660  -30.8328  -24.3261  H     
37   H       -12.3888  -31.2052  -22.9011  H     
38   H       -11.8852  -32.1406  -25.7800  H     
39   H       -10.8970  -31.0159  -24.8407  H     
40   H        -9.8981  -33.3304  -24.9587  H     
41   H       -10.1979  -32.7986  -23.3032  H     
42   H       -10.9419  -35.1463  -23.5699  H     
43   H       -11.9364  -34.7049  -24.9552  H     
@<TRIPOS>BOND
     1    1    2 1
     2    1    4 2
     3    2    3 2
     4    2   10 1
     5    3    6 1
     6    4    5 1
     7    5    6 1
     8    5    9 2
     9    6    7 1
    10    7    8 2
    11    7   12 1
    12    8    9 1
    13   11   10 1
    14   11   20 1
    15   11   24 1
    16   12   13 2
    17   12   17 1
    18   13   14 1
    19   14   15 2
    20   15   16 1
    21   15   18 1
    22   16   17 2
    23   18   19 3
    24   20   21 1
    25   21   22 1
    26   22   23 1
    27   23   24 1
    28    1   25 1
    29    4   26 1
    30    8   27 1
    31   10   28 1
    32   11   29 1
    33   13   30 1
    34   14   31 1
    35   16   32 1
    36   17   33 1
    37   20   34 1
    38   20   35 1
    39   21   36 1
    40   21   37 1
    41   22   38 1
    42   22   39 1
    43   23   40 1
    44   23   41 1
    45   24   42 1
    46   24   43 1
@<TRIPOS>PROPERTY_DATA
  Total_Score	| 7.2323
  Crash		| -0.7210
  Polar		| 1.1930
  FragIndex	| 1
  FragRMSD	| 0.601

