@<TRIPOS>MOLECULE
BindingDB_50265025
 37 39 0 0 0
SMALL
NO_CHARGES


@<TRIPOS>ATOM
1    C       -14.6399  -34.8157  -20.2286  C     
2    C       -13.4995  -34.0537  -20.5134  C     
3    N       -12.6844  -33.6992  -19.4725  N     
4    C       -14.9296  -35.1744  -18.9646  C     
5    C       -14.0601  -34.8233  -17.9550  C     
6    N       -12.9613  -34.0915  -18.2311  N     
7    C       -12.2686  -33.9534  -17.0880  C     
8    C       -12.9854  -34.6371  -16.1103  C     
9    N       -14.0940  -35.1598  -16.6589  N     
10   N       -13.2609  -33.6957  -21.7994  N     
11   C       -12.1785  -32.8629  -22.2538  C     
12   C       -12.6265  -32.1203  -23.5431  C     
13   C       -11.0782  -33.2430  -16.8769  C     
14   C       -10.9195  -31.9619  -17.4361  C     
15   C        -9.7679  -31.2103  -17.1634  C     
16   C        -8.7293  -31.7518  -16.3706  C     
17   C        -8.8759  -33.0424  -15.8236  C     
18   C       -10.0557  -33.7758  -16.0545  C     
19   C       -10.8971  -33.7170  -22.4320  C     
20   O       -11.8665  -30.9352  -23.7719  O     
21   C        -7.6492  -31.0591  -16.1779  C     
22   N        -6.7013  -30.4353  -16.0269  N     
23   H       -15.2329  -35.1123  -20.9641  H     
24   H       -15.7189  -35.7367  -18.7598  H     
25   H       -12.7122  -34.7331  -15.1273  H     
26   H       -13.9140  -33.9906  -22.4613  H     
27   H       -11.9792  -32.0930  -21.5045  H     
28   H       -12.5357  -32.7729  -24.4114  H     
29   H       -13.6786  -31.8143  -23.4583  H     
30   H       -11.6420  -31.5550  -18.0213  H     
31   H        -9.6924  -30.2586  -17.5564  H     
32   H        -8.1343  -33.4705  -15.2603  H     
33   H       -10.1492  -34.7166  -15.6440  H     
34   H       -10.6335  -34.1937  -21.4903  H     
35   H       -10.0639  -33.0912  -22.7423  H     
36   H       -11.0507  -34.4976  -23.1836  H     
37   H       -12.2613  -30.2602  -23.1655  H     
@<TRIPOS>BOND
     1    1    2 1
     2    1    4 2
     3    2    3 2
     4    2   10 1
     5    3    6 1
     6    4    5 1
     7    5    6 1
     8    5    9 2
     9    6    7 1
    10    7    8 2
    11    7   13 1
    12    8    9 1
    13   11   10 1
    14   11   12 1
    15   11   19 1
    16   12   20 1
    17   13   14 2
    18   13   18 1
    19   14   15 1
    20   15   16 2
    21   16   17 1
    22   16   21 1
    23   17   18 2
    24   21   22 3
    25    1   23 1
    26    4   24 1
    27    8   25 1
    28   10   26 1
    29   11   27 1
    30   12   28 1
    31   12   29 1
    32   14   30 1
    33   15   31 1
    34   17   32 1
    35   18   33 1
    36   19   34 1
    37   19   35 1
    38   19   36 1
    39   20   37 1
@<TRIPOS>PROPERTY_DATA
  Total_Score	| 7.6330
  Crash		| -0.7754
  Polar		| 3.5917
  FragIndex	| 1
  FragRMSD	| 0.563

