@<TRIPOS>MOLECULE
BindingDB_50264942
 43 45 0 0 0
SMALL
NO_CHARGES


@<TRIPOS>ATOM
1    C       -14.6571  -35.0013  -20.2450  C     
2    C       -13.5253  -34.2453  -20.5595  C     
3    N       -12.6973  -33.8742  -19.5393  N     
4    C       -14.9259  -35.3422  -18.9695  C     
5    C       -14.0526  -34.9320  -17.9731  C     
6    N       -12.9583  -34.2033  -18.2898  N     
7    C       -12.2586  -33.9899  -17.1559  C     
8    C       -12.9738  -34.6252  -16.1386  C     
9    N       -14.0793  -35.1886  -16.6644  N     
10   N       -13.2722  -33.9410  -21.8551  N     
11   C       -12.1318  -33.2153  -22.3472  C     
12   C       -12.7150  -31.9903  -23.1085  C     
13   C       -11.0492  -33.2636  -17.0052  C     
14   C       -10.8522  -32.0530  -17.7082  C     
15   C        -9.6830  -31.2914  -17.5280  C     
16   C        -8.6631  -31.7593  -16.6744  C     
17   C        -8.8367  -32.9811  -15.9881  C     
18   C       -10.0294  -33.7191  -16.1359  C     
19   C        -7.5711  -31.0578  -16.5330  C     
20   N        -6.6157  -30.4315  -16.4187  N     
21   C       -11.1930  -34.1660  -23.1796  C     
22   C        -9.8031  -33.5196  -23.4635  C     
23   C       -10.9693  -35.5521  -22.4920  C     
24   O       -11.7148  -31.0465  -23.4699  O     
25   H       -15.2697  -35.3111  -20.9674  H     
26   H       -15.7145  -35.9043  -18.7450  H     
27   H       -12.7199  -34.6575  -15.1512  H     
28   H       -13.9197  -34.2544  -22.5125  H     
29   H       -11.5319  -32.8156  -21.5212  H     
30   H       -13.2470  -32.3180  -24.0066  H     
31   H       -13.4135  -31.4649  -22.4596  H     
32   H       -11.5758  -31.6928  -18.3378  H     
33   H        -9.5878  -30.4014  -18.0207  H     
34   H        -8.0946  -33.3436  -15.3769  H     
35   H       -10.1417  -34.6002  -15.6298  H     
36   H       -11.6731  -34.3601  -24.1431  H     
37   H        -9.9093  -32.6551  -24.1193  H     
38   H        -9.1481  -34.2260  -23.9689  H     
39   H        -9.3263  -33.2043  -22.5333  H     
40   H       -10.5663  -35.4196  -21.4861  H     
41   H       -10.2754  -36.1698  -23.0693  H     
42   H       -11.9052  -36.1029  -22.4203  H     
43   H       -12.1468  -30.1635  -23.3286  H     
@<TRIPOS>BOND
     1    1    2 1
     2    1    4 2
     3    2    3 2
     4    2   10 1
     5    3    6 1
     6    4    5 1
     7    5    6 1
     8    5    9 2
     9    6    7 1
    10    7    8 2
    11    7   13 1
    12    8    9 1
    13   11   10 1
    14   11   12 1
    15   11   21 1
    16   12   24 1
    17   13   14 2
    18   13   18 1
    19   14   15 1
    20   15   16 2
    21   16   17 1
    22   16   19 1
    23   17   18 2
    24   19   20 3
    25   21   22 1
    26   21   23 1
    27    1   25 1
    28    4   26 1
    29    8   27 1
    30   10   28 1
    31   11   29 1
    32   12   30 1
    33   12   31 1
    34   14   32 1
    35   15   33 1
    36   17   34 1
    37   18   35 1
    38   21   36 1
    39   22   37 1
    40   22   38 1
    41   22   39 1
    42   23   40 1
    43   23   41 1
    44   23   42 1
    45   24   43 1
@<TRIPOS>PROPERTY_DATA
  Total_Score	| 8.5161
  Crash		| -0.7699
  Polar		| 3.5141
  FragIndex	| 1
  FragRMSD	| 0.585

