@<TRIPOS>MOLECULE
BindingDB_50264906
 37 40 0 0 0
SMALL
NO_CHARGES


@<TRIPOS>ATOM
1    C       -14.7327  -34.5240  -20.1824  C     
2    C       -13.4819  -33.9905  -20.5096  C     
3    N       -12.4998  -33.9194  -19.5314  N     
4    C       -14.9844  -34.9931  -18.9501  C     
5    C       -14.0174  -34.8285  -17.9769  C     
6    N       -12.8484  -34.2092  -18.2593  N     
7    C       -12.2240  -33.9988  -17.0779  C     
8    C       -13.0399  -34.5754  -16.0983  C     
9    N       -14.1451  -35.0723  -16.6672  N     
10   N       -13.2653  -33.7383  -21.8057  N     
11   C       -12.0279  -33.3883  -22.4488  C     
12   C       -10.8743  -34.4028  -22.2693  C     
13   C       -11.0587  -33.2378  -16.8057  C     
14   C       -10.9435  -31.9195  -17.3218  C     
15   C        -9.7899  -31.1494  -17.0609  C     
16   C        -8.7324  -31.6909  -16.3172  C     
17   C        -8.8500  -32.9859  -15.7651  C     
18   C       -10.0082  -33.7431  -16.0019  C     
19   C        -7.6312  -31.0264  -16.1579  C     
20   N        -6.6510  -30.4424  -16.0298  N     
21   C       -11.0179  -35.7815  -21.5432  C     
22   C       -11.0606  -35.6789  -23.0926  C     
23   H       -15.4224  -34.6881  -20.8832  H     
24   H       -15.8553  -35.4236  -18.7288  H     
25   H       -12.8914  -34.5330  -15.0880  H     
26   H       -14.0044  -33.9856  -22.3998  H     
27   H       -12.2379  -33.2764  -23.5259  H     
28   H       -11.6995  -32.3985  -22.1004  H     
29   H        -9.8594  -33.9888  -22.3104  H     
30   H       -11.6945  -31.5056  -17.8494  H     
31   H        -9.7431  -30.1952  -17.4444  H     
32   H        -8.0845  -33.3889  -15.2034  H     
33   H       -10.0694  -34.6796  -15.5825  H     
34   H       -10.0922  -36.2302  -21.1475  H     
35   H       -11.9946  -35.9639  -21.0445  H     
36   H       -12.0324  -35.8537  -23.5767  H     
37   H       -10.1783  -36.0292  -23.6211  H     
@<TRIPOS>BOND
     1    1    2 1
     2    1    4 2
     3    2    3 2
     4    2   10 1
     5    3    6 1
     6    4    5 1
     7    5    6 1
     8    5    9 2
     9    6    7 1
    10    7    8 2
    11    7   13 1
    12    8    9 1
    13   10   11 1
    14   11   12 1
    15   12   21 1
    16   12   22 1
    17   13   14 2
    18   13   18 1
    19   14   15 1
    20   15   16 2
    21   16   17 1
    22   16   19 1
    23   17   18 2
    24   19   20 3
    25   21   22 1
    26    1   23 1
    27    4   24 1
    28    8   25 1
    29   10   26 1
    30   11   27 1
    31   11   28 1
    32   12   29 1
    33   14   30 1
    34   15   31 1
    35   17   32 1
    36   18   33 1
    37   21   34 1
    38   21   35 1
    39   22   36 1
    40   22   37 1
@<TRIPOS>PROPERTY_DATA
  Total_Score	| 7.5928
  Crash		| -0.9885
  Polar		| 2.5924
  FragIndex	| 1
  FragRMSD	| 0.485

