@<TRIPOS>MOLECULE
BindingDB_50380141
 43 44 0 0 0
SMALL
NO_CHARGES


@<TRIPOS>ATOM
1    S        -5.9588    1.2116   17.0405  S     
2    O        -4.5293    1.1580   17.7402  O     
3    O        -6.1930   -0.2978   16.5970  O     
4    C        -6.2678    4.3395   14.4371  C     
5    C        -6.3270    3.5935   15.6316  C     
6    C        -5.8625    2.2560   15.6437  C     
7    C        -5.2995    1.7137   14.4695  C     
8    C        -5.2581    2.4442   13.2613  C     
9    C        -5.7664    3.7616   13.2588  C     
10   C        -4.7480    1.8769   12.0989  C     
11   C        -3.4527    1.2291   12.0199  C     
12   O        -5.4307    1.9125   11.0829  O     
13   S        -2.3866    2.0017   10.7763  S     
14   C        -1.9816    3.4846   11.5921  C     
15   N        -2.9516    4.2405   12.1776  N     
16   C        -2.6607    5.4265   12.7755  C     
17   C        -1.3361    5.9151   12.8061  C     
18   C        -0.3589    5.1103   12.1742  C     
19   N        -0.7050    3.9341   11.5861  N     
20   Cl       -6.9440    4.3694   17.0104  Cl    
21   N        -7.0954    1.4937   18.2410  N     
22   C        -0.9792    7.2040   13.4610  C     
23   C        -1.8839    7.5396   14.6790  C     
24   C        -1.1975    8.3447   15.8118  C     
25   C        -0.4068    9.5908   15.3450  C     
26   H        -6.5865    5.3141   14.4182  H     
27   H        -4.9469    0.7497   14.4806  H     
28   H        -5.7392    4.3302   12.4103  H     
29   H        -2.9117    1.2430   12.9649  H     
30   H        -3.5982    0.1829   11.7446  H     
31   H        -3.4182    5.9633   13.2014  H     
32   H         0.6185    5.4064   12.1393  H     
33   H        -7.9946    1.1330   18.1482  H     
34   H        -6.8321    1.9294   19.0706  H     
35   H         0.0691    7.1940   13.7819  H     
36   H        -1.0676    7.9956   12.7126  H     
37   H        -2.7529    8.0966   14.3235  H     
38   H        -2.2577    6.6194   15.1264  H     
39   H        -1.9605    8.6685   16.5225  H     
40   H        -0.5109    7.6874   16.3512  H     
41   H         0.4510    9.2792   14.7422  H     
42   H        -0.0420   10.1440   16.2193  H     
43   H        -1.0442   10.2547   14.7515  H     
@<TRIPOS>BOND
     1    1    2 2
     2    1    3 2
     3    1    6 1
     4    1   21 am
     5    4    5 2
     6    4    9 1
     7    5    6 1
     8    5   20 1
     9    6    7 2
    10    7    8 1
    11    8    9 2
    12    8   10 1
    13   10   11 1
    14   10   12 2
    15   11   13 1
    16   13   14 1
    17   14   15 2
    18   14   19 1
    19   15   16 1
    20   16   17 2
    21   17   18 1
    22   17   22 1
    23   18   19 2
    24   22   23 1
    25   23   24 1
    26   24   25 1
    27    4   26 1
    28    7   27 1
    29    9   28 1
    30   11   29 1
    31   11   30 1
    32   16   31 1
    33   18   32 1
    34   21   33 1
    35   21   34 1
    36   22   35 1
    37   22   36 1
    38   23   37 1
    39   23   38 1
    40   24   39 1
    41   24   40 1
    42   25   41 1
    43   25   42 1
    44   25   43 1
@<TRIPOS>PROPERTY_DATA
  Total_Score	| 8.5859
  Crash		| -1.9440
  Polar		| 5.4641
  FragIndex	| 1
  FragRMSD	| 1.203

