@<TRIPOS>MOLECULE
BindingDB_50380152
 37 38 0 0 0
SMALL
NO_CHARGES


@<TRIPOS>ATOM
1    S        -5.8874    1.2557   17.0178  S     
2    O        -4.4150    1.0822   17.5965  O     
3    O        -6.2520   -0.2343   16.5753  O     
4    C        -6.2310    4.3432   14.3786  C     
5    C        -6.2866    3.6183   15.5836  C     
6    C        -5.8370    2.2750   15.6046  C     
7    C        -5.2864    1.7079   14.4395  C     
8    C        -5.2398    2.4208   13.2234  C     
9    C        -5.7365    3.7443   13.2100  C     
10   C        -4.7116    1.8401   12.0768  C     
11   C        -3.3580    1.2948   12.0021  C     
12   O        -5.4279    1.7646   11.0805  O     
13   S        -2.3119    2.1620   10.8080  S     
14   C        -2.1999    3.6849   11.6282  C     
15   N        -1.1165    3.9840   12.3876  N     
16   C        -1.0093    5.1806   13.0397  C     
17   C        -2.0407    6.1453   12.9351  C     
18   C        -3.1502    5.7971   12.1175  C     
19   N        -3.1987    4.5966   11.5027  N     
20   Cl       -6.8749    4.4194   16.9565  Cl    
21   N        -6.9051    1.5548   18.3139  N     
22   C        -2.0368    7.4844   13.5945  C     
23   C        -0.8845    7.8049   14.5641  C     
24   H        -6.5257    5.3190   14.3516  H     
25   H        -4.9437    0.7391   14.4540  H     
26   H        -5.6971    4.2985   12.3459  H     
27   H        -2.8470    1.3234   12.9639  H     
28   H        -3.4147    0.2485   11.6929  H     
29   H        -0.1700    5.3476   13.5978  H     
30   H        -3.9310    6.4458   11.9790  H     
31   H        -7.7818    1.1288   18.3610  H     
32   H        -6.6245    2.1677   19.0245  H     
33   H        -2.0198    8.2454   12.8117  H     
34   H        -2.9796    7.5945   14.1446  H     
35   H        -0.9167    7.1281   15.4249  H     
36   H        -0.9820    8.8351   14.9407  H     
37   H         0.0859    7.7119   14.0687  H     
@<TRIPOS>BOND
     1    1    2 2
     2    1    3 2
     3    1    6 1
     4    1   21 am
     5    4    5 2
     6    4    9 1
     7    5    6 1
     8    5   20 1
     9    6    7 2
    10    7    8 1
    11    8    9 2
    12    8   10 1
    13   10   11 1
    14   10   12 2
    15   11   13 1
    16   13   14 1
    17   14   15 2
    18   14   19 1
    19   15   16 1
    20   16   17 2
    21   17   18 1
    22   17   22 1
    23   18   19 2
    24   22   23 1
    25    4   24 1
    26    7   25 1
    27    9   26 1
    28   11   27 1
    29   11   28 1
    30   16   29 1
    31   18   30 1
    32   21   31 1
    33   21   32 1
    34   22   33 1
    35   22   34 1
    36   23   35 1
    37   23   36 1
    38   23   37 1
@<TRIPOS>PROPERTY_DATA
  Total_Score	| 7.2589
  Crash		| -1.3198
  Polar		| 5.2740
  FragIndex	| 1
  FragRMSD	| 1.132

