@<TRIPOS>MOLECULE
BindingDB_50380151
 40 41 0 0 0
SMALL
NO_CHARGES


@<TRIPOS>ATOM
1    S        -5.8956    1.1838   16.9746  S     
2    O        -4.4409    1.1904   17.6122  O     
3    O        -6.1092   -0.3361   16.5601  O     
4    C        -6.2604    4.2984   14.3658  C     
5    C        -6.3085    3.5597   15.5637  C     
6    C        -5.8476    2.2209   15.5733  C     
7    C        -5.3097    1.6679   14.3915  C     
8    C        -5.2942    2.3925   13.1775  C     
9    C        -5.7868    3.7148   13.1804  C     
10   C        -4.8241    1.7976   12.0162  C     
11   C        -3.4862    1.2452   11.8951  C     
12   O        -5.5652    1.7620   11.0415  O     
13   S        -2.4883    2.1828   10.7065  S     
14   C        -2.3776    3.6951   11.5633  C     
15   N        -1.2452    4.0495   12.2278  N     
16   C        -1.1450    5.2210   12.9062  C     
17   C        -2.2230    6.1290   12.9262  C     
18   C        -3.3860    5.7391   12.2178  C     
19   N        -3.4345    4.5439   11.5701  N     
20   Cl       -6.9098    4.3449   16.9434  Cl    
21   N        -6.9781    1.5032   18.2128  N     
22   C        -2.1599    7.3960   13.7131  C     
23   C        -0.7275    7.9931   13.8945  C     
24   C        -0.4997    8.6540   15.2758  C     
25   H        -6.5797    5.2758   14.3524  H     
26   H        -4.9586    0.7008   14.3972  H     
27   H        -5.7736    4.2799   12.3292  H     
28   H        -2.9508    1.2399   12.8468  H     
29   H        -3.5503    0.2079   11.5587  H     
30   H        -0.2827    5.4262   13.4039  H     
31   H        -4.2180    6.3318   12.2087  H     
32   H        -7.9086    1.2290   18.1305  H     
33   H        -6.6834    1.9823   19.0070  H     
34   H        -2.7894    8.1589   13.2425  H     
35   H        -2.6088    7.1937   14.6905  H     
36   H         0.0299    7.2207   13.7564  H     
37   H        -0.5554    8.7559   13.1310  H     
38   H        -1.1738    9.5056   15.4044  H     
39   H         0.5329    9.0084   15.3597  H     
40   H        -0.6828    7.9291   16.0751  H     
@<TRIPOS>BOND
     1    1    2 2
     2    1    3 2
     3    1    6 1
     4    1   21 am
     5    4    5 2
     6    4    9 1
     7    5    6 1
     8    5   20 1
     9    6    7 2
    10    7    8 1
    11    8    9 2
    12    8   10 1
    13   10   11 1
    14   10   12 2
    15   11   13 1
    16   13   14 1
    17   14   15 2
    18   14   19 1
    19   15   16 1
    20   16   17 2
    21   17   18 1
    22   17   22 1
    23   18   19 2
    24   22   23 1
    25   23   24 1
    26    4   25 1
    27    7   26 1
    28    9   27 1
    29   11   28 1
    30   11   29 1
    31   16   30 1
    32   18   31 1
    33   21   32 1
    34   21   33 1
    35   22   34 1
    36   22   35 1
    37   23   36 1
    38   23   37 1
    39   24   38 1
    40   24   39 1
    41   24   40 1
@<TRIPOS>PROPERTY_DATA
  Total_Score	| 7.9351
  Crash		| -1.6981
  Polar		| 5.3470
  FragIndex	| 1
  FragRMSD	| 1.177

