@<TRIPOS>MOLECULE
BindingDB_50329833
 36 38 0 0 0
SMALL
NO_CHARGES


@<TRIPOS>ATOM
1    C        -6.1937    4.2118   14.4308  C     
2    C        -6.3114    3.4464   15.6075  C     
3    C        -5.9137    2.0861   15.6000  C     
4    C        -5.3629    1.5376   14.4211  C     
5    C        -5.2644    2.2899   13.2290  C     
6    C        -5.6983    3.6348   13.2485  C     
7    Cl       -6.9401    4.2192   16.9815  Cl    
8    C        -4.7902    1.7065   12.0584  C     
9    C        -3.5232    0.9929   11.9675  C     
10   O        -5.4952    1.7446   11.0592  O     
11   S        -6.1359    1.0201   16.9660  S     
12   N        -7.6043    1.1775   17.7596  N     
13   O        -6.0417   -0.5074   16.5458  O     
14   O        -4.9661    1.2589   18.0139  O     
15   S        -2.4291    1.6695   10.6889  S     
16   C        -2.1746    3.2427   11.3843  C     
17   N        -1.8336    3.4975   12.6605  N     
18   N        -2.3977    4.3952   10.7246  N     
19   C        -2.1971    5.3866   11.6067  C     
20   C        -1.8463    4.8213   12.8300  C     
21   C        -2.0663    7.5954   12.5879  C     
22   C        -2.3106    6.7794   11.4636  C     
23   C        -1.7148    7.0184   13.8294  C     
24   C        -1.5984    5.6184   13.9572  C     
25   H        -6.4794    5.1939   14.4223  H     
26   H        -5.0804    0.5539   14.4111  H     
27   H        -5.6371    4.2149   12.4078  H     
28   H        -2.9769    1.0089   12.9125  H     
29   H        -3.7242   -0.0516   11.7218  H     
30   H        -8.4285    1.0914   17.2604  H     
31   H        -7.6256    1.2877   18.7214  H     
32   H        -1.6463    2.8370   13.3440  H     
33   H        -2.1485    8.6108   12.5047  H     
34   H        -2.5739    7.1908   10.5680  H     
35   H        -1.5470    7.6180   14.6392  H     
36   H        -1.3473    5.1917   14.8494  H     
@<TRIPOS>BOND
     1    1    2 2
     2    1    6 1
     3    2    3 1
     4    2    7 1
     5    3    4 2
     6    3   11 1
     7    4    5 1
     8    5    6 2
     9    5    8 1
    10    8    9 1
    11    8   10 2
    12    9   15 1
    13   11   12 am
    14   11   13 2
    15   11   14 2
    16   15   16 1
    17   16   17 1
    18   16   18 2
    19   17   20 1
    20   18   19 1
    21   19   20 2
    22   19   22 1
    23   20   24 1
    24   21   22 2
    25   21   23 1
    26   23   24 2
    27    1   25 1
    28    4   26 1
    29    6   27 1
    30    9   28 1
    31    9   29 1
    32   12   30 1
    33   12   31 1
    34   17   32 1
    35   21   33 1
    36   22   34 1
    37   23   35 1
    38   24   36 1
@<TRIPOS>PROPERTY_DATA
  Total_Score	| 8.0932
  Crash		| -1.3852
  Polar		| 6.3254
  FragIndex	| 1
  FragRMSD	| 0.778

