@<TRIPOS>MOLECULE
BindingDB_50380159
 41 42 0 0 0
SMALL
NO_CHARGES


@<TRIPOS>ATOM
1    S        -5.9263    1.2258   16.9968  S     
2    O        -4.4880    1.2718   17.6688  O     
3    O        -6.0692   -0.2969   16.5665  O     
4    C        -6.2201    4.3389   14.3593  C     
5    C        -6.2866    3.6087   15.5670  C     
6    C        -5.8617    2.2587   15.5888  C     
7    C        -5.3427    1.6817   14.4138  C     
8    C        -5.2799    2.3983   13.1994  C     
9    C        -5.7337    3.7357   13.1862  C     
10   C        -4.7837    1.7962   12.0450  C     
11   C        -3.5203    1.0820   12.0016  C     
12   O        -5.4264    1.9126   11.0082  O     
13   S        -2.3677    1.7731   10.7856  S     
14   C        -2.2721    3.3867   11.4297  C     
15   N        -2.4985    4.4376   10.6101  N     
16   C        -2.5136    5.6897   11.0776  C     
17   C        -2.3097    5.9652   12.3914  C     
18   C        -2.0792    4.8798   13.2224  C     
19   N        -2.0555    3.6356   12.7478  N     
20   Cl       -6.8687    4.4038   16.9442  Cl    
21   N        -7.0437    1.4849   18.2199  N     
22   O        -1.9548    4.9900   14.4370  O     
23   C        -2.3222    7.2788   12.8478  C     
24   O        -2.9366    8.2612   12.1394  O     
25   O        -1.6830    7.6150   14.0025  O     
26   C        -1.6092    8.9038   14.6155  C     
27   C        -0.3862    8.9377   15.5507  C     
28   H        -6.5018    5.3266   14.3228  H     
29   H        -5.0194    0.7151   14.4411  H     
30   H        -5.6883    4.2914   12.3256  H     
31   H        -3.0138    1.0857   12.9705  H     
32   H        -3.7077    0.0396   11.7394  H     
33   H        -2.6744    6.4103   10.4152  H     
34   H        -1.9131    2.8961   13.3553  H     
35   H        -7.9460    1.1177   18.1443  H     
36   H        -6.7739    1.9323   19.0401  H     
37   H        -1.5029    9.6802   13.8526  H     
38   H        -2.5138    9.0908   15.2017  H     
39   H        -0.4481    8.1315   16.2820  H     
40   H        -0.3354    9.8885   16.0819  H     
41   H         0.5282    8.8153   14.9742  H     
@<TRIPOS>BOND
     1    1    2 2
     2    1    3 2
     3    1    6 1
     4    1   21 am
     5    4    5 2
     6    4    9 1
     7    5    6 1
     8    5   20 1
     9    6    7 2
    10    7    8 1
    11    8    9 2
    12    8   10 1
    13   10   11 1
    14   10   12 2
    15   11   13 1
    16   13   14 1
    17   14   15 2
    18   14   19 1
    19   15   16 1
    20   16   17 2
    21   17   18 1
    22   17   23 1
    23   18   19 1
    24   18   22 2
    25   23   24 2
    26   23   25 1
    27   25   26 1
    28   26   27 1
    29    4   28 1
    30    7   29 1
    31    9   30 1
    32   11   31 1
    33   11   32 1
    34   16   33 1
    35   19   34 1
    36   21   35 1
    37   21   36 1
    38   26   37 1
    39   26   38 1
    40   27   39 1
    41   27   40 1
    42   27   41 1
@<TRIPOS>PROPERTY_DATA
  Total_Score	| 9.5562
  Crash		| -1.3686
  Polar		| 6.6089
  FragIndex	| 1
  FragRMSD	| 1.066

