@<TRIPOS>MOLECULE
BindingDB_50380140
 31 32 0 0 0
SMALL
NO_CHARGES


@<TRIPOS>ATOM
1    S        -6.1082    1.1084   16.9752  S     
2    O        -4.8918    1.3483   17.9689  O     
3    O        -6.1185   -0.4204   16.5466  O     
4    C        -6.1943    4.2749   14.4051  C     
5    C        -6.2870    3.5246   15.5938  C     
6    C        -5.9169    2.1559   15.5893  C     
7    C        -5.4009    1.5892   14.4035  C     
8    C        -5.3255    2.3324   13.2041  C     
9    C        -5.7425    3.6804   13.2164  C     
10   C        -4.8678    1.7459   12.0305  C     
11   C        -3.5664    1.1025   11.9160  C     
12   O        -5.5997    1.7660   11.0507  O     
13   S        -2.4204    2.0216   10.8491  S     
14   C        -1.9743    3.3461   11.8886  C     
15   N        -1.0555    4.2456   11.4463  N     
16   C        -0.6850    5.3140   12.1976  C     
17   C        -1.2600    5.5109   13.4658  C     
18   C        -2.2017    4.5668   13.9130  C     
19   N        -2.5310    3.5215   13.1157  N     
20   Cl       -6.8414    4.3363   16.9770  Cl    
21   N        -7.5512    1.3583   17.7950  N     
22   H        -6.4587    5.2631   14.3938  H     
23   H        -5.1228    0.6045   14.3935  H     
24   H        -5.6909    4.2511   12.3680  H     
25   H        -3.0893    0.9711   12.8906  H     
26   H        -3.7035    0.1086   11.4837  H     
27   H         0.0062    5.9729   11.8359  H     
28   H        -0.9950    6.3092   14.0465  H     
29   H        -2.6404    4.6604   14.8320  H     
30   H        -8.2157    1.9429   17.4010  H     
31   H        -7.5946    1.1701   18.7437  H     
@<TRIPOS>BOND
     1    1    2 2
     2    1    3 2
     3    1    6 1
     4    1   21 am
     5    4    5 2
     6    4    9 1
     7    5    6 1
     8    5   20 1
     9    6    7 2
    10    7    8 1
    11    8    9 2
    12    8   10 1
    13   10   11 1
    14   10   12 2
    15   11   13 1
    16   13   14 1
    17   14   15 2
    18   14   19 1
    19   15   16 1
    20   16   17 2
    21   17   18 1
    22   18   19 2
    23    4   22 1
    24    7   23 1
    25    9   24 1
    26   11   25 1
    27   11   26 1
    28   16   27 1
    29   17   28 1
    30   18   29 1
    31   21   30 1
    32   21   31 1
@<TRIPOS>PROPERTY_DATA
  Total_Score	| 7.0425
  Crash		| -1.1537
  Polar		| 5.4298
  FragIndex	| 1
  FragRMSD	| 0.983

