@<TRIPOS>MOLECULE
BindingDB_50380155
 41 42 0 0 0
SMALL
NO_CHARGES


@<TRIPOS>ATOM
1    S        -5.8677    1.2413   17.0052  S     
2    O        -4.3997    1.0369   17.5722  O     
3    O        -6.2692   -0.2321   16.5648  O     
4    C        -6.2716    4.3331   14.3718  C     
5    C        -6.3016    3.6056   15.5771  C     
6    C        -5.8272    2.2676   15.5958  C     
7    C        -5.2874    1.7118   14.4186  C     
8    C        -5.2677    2.4310   13.2039  C     
9    C        -5.7752    3.7509   13.1943  C     
10   C        -4.7399    1.8689   12.0516  C     
11   C        -3.4016    1.3059   12.0081  C     
12   O        -5.3901    1.9236   11.0121  O     
13   S        -2.3469    2.1641   10.8177  S     
14   C        -2.4959    3.8003   11.3964  C     
15   N        -3.1277    4.7201   10.6227  N     
16   C        -3.2281    6.0166   10.9775  C     
17   C        -2.6341    6.4274   12.1232  C     
18   C        -2.0131    5.5054   12.9236  C     
19   N        -1.9453    4.2201   12.5679  N     
20   Cl       -6.9159    4.3786   16.9502  Cl    
21   N        -6.9008    1.5816   18.2873  N     
22   O        -1.5234    5.8625   13.9921  O     
23   C        -3.8858    6.9488   10.0707  C     
24   C        -4.7439    8.0580   10.7332  C     
25   C        -5.8212    7.5415   11.7173  C     
26   H        -6.6106    5.2991   14.3448  H     
27   H        -4.9309    0.7535   14.4281  H     
28   H        -5.7529    4.3126   12.3356  H     
29   H        -2.9042    1.3383   12.9757  H     
30   H        -3.4652    0.2563   11.7152  H     
31   H        -2.6563    7.3905   12.3849  H     
32   H        -1.4979    3.5819   13.1507  H     
33   H        -7.7569    1.1258   18.3554  H     
34   H        -6.6301    2.2068   18.9851  H     
35   H        -3.1124    7.4384    9.4832  H     
36   H        -4.5245    6.3964    9.3755  H     
37   H        -4.0989    8.7532   11.2756  H     
38   H        -5.2548    8.6272    9.9473  H     
39   H        -6.4861    6.8260   11.2156  H     
40   H        -6.4249    8.3793   12.0900  H     
41   H        -5.3440    7.0503   12.5721  H     
@<TRIPOS>BOND
     1    1    2 2
     2    1    3 2
     3    1    6 1
     4    1   21 am
     5    4    5 2
     6    4    9 1
     7    5    6 1
     8    5   20 1
     9    6    7 2
    10    7    8 1
    11    8    9 2
    12    8   10 1
    13   10   11 1
    14   10   12 2
    15   11   13 1
    16   13   14 1
    17   14   15 2
    18   14   19 1
    19   15   16 1
    20   16   17 2
    21   16   23 1
    22   17   18 1
    23   18   19 1
    24   18   22 2
    25   23   24 1
    26   24   25 1
    27    4   26 1
    28    7   27 1
    29    9   28 1
    30   11   29 1
    31   11   30 1
    32   17   31 1
    33   19   32 1
    34   21   33 1
    35   21   34 1
    36   23   35 1
    37   23   36 1
    38   24   37 1
    39   24   38 1
    40   25   39 1
    41   25   40 1
    42   25   41 1
@<TRIPOS>PROPERTY_DATA
  Total_Score	| 7.4252
  Crash		| -1.2009
  Polar		| 5.7038
  FragIndex	| 1
  FragRMSD	| 1.298

