@<TRIPOS>MOLECULE
BindingDB_50380138
 48 50 0 0 0
SMALL
NO_CHARGES


@<TRIPOS>ATOM
1    S        -5.9172    1.2035   17.0208  S     
2    O        -4.4566    1.1757   17.6432  O     
3    O        -6.1620   -0.3134   16.6013  O     
4    C        -6.2623    4.2794   14.3567  C     
5    C        -6.3100    3.5603   15.5703  C     
6    C        -5.8698    2.2107   15.6001  C     
7    C        -5.3514    1.6341   14.4252  C     
8    C        -5.3071    2.3455   13.2007  C     
9    C        -5.7799    3.6805   13.1849  C     
10   C        -4.8039    1.7464   12.0529  C     
11   C        -3.5519    1.0009   12.0337  C     
12   O        -5.4030    1.9043   10.9922  O     
13   S        -2.3008    1.7360   10.9486  S     
14   C        -2.3693    3.3674   11.5351  C     
15   N        -1.8468    3.7650   12.7286  N     
16   C        -1.9330    5.0312   13.1219  C     
17   C        -2.5273    6.0152   12.3383  C     
18   C        -3.1134    5.5837   11.1778  C     
19   N        -3.0021    4.3055   10.7920  N     
20   Cl       -6.8747    4.3814   16.9440  Cl    
21   N        -6.9910    1.4984   18.2763  N     
22   C        -2.6517    7.4296   12.7458  C     
23   C        -1.7105    7.9942   13.7439  C     
24   C        -2.1146    8.1929   15.0899  C     
25   C        -1.2372    8.7831   16.0192  C     
26   C         0.0553    9.1824   15.6166  C     
27   C         0.4710    8.9823   14.2863  C     
28   C        -0.4104    8.3876   13.3601  C     
29   C        -3.9084    6.4133   10.2760  C     
30   O        -1.4301    5.2652   14.2191  O     
31   H        -6.5761    5.2515   14.3216  H     
32   H        -5.0310    0.6608   14.4412  H     
33   H        -5.7407    4.2319   12.3311  H     
34   H        -3.1013    0.9280   13.0272  H     
35   H        -3.7576   -0.0113   11.6836  H     
36   H        -1.4246    3.1033   13.3031  H     
37   H        -7.8832    1.1195   18.2468  H     
38   H        -6.6994    1.9977   19.0545  H     
39   H        -2.5547    8.0620   11.8715  H     
40   H        -3.6764    7.5604   13.0995  H     
41   H        -3.0451    7.9055   15.4040  H     
42   H        -1.5471    8.9168   16.9903  H     
43   H         0.6822    9.6218   16.2927  H     
44   H         1.4059    9.2719   13.9993  H     
45   H        -0.0932    8.2634   12.4007  H     
46   H        -4.7379    6.8742   10.8194  H     
47   H        -4.3450    5.8364    9.4559  H     
48   H        -3.2887    7.1940    9.8304  H     
@<TRIPOS>BOND
     1    1    2 2
     2    1    3 2
     3    1    6 1
     4    1   21 am
     5    4    5 2
     6    4    9 1
     7    5    6 1
     8    5   20 1
     9    6    7 2
    10    7    8 1
    11    8    9 2
    12    8   10 1
    13   10   11 1
    14   10   12 2
    15   11   13 1
    16   13   14 1
    17   14   15 1
    18   14   19 2
    19   15   16 1
    20   16   17 1
    21   16   30 2
    22   17   18 2
    23   17   22 1
    24   18   19 1
    25   18   29 1
    26   22   23 1
    27   23   24 2
    28   23   28 1
    29   24   25 1
    30   25   26 2
    31   26   27 1
    32   27   28 2
    33    4   31 1
    34    7   32 1
    35    9   33 1
    36   11   34 1
    37   11   35 1
    38   15   36 1
    39   21   37 1
    40   21   38 1
    41   22   39 1
    42   22   40 1
    43   24   41 1
    44   25   42 1
    45   26   43 1
    46   27   44 1
    47   28   45 1
    48   29   46 1
    49   29   47 1
    50   29   48 1
@<TRIPOS>PROPERTY_DATA
  Total_Score	| 9.8651
  Crash		| -1.9288
  Polar		| 6.3605
  FragIndex	| 1
  FragRMSD	| 1.347

