@<TRIPOS>MOLECULE
BindingDB_50380139
 33 34 0 0 0
SMALL
NO_CHARGES


@<TRIPOS>ATOM
1    S        -5.9504    1.2002   16.9888  S     
2    O        -4.4807    1.1693   17.5907  O     
3    O        -6.1734   -0.3184   16.5721  O     
4    C        -6.2768    4.3325   14.3842  C     
5    C        -6.3384    3.5928   15.5838  C     
6    C        -5.9180    2.2394   15.5889  C     
7    C        -5.4120    1.6774   14.3983  C     
8    C        -5.3386    2.4064   13.1943  C     
9    C        -5.8091    3.7376   13.1996  C     
10   C        -4.8206    1.8353   12.0347  C     
11   C        -3.6032    1.0447   12.0124  C     
12   O        -5.5051    1.8425   11.0174  O     
13   S        -2.3882    1.5679   10.7868  S     
14   C        -1.4939    2.8929   11.4938  C     
15   C        -0.2663    3.2296   10.8743  C     
16   C         0.5226    4.2821   11.3719  C     
17   C         0.1013    5.0097   12.5075  C     
18   C        -1.1179    4.6796   13.1426  C     
19   C        -1.8828    3.5947   12.6642  C     
20   Cl       -6.9022    4.3708   16.9874  Cl    
21   N        -6.9944    1.4552   18.2705  N     
22   H        -6.5650    5.3172   14.3681  H     
23   H        -5.1064    0.7002   14.4143  H     
24   H        -5.7541    4.3037   12.3459  H     
25   H        -3.0976    1.0807   12.9760  H     
26   H        -3.8705    0.0027   11.7831  H     
27   H         0.0479    2.7339   10.0367  H     
28   H         1.4037    4.5240   10.9132  H     
29   H         0.6530    5.7911   12.8584  H     
30   H        -1.4269    5.2061   13.9644  H     
31   H        -2.7269    3.3110   13.1794  H     
32   H        -7.8957    1.0993   18.2414  H     
33   H        -6.6891    1.9154   19.0674  H     
@<TRIPOS>BOND
     1    1    2 2
     2    1    3 2
     3    1    6 1
     4    1   21 am
     5    4    5 2
     6    4    9 1
     7    5    6 1
     8    5   20 1
     9    6    7 2
    10    7    8 1
    11    8    9 2
    12    8   10 1
    13   10   11 1
    14   10   12 2
    15   11   13 1
    16   13   14 1
    17   14   15 2
    18   14   19 1
    19   15   16 1
    20   16   17 2
    21   17   18 1
    22   18   19 2
    23    4   22 1
    24    7   23 1
    25    9   24 1
    26   11   25 1
    27   11   26 1
    28   15   27 1
    29   16   28 1
    30   17   29 1
    31   18   30 1
    32   19   31 1
    33   21   32 1
    34   21   33 1
@<TRIPOS>PROPERTY_DATA
  Total_Score	| 7.6363
  Crash		| -1.3052
  Polar		| 5.6339
  FragIndex	| 1
  FragRMSD	| 0.977

