@<TRIPOS>MOLECULE
BindingDB_50380153
 37 38 0 0 0
SMALL
NO_CHARGES


@<TRIPOS>ATOM
1    S        -5.9233    1.2412   17.0345  S     
2    O        -4.4510    1.1674   17.6219  O     
3    O        -6.1909   -0.2639   16.6000  O     
4    C        -6.2866    4.3242   14.3821  C     
5    C        -6.3281    3.6023   15.5914  C     
6    C        -5.8738    2.2603   15.6185  C     
7    C        -5.3405    1.6898   14.4416  C     
8    C        -5.3041    2.4029   13.2213  C     
9    C        -5.8071    3.7234   13.2063  C     
10   C        -4.8133    1.8163   12.0574  C     
11   C        -3.5384    1.1155   11.9812  C     
12   O        -5.5205    1.8276   11.0566  O     
13   S        -2.4773    1.7350   10.6495  S     
14   C        -1.8467    3.1825   11.3764  C     
15   N        -0.5009    3.3390   11.4180  N     
16   C         0.0887    4.4552   11.9203  C     
17   C        -0.7287    5.4957   12.4080  C     
18   C        -2.1298    5.3435   12.3303  C     
19   N        -2.6421    4.1929   11.8131  N     
20   Cl       -6.9173    4.4124   16.9603  Cl    
21   N        -6.9516    1.5454   18.3240  N     
22   C        -3.0273    6.4238   12.7817  C     
23   C         1.5631    4.5393   11.8829  C     
24   H        -6.6061    5.2956   14.3467  H     
25   H        -5.0097    0.7203   14.4628  H     
26   H        -5.7942    4.2750   12.3444  H     
27   H        -2.9748    1.1730   12.9156  H     
28   H        -3.7398    0.0611   11.7788  H     
29   H        -0.3156    6.3527   12.7862  H     
30   H        -7.8060    1.0905   18.3678  H     
31   H        -6.6116    2.0080   19.1061  H     
32   H        -2.8702    6.6136   13.8464  H     
33   H        -4.0754    6.1604   12.6279  H     
34   H        -2.8180    7.3378   12.2220  H     
35   H         1.9965    3.6867   12.4081  H     
36   H         1.9330    5.4566   12.3458  H     
37   H         1.8986    4.5177   10.8451  H     
@<TRIPOS>BOND
     1    1    2 2
     2    1    3 2
     3    1    6 1
     4    1   21 am
     5    4    5 2
     6    4    9 1
     7    5    6 1
     8    5   20 1
     9    6    7 2
    10    7    8 1
    11    8    9 2
    12    8   10 1
    13   10   11 1
    14   10   12 2
    15   11   13 1
    16   13   14 1
    17   14   15 2
    18   14   19 1
    19   15   16 1
    20   16   17 2
    21   16   23 1
    22   17   18 1
    23   18   19 2
    24   18   22 1
    25    4   24 1
    26    7   25 1
    27    9   26 1
    28   11   27 1
    29   11   28 1
    30   17   29 1
    31   21   30 1
    32   21   31 1
    33   22   32 1
    34   22   33 1
    35   22   34 1
    36   23   35 1
    37   23   36 1
    38   23   37 1
@<TRIPOS>PROPERTY_DATA
  Total_Score	| 7.6955
  Crash		| -1.3421
  Polar		| 5.5880
  FragIndex	| 1
  FragRMSD	| 1.212

