@<TRIPOS>MOLECULE
BindingDB_50329835
 36 38 0 0 0
SMALL
NO_CHARGES


@<TRIPOS>ATOM
1    C        -6.1661    4.3263   14.3411  C     
2    C        -6.2654    3.5937   15.5373  C     
3    C        -5.8934    2.2248   15.5577  C     
4    C        -5.3557    1.6393   14.3872  C     
5    C        -5.2775    2.3695   13.1817  C     
6    C        -5.7153    3.7083   13.1629  C     
7    Cl       -6.8356    4.4296   16.9036  Cl    
8    C        -4.8193    1.7452   12.0274  C     
9    C        -3.5546    1.0241   11.9786  C     
10   O        -5.5353    1.7699   11.0355  O     
11   S        -6.0867    1.1970   16.9645  S     
12   N        -7.5265    1.4865   17.7848  N     
13   O        -6.1724   -0.3166   16.5186  O     
14   O        -4.8620    1.3846   17.9465  O     
15   S        -2.4336    1.6645   10.7085  S     
16   C        -2.1812    3.2506   11.3678  C     
17   N        -1.9310    3.5081   12.6636  N     
18   N        -2.2326    4.3937   10.6626  N     
19   C        -1.9827    5.3856   11.5340  C     
20   C        -1.7892    4.8282   12.7954  C     
21   C        -1.6252    7.6029   12.4468  C     
22   C        -1.9054    6.7728   11.3399  C     
23   C        -1.4265    7.0342   13.7256  C     
24   C        -1.5057    5.6381   13.9079  C     
25   Br       -1.5073    9.4448   12.2219  Br    
26   H        -6.4325    5.3124   14.3144  H     
27   H        -5.0698    0.6599   14.4034  H     
28   H        -5.6712    4.2631   12.3007  H     
29   H        -3.0315    1.0555   12.9351  H     
30   H        -3.7534   -0.0228   11.7453  H     
31   H        -7.7526    0.9535   18.5622  H     
32   H        -8.1379    2.1784   17.4719  H     
33   H        -1.8650    2.8551   13.3752  H     
34   H        -2.0546    7.1730   10.4101  H     
35   H        -1.2325    7.6380   14.5276  H     
36   H        -1.3750    5.2218   14.8332  H     
@<TRIPOS>BOND
     1    1    2 2
     2    1    6 1
     3    2    3 1
     4    2    7 1
     5    3    4 2
     6    3   11 1
     7    4    5 1
     8    5    6 2
     9    5    8 1
    10    8    9 1
    11    8   10 2
    12    9   15 1
    13   11   12 am
    14   11   13 2
    15   11   14 2
    16   15   16 1
    17   16   17 1
    18   16   18 2
    19   17   20 1
    20   18   19 1
    21   19   20 2
    22   19   22 1
    23   20   24 1
    24   21   22 2
    25   21   23 1
    26   21   25 1
    27   23   24 2
    28    1   26 1
    29    4   27 1
    30    6   28 1
    31    9   29 1
    32    9   30 1
    33   12   31 1
    34   12   32 1
    35   17   33 1
    36   22   34 1
    37   23   35 1
    38   24   36 1
@<TRIPOS>PROPERTY_DATA
  Total_Score	| 8.2624
  Crash		| -1.3753
  Polar		| 6.7629
  FragIndex	| 1
  FragRMSD	| 0.806

