@<TRIPOS>MOLECULE
BindingDB_50380146
 44 45 0 0 0
SMALL
NO_CHARGES


@<TRIPOS>ATOM
1    S        -5.9224    1.1672   17.0022  S     
2    O        -4.4998    1.1999   17.7052  O     
3    O        -6.0956   -0.3486   16.5616  O     
4    C        -6.2302    4.3251   14.4297  C     
5    C        -6.3066    3.5660   15.6140  C     
6    C        -5.8452    2.2243   15.6173  C     
7    C        -5.2747    1.6900   14.4457  C     
8    C        -5.2346    2.4337   13.2439  C     
9    C        -5.7282    3.7573   13.2464  C     
10   C        -4.7377    1.8604   12.0856  C     
11   C        -3.4306    1.2219   12.0316  C     
12   O        -5.4037    1.9391   11.0573  O     
13   S        -2.3190    2.0520   10.8690  S     
14   C        -2.4628    3.6866   11.4385  C     
15   N        -3.0587    4.6100   10.6392  N     
16   C        -3.1853    5.9117   10.9839  C     
17   C        -2.6497    6.2936   12.1739  C     
18   C        -2.0810    5.3709   13.0076  C     
19   N        -1.9860    4.0918   12.6439  N     
20   Cl       -6.9460    4.3312   16.9843  Cl    
21   N        -7.0571    1.4336   18.2111  N     
22   O        -1.6510    5.7120   14.1026  O     
23   C        -3.8018    6.8711   10.0264  C     
24   C        -4.7704    6.1495    9.0233  C     
25   C        -4.6475    7.9783   10.7517  C     
26   C        -2.6577    7.5481    9.2056  C     
27   H        -6.5470    5.2988   14.4156  H     
28   H        -4.9187    0.7304   14.4460  H     
29   H        -5.7049    4.3328   12.3971  H     
30   H        -2.9390    1.2094   13.0073  H     
31   H        -3.5461    0.1841   11.7123  H     
32   H        -2.6493    7.2511   12.4414  H     
33   H        -1.5644    3.4497   13.2379  H     
34   H        -7.9804    1.1701   18.0721  H     
35   H        -6.8072    1.9241   19.0113  H     
36   H        -4.2391    5.4184    8.4106  H     
37   H        -5.2422    6.8637    8.3425  H     
38   H        -5.5638    5.6287    9.5655  H     
39   H        -5.3641    7.5208   11.4421  H     
40   H        -5.2004    8.5898   10.0336  H     
41   H        -4.0117    8.6621   11.3195  H     
42   H        -1.9655    8.0815    9.8608  H     
43   H        -3.0643    8.2659    8.4913  H     
44   H        -2.0868    6.8022    8.6481  H     
@<TRIPOS>BOND
     1    1    2 2
     2    1    3 2
     3    1    6 1
     4    1   21 am
     5    4    5 2
     6    4    9 1
     7    5    6 1
     8    5   20 1
     9    6    7 2
    10    7    8 1
    11    8    9 2
    12    8   10 1
    13   10   11 1
    14   10   12 2
    15   11   13 1
    16   13   14 1
    17   14   15 2
    18   14   19 1
    19   15   16 1
    20   16   17 2
    21   16   23 1
    22   17   18 1
    23   18   19 1
    24   18   22 2
    25   23   24 1
    26   23   25 1
    27   23   26 1
    28    4   27 1
    29    7   28 1
    30    9   29 1
    31   11   30 1
    32   11   31 1
    33   17   32 1
    34   19   33 1
    35   21   34 1
    36   21   35 1
    37   24   36 1
    38   24   37 1
    39   24   38 1
    40   25   39 1
    41   25   40 1
    42   25   41 1
    43   26   42 1
    44   26   43 1
    45   26   44 1
@<TRIPOS>PROPERTY_DATA
  Total_Score	| 7.4439
  Crash		| -1.2558
  Polar		| 5.9454
  FragIndex	| 1
  FragRMSD	| 1.320

