@<TRIPOS>MOLECULE
BindingDB_50329836
 41 44 0 0 0
SMALL
NO_CHARGES


@<TRIPOS>ATOM
1    C        -6.2787    4.3617   14.4435  C     
2    C        -6.3202    3.6125   15.6377  C     
3    C        -5.8404    2.2815   15.6384  C     
4    C        -5.2872    1.7452   14.4577  C     
5    C        -5.2498    2.4856   13.2546  C     
6    C        -5.7759    3.7997   13.2579  C     
7    Cl       -6.9350    4.3748   17.0242  Cl    
8    C        -4.7328    1.9344   12.0852  C     
9    C        -3.4892    1.1730   12.0469  C     
10   O        -5.4311    1.9425   11.0753  O     
11   S        -5.8696    1.2311   17.0310  S     
12   N        -6.9435    1.5113   18.2927  N     
13   O        -6.0712   -0.2904   16.6093  O     
14   O        -4.4141    1.2385   17.6723  O     
15   S        -2.4130    1.6665   10.6788  S     
16   C        -1.7590    3.1776   11.2562  C     
17   N        -2.2277    3.9935   12.2205  N     
18   N        -0.6388    3.7077   10.7234  N     
19   C        -0.3943    4.8550   11.3718  C     
20   C        -1.4033    5.0515   12.3102  C     
21   N         0.6698    6.8179   12.0689  N     
22   C         0.6335    5.7715   11.2521  C     
23   C        -0.2831    7.0728   13.0153  C     
24   C        -1.3876    6.1853   13.1592  C     
25   C        -2.3907    6.4536   14.1144  C     
26   C        -2.2877    7.5978   14.9290  C     
27   C        -1.1853    8.4663   14.8025  C     
28   C        -0.1812    8.2003   13.8509  C     
29   H        -6.6130    5.3249   14.4292  H     
30   H        -4.9292    0.7868   14.4627  H     
31   H        -5.7580    4.3774   12.4095  H     
32   H        -2.9141    1.2589   12.9742  H     
33   H        -3.7373    0.1115   11.9002  H     
34   H        -6.6564    2.0238   19.0669  H     
35   H        -7.8597    1.1797   18.2265  H     
36   H        -3.0110    3.8405   12.7681  H     
37   H         1.3526    5.6418   10.5852  H     
38   H        -3.1961    5.8314   14.2183  H     
39   H        -3.0151    7.8019   15.6123  H     
40   H        -1.1133    9.2903   15.4058  H     
41   H         0.6160    8.8357   13.7674  H     
@<TRIPOS>BOND
     1    1    2 2
     2    1    6 1
     3    2    3 1
     4    2    7 1
     5    3    4 2
     6    3   11 1
     7    4    5 1
     8    5    6 2
     9    5    8 1
    10    8    9 1
    11    8   10 2
    12    9   15 1
    13   11   12 am
    14   11   13 2
    15   11   14 2
    16   15   16 1
    17   16   17 1
    18   16   18 2
    19   17   20 1
    20   18   19 1
    21   19   20 2
    22   19   22 1
    23   20   24 1
    24   21   22 2
    25   21   23 1
    26   23   24 1
    27   23   28 2
    28   24   25 2
    29   25   26 1
    30   26   27 2
    31   27   28 1
    32    1   29 1
    33    4   30 1
    34    6   31 1
    35    9   32 1
    36    9   33 1
    37   12   34 1
    38   12   35 1
    39   17   36 1
    40   22   37 1
    41   25   38 1
    42   26   39 1
    43   27   40 1
    44   28   41 1
@<TRIPOS>PROPERTY_DATA
  Total_Score	| 8.4669
  Crash		| -1.4023
  Polar		| 5.4948
  FragIndex	| 1
  FragRMSD	| 1.253

