@<TRIPOS>MOLECULE
BindingDB_50380158
 35 36 0 0 0
SMALL
NO_CHARGES


@<TRIPOS>ATOM
1    O        -4.5383    1.1905   17.7150  O     
2    S        -5.9554    1.1724   17.0127  S     
3    O        -6.1277   -0.3472   16.5922  O     
4    C        -5.8508    2.2145   15.6161  C     
5    C        -6.3004    3.5573   15.6072  C     
6    C        -6.2193    4.3093   14.4162  C     
7    C        -5.7206    3.7213   13.2361  C     
8    C        -5.2372    2.4010   13.2435  C     
9    C        -5.2861    1.6647   14.4424  C     
10   C        -4.7096    1.8277   12.0940  C     
11   O        -5.3503    1.9060   11.0541  O     
12   C        -3.4070    1.1715   12.0779  C     
13   S        -2.2761    1.8749   10.8468  S     
14   C        -2.3156    3.5552   11.2999  C     
15   N        -2.7433    4.4657   10.3868  N     
16   C        -2.8644    5.7734   10.6877  C     
17   C        -2.5638    6.1949   11.9355  C     
18   C        -2.1024    5.2935   12.8544  C     
19   N        -1.9842    4.0023   12.5433  N     
20   O        -1.8213    5.6651   13.9845  O     
21   C        -3.3711    6.6616    9.6584  C     
22   Cl       -6.9121    4.3553   16.9735  Cl    
23   N        -7.0971    1.4752   18.2012  N     
24   H        -6.5125    5.2869   14.4028  H     
25   H        -5.6743    4.2899   12.3843  H     
26   H        -4.9310    0.7033   14.4543  H     
27   H        -2.9080    1.2266   13.0476  H     
28   H        -3.5463    0.1124   11.8460  H     
29   H        -2.6904    7.1482   12.1967  H     
30   H        -1.6714    3.3701   13.2134  H     
31   H        -2.6945    6.6598    8.8013  H     
32   H        -3.4742    7.6922   10.0050  H     
33   H        -4.3533    6.3154    9.3299  H     
34   H        -8.0353    1.2856   18.0313  H     
35   H        -6.8361    1.9534   19.0050  H     
@<TRIPOS>BOND
     1    1    2 2
     2    2    3 2
     3    2    4 1
     4    2   23 am
     5    4    5 1
     6    4    9 2
     7    5    6 2
     8    5   22 1
     9    6    7 1
    10    7    8 2
    11    8    9 1
    12    8   10 1
    13   10   11 2
    14   10   12 1
    15   12   13 1
    16   13   14 1
    17   14   15 2
    18   14   19 1
    19   15   16 1
    20   16   17 2
    21   16   21 1
    22   17   18 1
    23   18   19 1
    24   18   20 2
    25    6   24 1
    26    7   25 1
    27    9   26 1
    28   12   27 1
    29   12   28 1
    30   17   29 1
    31   19   30 1
    32   21   31 1
    33   21   32 1
    34   21   33 1
    35   23   34 1
    36   23   35 1
@<TRIPOS>PROPERTY_DATA
  Total_Score	| 7.1628
  Crash		| -1.1989
  Polar		| 5.9734
  FragIndex	| 1
  FragRMSD	| 1.307

