@<TRIPOS>MOLECULE
BindingDB_50329834
 42 45 0 0 0
SMALL
NO_CHARGES


@<TRIPOS>ATOM
1    O        -1.9093    8.9178   12.6638  O     
2    C        -1.3239    9.6648   13.7517  C     
3    C        -1.5878    8.9610   15.1071  C     
4    O        -1.1020    7.6046   15.0708  O     
5    C        -1.4098    6.8932   13.9358  C     
6    C        -1.7539    7.5495   12.7168  C     
7    C        -2.0474    6.7915   11.5613  C     
8    C        -1.9835    5.3899   11.6382  C     
9    N        -2.2889    4.4421   10.7355  N     
10   C        -2.1154    3.2558   11.3541  C     
11   N        -1.6821    3.4473   12.6122  N     
12   C        -1.6197    4.7589   12.8246  C     
13   C        -1.3278    5.4867   13.9855  C     
14   S        -2.4828    1.7072   10.6560  S     
15   C        -3.5725    1.0814   11.9648  C     
16   C        -4.8321    1.8059   12.0455  C     
17   O        -5.5280    1.8535   11.0352  O     
18   C        -5.3079    2.3971   13.2105  C     
19   C        -5.3792    1.6646   14.4170  C     
20   C        -5.9043    2.2300   15.5968  C     
21   C        -6.3141    3.5877   15.5916  C     
22   C        -6.2460    4.3252   14.3914  C     
23   C        -5.7729    3.7303   13.2126  C     
24   S        -5.9441    1.1973   17.0049  S     
25   O        -6.1195   -0.3290   16.5982  O     
26   Cl       -6.8693    4.3891   16.9795  Cl    
27   O        -4.4895    1.2207   17.6414  O     
28   N        -7.0246    1.4981   18.2507  N     
29   H        -0.2468    9.7540   13.5899  H     
30   H        -1.7577   10.6659   13.7644  H     
31   H        -1.0774    9.4905   15.9136  H     
32   H        -2.6603    8.9549   15.3199  H     
33   H        -2.3298    7.2500   10.6898  H     
34   H        -1.4983    2.7585   13.2683  H     
35   H        -1.0837    5.0004   14.8478  H     
36   H        -3.7912    0.0357   11.7520  H     
37   H        -3.0214    1.1180   12.9091  H     
38   H        -5.0721    0.6864   14.4223  H     
39   H        -6.5445    5.3019   14.3659  H     
40   H        -5.7383    4.2929   12.3566  H     
41   H        -6.7496    2.0512   18.9985  H     
42   H        -7.9609    1.2758   18.1338  H     
@<TRIPOS>BOND
     1    1    2 1
     2    1    6 1
     3    2    3 1
     4    3    4 1
     5    4    5 1
     6    5    6 2
     7    5   13 1
     8    6    7 1
     9    7    8 2
    10    8    9 1
    11    8   12 1
    12    9   10 2
    13   10   11 1
    14   10   14 1
    15   11   12 1
    16   12   13 2
    17   14   15 1
    18   15   16 1
    19   16   17 2
    20   16   18 1
    21   18   19 2
    22   18   23 1
    23   19   20 1
    24   20   21 2
    25   20   24 1
    26   21   22 1
    27   21   26 1
    28   22   23 2
    29   24   25 2
    30   24   27 2
    31   24   28 am
    32    2   29 1
    33    2   30 1
    34    3   31 1
    35    3   32 1
    36    7   33 1
    37   11   34 1
    38   13   35 1
    39   15   36 1
    40   15   37 1
    41   19   38 1
    42   22   39 1
    43   23   40 1
    44   28   41 1
    45   28   42 1
@<TRIPOS>PROPERTY_DATA
  Total_Score	| 9.3689
  Crash		| -1.5793
  Polar		| 6.6366
  FragIndex	| 1
  FragRMSD	| 0.789

