@<TRIPOS>MOLECULE
BindingDB_7719
 49 51 0 0 0
SMALL
NO_CHARGES


@<TRIPOS>ATOM
1    C        -8.0824   49.5883   14.5961  C     
2    C        -7.4001   49.9946   15.7643  C     
3    C        -7.5761   51.3280   16.2284  C     
4    C        -8.3810   52.2386   15.5148  C     
5    C        -8.9027   50.4990   13.9042  C     
6    C        -9.6564   50.3720   12.7605  C     
7    C        -9.0385   51.8039   14.3571  C     
8    N        -9.8640   52.4225   13.5039  N     
9    C       -10.2382   51.5754   12.5654  C     
10   O       -11.0383   51.8676   11.6917  O     
11   N       -10.3743   49.0665   10.8808  N     
12   C       -10.2295   48.0320   10.0026  C     
13   C        -9.9755   45.9953    8.0048  C     
14   C        -9.0917   46.0344    9.0983  C     
15   C        -9.2169   47.0363   10.0850  C     
16   C       -11.1267   47.9631    8.9141  C     
17   C       -11.0053   46.9584    7.9292  C     
18   O       -11.1067   44.2773    6.1856  O     
19   S        -9.7178   44.8490    6.7169  S     
20   O        -9.0507   45.6219    5.4940  O     
21   N        -8.7277   43.5431    7.0801  N     
22   C        -9.7094   49.2421   12.0202  C     
23   C        -6.5761   49.0863   16.4313  C     
24   O        -6.5722   49.0921   17.6589  O     
25   C        -5.5516   48.3075   15.7390  C     
26   C        -5.9804   46.8472   15.3667  C     
27   C        -5.1173   46.2883   14.2051  C     
28   C        -5.9358   45.8918   16.5863  C     
29   H        -8.0035   48.6274   14.2642  H     
30   H        -7.0993   51.6569   17.0747  H     
31   H        -8.4759   53.2032   15.8202  H     
32   H       -10.1671   53.3408   13.5823  H     
33   H       -11.0323   49.7460   10.6362  H     
34   H        -8.3351   45.3501    9.1756  H     
35   H        -8.5195   47.0423   10.8290  H     
36   H       -11.8779   48.6581    8.8236  H     
37   H       -11.6663   46.9444    7.1459  H     
38   H        -9.0999   42.6441    7.1290  H     
39   H        -7.8043   43.7028    7.3452  H     
40   H        -9.2083   48.4558   12.3588  H     
41   H        -5.2548   48.8504   14.8325  H     
42   H        -4.6490   48.2613   16.3572  H     
43   H        -7.0151   46.8506   15.0109  H     
44   H        -5.1925   46.9369   13.3273  H     
45   H        -5.4643   45.2924   13.9116  H     
46   H        -4.0646   46.2181   14.4986  H     
47   H        -4.9192   45.8123   16.9790  H     
48   H        -6.2803   44.8944   16.2902  H     
49   H        -6.5926   46.2488   17.3840  H     
@<TRIPOS>BOND
     1    1    2 1
     2    1    5 2
     3    2    3 2
     4    2   23 1
     5    3    4 1
     6    4    7 2
     7    5    6 1
     8    5    7 1
     9    6    9 1
    10    6   22 2
    11    7    8 1
    12    8    9 1
    13    9   10 2
    14   11   12 1
    15   11   22 1
    16   12   15 2
    17   12   16 1
    18   13   14 2
    19   13   17 1
    20   13   19 1
    21   14   15 1
    22   16   17 2
    23   18   19 2
    24   19   20 2
    25   19   21 am
    26   23   24 2
    27   23   25 1
    28   25   26 1
    29   26   27 1
    30   26   28 1
    31    1   29 1
    32    3   30 1
    33    4   31 1
    34    8   32 1
    35   11   33 1
    36   14   34 1
    37   15   35 1
    38   16   36 1
    39   17   37 1
    40   21   38 1
    41   21   39 1
    42   22   40 1
    43   25   41 1
    44   25   42 1
    45   26   43 1
    46   27   44 1
    47   27   45 1
    48   27   46 1
    49   28   47 1
    50   28   48 1
    51   28   49 1
@<TRIPOS>PROPERTY_DATA
  Total_Score	| 10.1010
  Crash		| -1.1979
  Polar		| 5.1079
  FragIndex	| 1
  FragRMSD	| 0.733

