@<TRIPOS>MOLECULE
BindingDB_7771
 41 44 0 0 0
SMALL
NO_CHARGES


@<TRIPOS>ATOM
1    C        -8.0687   52.2741   15.3807  C     
2    C        -8.5586   50.5221   13.7180  C     
3    C        -9.5064   50.3528   12.7234  C     
4    C        -8.8337   51.7584   14.3177  C     
5    N        -9.8783   52.3005   13.6853  N     
6    C       -10.2682   51.4759   12.7356  C     
7    O       -11.1328   51.7968   11.9363  O     
8    N       -10.5916   49.1523   10.9794  N     
9    C       -10.6652   48.2475    9.9682  C     
10   C       -10.9810   46.4978    7.7198  C     
11   C       -12.0368   47.3314    8.1496  C     
12   C       -11.8793   48.1983    9.2412  C     
13   C        -9.6210   47.3719    9.5698  C     
14   C        -9.7751   46.5126    8.4587  C     
15   C        -6.9790   51.5204   15.8606  C     
16   C        -6.6776   50.2845   15.2510  C     
17   C        -5.6012   48.4152   14.8182  C     
18   C        -7.4588   49.7700   14.2029  C     
19   S        -6.8589   48.2323   13.6778  S     
20   N        -5.6371   49.4998   15.5533  N     
21   C       -11.1033   45.7003    6.4726  C     
22   O       -12.8036   43.9689    7.8799  O     
23   S       -11.6632   44.0092    6.7691  S     
24   O       -12.3006   43.4543    5.4142  O     
25   C        -9.6025   49.3175   11.8674  C     
26   C       -10.2908   42.9476    7.2373  C     
27   H        -8.2851   53.1859   15.7868  H     
28   H       -10.2351   53.1886   13.8411  H     
29   H       -11.3577   49.7365   11.0717  H     
30   H       -12.9248   47.3354    7.6418  H     
31   H       -12.6604   48.8041    9.5093  H     
32   H        -8.7193   47.3608   10.0486  H     
33   H        -8.9889   45.9206    8.1751  H     
34   H        -6.4050   51.8750   16.6311  H     
35   H        -4.8892   47.7374   14.9236  H     
36   H       -11.8182   46.1774    5.7962  H     
37   H       -10.1448   45.6669    5.9457  H     
38   H        -8.9349   48.5908   11.9448  H     
39   H        -9.5319   42.9568    6.4527  H     
40   H       -10.6454   41.9265    7.3826  H     
41   H        -9.8545   43.3041    8.1699  H     
@<TRIPOS>BOND
     1    1    4 2
     2    1   15 1
     3    2    3 1
     4    2    4 1
     5    2   18 2
     6    3    6 1
     7    3   25 2
     8    4    5 1
     9    5    6 1
    10    6    7 2
    11    8    9 1
    12    8   25 1
    13    9   12 2
    14    9   13 1
    15   10   11 2
    16   10   14 1
    17   10   21 1
    18   11   12 1
    19   13   14 2
    20   15   16 2
    21   16   18 1
    22   16   20 1
    23   17   19 1
    24   17   20 2
    25   18   19 1
    26   21   23 1
    27   22   23 2
    28   23   24 2
    29   23   26 1
    30    1   27 1
    31    5   28 1
    32    8   29 1
    33   11   30 1
    34   12   31 1
    35   13   32 1
    36   14   33 1
    37   15   34 1
    38   17   35 1
    39   21   36 1
    40   21   37 1
    41   25   38 1
    42   26   39 1
    43   26   40 1
    44   26   41 1
@<TRIPOS>PROPERTY_DATA
  Total_Score	| 6.7926
  Crash		| -0.6026
  Polar		| 3.2187
  FragIndex	| 1
  FragRMSD	| 0.438

