@<TRIPOS>MOLECULE
BindingDB_7717
 41 43 0 0 0
SMALL
NO_CHARGES


@<TRIPOS>ATOM
1    C        -8.1220   49.5454   14.7545  C     
2    C        -7.3614   49.9670   15.8743  C     
3    C        -7.4077   51.3351   16.2513  C     
4    C        -8.2200   52.2559   15.5588  C     
5    C        -8.9406   50.4690   14.0709  C     
6    C        -9.7686   50.3542   12.9705  C     
7    C        -8.9967   51.7972   14.4813  C     
8    N        -9.8464   52.4275   13.6662  N     
9    C       -10.3041   51.5782   12.7698  C     
10   O       -11.0961   51.9029   11.9017  O     
11   N       -10.6406   49.1531   11.1268  N     
12   C       -10.5339   48.2285   10.1414  C     
13   C       -10.4413   46.4113    7.9429  C     
14   C       -11.5353   47.2880    8.1172  C     
15   C       -11.5667   48.1989    9.1883  C     
16   C        -9.4575   47.3136   10.0019  C     
17   C        -9.4092   46.4251    8.9036  C     
18   O        -9.0083   45.6792    5.7444  O     
19   S       -10.3369   45.3545    6.5557  S     
20   O       -10.2874   43.8517    7.0740  O     
21   N       -11.6242   45.5123    5.4961  N     
22   C        -9.8892   49.2436   12.2191  C     
23   C        -6.6128   49.0215   16.6154  C     
24   O        -6.1690   49.3433   17.8556  O     
25   O        -6.3883   47.7684   16.1273  O     
26   C        -5.6882   46.7058   16.7741  C     
27   H        -8.1125   48.5734   14.4544  H     
28   H        -6.8495   51.6775   17.0372  H     
29   H        -8.2405   53.2414   15.8306  H     
30   H       -10.0977   53.3627   13.7289  H     
31   H       -11.3479   49.8123   11.0053  H     
32   H       -12.3172   47.2846    7.4631  H     
33   H       -12.3611   48.8423    9.2801  H     
34   H        -8.6747   47.3130   10.6664  H     
35   H        -8.6026   45.7994    8.7976  H     
36   H       -11.7746   44.8204    4.8314  H     
37   H       -11.9966   46.3960    5.3570  H     
38   H        -9.3833   48.4345   12.4908  H     
39   H        -4.6227   46.9410   16.8465  H     
40   H        -5.8128   45.7928   16.1921  H     
41   H        -6.0938   46.5343   17.7735  H     
@<TRIPOS>BOND
     1    1    2 1
     2    1    5 2
     3    2    3 2
     4    2   23 1
     5    3    4 1
     6    4    7 2
     7    5    6 1
     8    5    7 1
     9    6    9 1
    10    6   22 2
    11    7    8 1
    12    8    9 1
    13    9   10 2
    14   11   12 1
    15   11   22 1
    16   12   15 2
    17   12   16 1
    18   13   14 2
    19   13   17 1
    20   13   19 1
    21   14   15 1
    22   16   17 2
    23   18   19 2
    24   19   20 2
    25   19   21 am
    26   23   24 2
    27   23   25 1
    28   25   26 1
    29    1   27 1
    30    3   28 1
    31    4   29 1
    32    8   30 1
    33   11   31 1
    34   14   32 1
    35   15   33 1
    36   16   34 1
    37   17   35 1
    38   21   36 1
    39   21   37 1
    40   22   38 1
    41   26   39 1
    42   26   40 1
    43   26   41 1
@<TRIPOS>PROPERTY_DATA
  Total_Score	| 8.7949
  Crash		| -1.5930
  Polar		| 5.0599
  FragIndex	| 1
  FragRMSD	| 0.672

