@<TRIPOS>MOLECULE
BindingDB_7716
 37 39 0 0 0
SMALL
NO_CHARGES


@<TRIPOS>ATOM
1    C        -8.0555   49.5805   14.7093  C     
2    C        -7.3943   50.0234   15.8843  C     
3    C        -7.5199   51.3856   16.2683  C     
4    C        -8.3059   52.2828   15.5191  C     
5    C        -8.8558   50.4793   13.9721  C     
6    C        -9.6383   50.3386   12.8475  C     
7    C        -8.9855   51.8007   14.3915  C     
8    N        -9.8262   52.4123   13.5532  N     
9    C       -10.2261   51.5456   12.6475  C     
10   O       -11.0001   51.8556   11.7553  O     
11   N       -10.5660   49.0799   11.0744  N     
12   C       -10.5028   48.1681   10.0672  C     
13   C       -10.5166   46.3777    7.8525  C     
14   C        -9.3994   46.4463    8.7063  C     
15   C        -9.3952   47.3225    9.8060  C     
16   C       -11.6223   48.0852    9.2114  C     
17   C       -11.6379   47.1867    8.1286  C     
18   O        -9.1083   45.6335    5.6536  O     
19   S       -10.4620   45.3587    6.4399  S     
20   O       -10.4524   43.8449    6.9251  O     
21   N       -11.7603   45.5895    5.3991  N     
22   C        -9.7216   49.2250   12.0975  C     
23   C        -6.6673   49.1119   16.6883  C     
24   O        -6.2918   49.4386   17.9454  O     
25   O        -6.3999   47.8456   16.2894  O     
26   H        -7.9885   48.6057   14.4109  H     
27   H        -7.0442   51.7413   17.1023  H     
28   H        -8.3842   53.2627   15.7920  H     
29   H       -10.1019   53.3443   13.6041  H     
30   H       -11.3363   49.6689   11.0632  H     
31   H        -8.5734   45.8721    8.5248  H     
32   H        -8.5546   47.3624   10.3841  H     
33   H       -12.4416   48.6775    9.3740  H     
34   H       -12.4697   47.1420    7.5384  H     
35   H       -12.0322   44.8733    4.8053  H     
36   H       -12.1082   46.4853    5.2673  H     
37   H        -9.1609   48.4476   12.3569  H     
@<TRIPOS>BOND
     1    1    2 1
     2    1    5 2
     3    2    3 2
     4    2   23 1
     5    3    4 1
     6    4    7 2
     7    5    6 1
     8    5    7 1
     9    6    9 1
    10    6   22 2
    11    7    8 1
    12    8    9 1
    13    9   10 2
    14   11   12 1
    15   11   22 1
    16   12   15 2
    17   12   16 1
    18   13   14 2
    19   13   17 1
    20   13   19 1
    21   14   15 1
    22   16   17 2
    23   18   19 2
    24   19   20 2
    25   19   21 am
    26   23   24 2
    27   23   25 1
    28    1   26 1
    29    3   27 1
    30    4   28 1
    31    8   29 1
    32   11   30 1
    33   14   31 1
    34   15   32 1
    35   16   33 1
    36   17   34 1
    37   21   35 1
    38   21   36 1
    39   22   37 1
@<TRIPOS>PROPERTY_DATA
  Total_Score	| 8.8397
  Crash		| -1.3804
  Polar		| 5.4391
  FragIndex	| 1
  FragRMSD	| 0.661

