@<TRIPOS>MOLECULE
BindingDB_50170699
 51 53 0 0 0
SMALL
NO_CHARGES


@<TRIPOS>ATOM
1    C        40.4300   37.5037   84.1050  C     
2    N        41.4549   36.6894   86.2170  N     
3    N        39.8058   37.4106   82.9086  N     
4    C        40.6039   36.4122   85.0706  C     
5    C        42.7306   37.1354   86.1321  C     
6    N        45.7468   35.2897   87.8952  N     
7    C        45.5311   36.2611   86.9936  C     
8    N        38.1698   40.2381   83.0419  N     
9    C        38.8722   39.4708   82.5415  C     
10   C        39.7129   38.5236   82.0014  C     
11   O        40.8589   38.5996   84.4513  O     
12   C        43.4745   37.7049   87.2684  C     
13   C        45.0246   37.5953   87.2686  C     
14   O        43.2506   37.2477   85.0229  O     
15   O        45.8519   36.0562   85.8268  O     
16   C        39.1718   36.2232   82.3925  C     
17   C        40.8050   36.4149   87.4691  C     
18   C        39.2367   35.9979   85.6882  C     
19   C        46.3481   34.0268   87.5558  C     
20   C        45.4662   35.3961   89.3044  C     
21   C        39.5397   35.6099   87.1385  C     
22   C        38.4794   36.6393   81.0781  C     
23   C        39.2153   37.9180   80.6634  C     
24   C        45.8050   34.0098   89.9032  C     
25   C        46.8122   33.4321   88.9004  C     
26   H        41.0375   35.5573   84.5401  H     
27   H        40.7000   38.9799   81.8412  H     
28   H        43.2126   38.7778   87.2845  H     
29   H        43.1487   37.2814   88.2186  H     
30   H        45.4035   37.9195   88.2408  H     
31   H        45.4157   38.3143   86.5491  H     
32   H        39.9189   35.4506   82.1933  H     
33   H        38.4240   35.8235   83.0805  H     
34   H        41.4165   35.7990   88.1349  H     
35   H        40.5462   37.3515   87.9734  H     
36   H        38.5229   36.8316   85.6996  H     
37   H        38.7870   35.1531   85.1601  H     
38   H        45.6040   33.3816   87.0741  H     
39   H        47.2101   34.1365   86.8854  H     
40   H        46.1250   36.1549   89.7586  H     
41   H        44.4211   35.6634   89.4972  H     
42   H        39.7517   34.5330   87.2013  H     
43   H        38.7132   35.8464   87.8211  H     
44   H        38.5483   35.8656   80.3132  H     
45   H        37.4291   36.8698   81.2592  H     
46   H        38.5734   38.5932   80.0890  H     
47   H        40.0743   37.6524   80.0366  H     
48   H        46.2335   34.0733   90.9055  H     
49   H        44.9184   33.3773   89.9263  H     
50   H        46.8165   32.3376   88.8765  H     
51   H        47.8215   33.7892   89.1399  H     
@<TRIPOS>BOND
     1    1    3 am
     2    4    1 1
     3    1   11 2
     4    2    4 1
     5    2    5 am
     6    2   17 1
     7    3   10 1
     8    3   16 1
     9    4   18 1
    10    5   12 1
    11    5   14 2
    12    6    7 am
    13    6   19 1
    14    6   20 1
    15    7   13 1
    16    7   15 2
    17    8    9 3
    18   10    9 1
    19   10   23 1
    20   12   13 1
    21   16   22 1
    22   17   21 1
    23   18   21 1
    24   19   25 1
    25   20   24 1
    26   22   23 1
    27   24   25 1
    28    4   26 1
    29   10   27 1
    30   12   28 1
    31   12   29 1
    32   13   30 1
    33   13   31 1
    34   16   32 1
    35   16   33 1
    36   17   34 1
    37   17   35 1
    38   18   36 1
    39   18   37 1
    40   19   38 1
    41   19   39 1
    42   20   40 1
    43   20   41 1
    44   21   42 1
    45   21   43 1
    46   22   44 1
    47   22   45 1
    48   23   46 1
    49   23   47 1
    50   24   48 1
    51   24   49 1
    52   25   50 1
    53   25   51 1
@<TRIPOS>PROPERTY_DATA
  Total_Score	| 7.2689
  Crash		| -2.4871
  Polar		| 2.1972
  FragIndex	| 1
  FragRMSD	| 0.460

