@<TRIPOS>MOLECULE
BindingDB_50170708
 41 43 0 0 0
SMALL
NO_CHARGES


@<TRIPOS>ATOM
1    N        41.7488   36.7927   86.0313  N     
2    C        40.4525   37.5493   84.0878  C     
3    N        39.8201   37.4036   82.9091  N     
4    C        43.0491   36.9873   85.7499  C     
5    C        40.7492   36.4586   85.0277  C     
6    N        37.8962   40.0719   83.0594  N     
7    C        38.6520   39.3686   82.5576  C     
8    C        39.5675   38.4987   82.0015  C     
9    O        40.8028   38.6786   84.4320  O     
10   O        43.4428   36.9003   84.5927  O     
11   C        44.0462   37.2327   86.6826  C     
12   C        41.2100   36.7962   87.3660  C     
13   C        39.3278   36.1509   82.3924  C     
14   C        39.5097   36.0031   85.8418  C     
15   C        39.6867   36.6612   87.2135  C     
16   C        38.5054   36.4958   81.1386  C     
17   C        39.0827   37.8432   80.6864  C     
18   C        44.0944   38.4401   87.4104  C     
19   C        45.0880   36.2870   86.8655  C     
20   C        46.1077   36.5194   87.8004  C     
21   C        45.1320   38.6786   88.3341  C     
22   C        46.1257   37.7116   88.5440  C     
23   H        41.1154   35.6078   84.4509  H     
24   H        40.4895   39.0545   81.7985  H     
25   H        41.6165   35.9551   87.9351  H     
26   H        41.4375   37.7274   87.8894  H     
27   H        40.1606   35.5012   82.1238  H     
28   H        38.6888   35.6321   83.1082  H     
29   H        38.5547   36.2965   85.3975  H     
30   H        39.5155   34.9162   85.9564  H     
31   H        39.2483   36.0609   88.0133  H     
32   H        39.2205   37.6505   87.2109  H     
33   H        38.5945   35.7277   80.3643  H     
34   H        37.4504   36.6178   81.4020  H     
35   H        38.3449   38.4332   80.1368  H     
36   H        39.9356   37.6644   80.0239  H     
37   H        43.3826   39.1654   87.2673  H     
38   H        45.0978   35.4152   86.3287  H     
39   H        46.8430   35.8181   87.9439  H     
40   H        45.1616   39.5587   88.8544  H     
41   H        46.8651   37.8759   89.2321  H     
@<TRIPOS>BOND
     1    1    4 1
     2    1    5 1
     3    1   12 1
     4    2    3 am
     5    5    2 1
     6    2    9 2
     7    3    8 1
     8    3   13 1
     9    4   10 2
    10    4   11 1
    11    5   14 1
    12    6    7 3
    13    8    7 1
    14    8   17 1
    15   11   18 2
    16   11   19 1
    17   12   15 1
    18   13   16 1
    19   14   15 1
    20   16   17 1
    21   18   21 1
    22   19   20 2
    23   20   22 1
    24   21   22 2
    25    5   23 1
    26    8   24 1
    27   12   25 1
    28   12   26 1
    29   13   27 1
    30   13   28 1
    31   14   29 1
    32   14   30 1
    33   15   31 1
    34   15   32 1
    35   16   33 1
    36   16   34 1
    37   17   35 1
    38   17   36 1
    39   18   37 1
    40   19   38 1
    41   20   39 1
    42   21   40 1
    43   22   41 1
@<TRIPOS>PROPERTY_DATA
  Total_Score	| 5.5778
  Crash		| -2.3569
  Polar		| 2.0737
  FragIndex	| 1
  FragRMSD	| 0.715

