@<TRIPOS>MOLECULE
BindingDB_50170710
 55 58 0 0 0
SMALL
NO_CHARGES


@<TRIPOS>ATOM
1    N        41.1330   36.6503   86.0689  N     
2    C        40.1952   37.5628   83.9800  C     
3    N        39.7085   37.4879   82.7216  N     
4    C        42.4689   36.7688   85.9074  C     
5    C        40.2193   36.4615   84.9536  C     
6    C        45.9985   37.8324   90.1767  C     
7    N        46.7535   37.1167   91.0339  N     
8    N        38.1158   40.3097   82.9085  N     
9    C        38.8034   39.5625   82.3638  C     
10   C        43.4392   36.9138   86.9071  C     
11   C        39.6500   38.6201   81.8248  C     
12   C        45.2928   37.3991   89.0508  C     
13   O        40.5429   38.6608   84.4113  O     
14   O        42.9123   36.7887   84.7656  O     
15   O        45.9142   39.0439   90.3911  O     
16   C        44.4091   37.9371   86.8140  C     
17   C        43.5014   36.0483   88.0266  C     
18   C        45.3124   38.1792   87.8642  C     
19   C        44.4031   36.2992   89.0899  C     
20   C        40.4254   36.7561   87.3182  C     
21   C        39.1603   36.3001   82.1265  C     
22   C        38.8260   36.2307   85.6019  C     
23   C        47.5064   37.7467   92.0896  C     
24   C        47.0382   35.7081   90.9497  C     
25   C        39.1425   35.9475   87.0738  C     
26   C        38.4772   36.7387   80.8157  C     
27   C        39.2017   38.0408   80.4575  C     
28   C        47.9744   35.3943   92.1392  C     
29   C        48.6044   36.7467   92.4892  C     
30   H        40.5255   35.5471   84.4387  H     
31   H        40.6412   39.0759   81.7049  H     
32   H        44.4414   38.5515   85.9935  H     
33   H        42.8404   35.2591   88.0914  H     
34   H        45.9491   38.9785   87.7803  H     
35   H        44.3402   35.7179   89.9229  H     
36   H        40.9470   36.3528   88.1977  H     
37   H        40.1729   37.8033   87.5099  H     
38   H        39.9504   35.5778   81.9151  H     
39   H        38.4071   35.8345   82.7632  H     
40   H        38.1815   37.1162   85.5253  H     
41   H        38.3122   35.3837   85.1398  H     
42   H        47.9841   38.6741   91.7432  H     
43   H        46.8434   37.9744   92.9376  H     
44   H        46.1330   35.0929   91.0495  H     
45   H        47.5458   35.4750   90.0102  H     
46   H        39.3376   34.8796   87.1981  H     
47   H        38.3141   36.2403   87.7196  H     
48   H        38.5723   35.9836   80.0273  H     
49   H        37.4148   36.9472   80.9827  H     
50   H        38.5656   38.7120   79.8690  H     
51   H        40.0776   37.7906   79.8498  H     
52   H        47.3940   35.0446   93.0003  H     
53   H        48.7483   34.6583   91.8940  H     
54   H        49.5073   36.9204   91.8837  H     
55   H        48.8556   36.8327   93.5549  H     
@<TRIPOS>BOND
     1    1    4 1
     2    1    5 1
     3    1   20 1
     4    2    3 am
     5    5    2 1
     6    2   13 2
     7    3   11 1
     8    3   21 1
     9    4   10 1
    10    4   14 2
    11    5   22 1
    12    6    7 1
    13    6   12 1
    14    6   15 2
    15    7   23 1
    16    7   24 1
    17    8    9 3
    18   11    9 1
    19   10   16 1
    20   10   17 2
    21   11   27 1
    22   12   18 1
    23   12   19 2
    24   16   18 2
    25   17   19 1
    26   20   25 1
    27   21   26 1
    28   22   25 1
    29   23   29 1
    30   24   28 1
    31   26   27 1
    32   28   29 1
    33    5   30 1
    34   11   31 1
    35   16   32 1
    36   17   33 1
    37   18   34 1
    38   19   35 1
    39   20   36 1
    40   20   37 1
    41   21   38 1
    42   21   39 1
    43   22   40 1
    44   22   41 1
    45   23   42 1
    46   23   43 1
    47   24   44 1
    48   24   45 1
    49   25   46 1
    50   25   47 1
    51   26   48 1
    52   26   49 1
    53   27   50 1
    54   27   51 1
    55   28   52 1
    56   28   53 1
    57   29   54 1
    58   29   55 1
@<TRIPOS>PROPERTY_DATA
  Total_Score	| 5.2679
  Crash		| -3.2031
  Polar		| 2.1780
  FragIndex	| 1
  FragRMSD	| 0.967

