@<TRIPOS>MOLECULE
BindingDB_50170705
 57 59 0 0 0
SMALL
NO_CHARGES


@<TRIPOS>ATOM
1    C        40.4255   37.5568   83.9994  C     
2    N        41.5178   36.9308   86.1449  N     
3    N        39.7808   37.3787   82.8273  N     
4    C        40.6911   36.5185   85.0126  C     
5    C        42.7549   37.4534   86.0255  C     
6    N        45.7898   35.9394   88.0992  N     
7    C        45.5878   36.7285   87.0123  C     
8    N        37.9234   40.0904   82.8797  N     
9    C        38.6757   39.3544   82.4109  C     
10   C        39.5745   38.4551   81.8900  C     
11   O        40.7889   38.6909   84.2880  O     
12   C        43.5052   38.1477   87.0838  C     
13   C        45.0580   38.0952   86.9680  C     
14   O        43.2317   37.5560   84.8946  O     
15   O        45.7926   36.2659   85.8944  O     
16   C        39.2212   36.1367   82.3632  C     
17   C        40.8607   36.7243   87.4049  C     
18   C        39.3715   35.9994   85.6452  C     
19   C        46.2100   34.5513   87.8749  C     
20   C        45.6624   36.4326   89.4663  C     
21   C        39.6751   35.7931   87.1289  C     
22   C        38.4751   36.4596   81.0529  C     
23   C        39.0924   37.7836   80.5828  C     
24   C        46.5019   33.5998   89.0635  C     
25   C        44.5379   35.7603   90.3051  C     
26   C        45.2442   33.2959   89.9201  C     
27   C        44.9198   34.4035   90.9436  C     
28   H        41.2060   35.6898   84.5194  H     
29   H        40.5135   38.9785   81.6868  H     
30   H        43.1997   39.1998   87.0453  H     
31   H        43.2498   37.7961   88.0788  H     
32   H        45.5202   38.7234   87.7293  H     
33   H        45.3268   38.5893   86.0249  H     
34   H        40.0056   35.3996   82.1830  H     
35   H        38.5013   35.7243   83.0703  H     
36   H        41.5058   36.2267   88.1366  H     
37   H        40.5197   37.6850   87.8108  H     
38   H        38.5562   36.7262   85.5485  H     
39   H        39.0511   35.0526   85.1997  H     
40   H        45.4395   34.0621   87.2662  H     
41   H        47.1214   34.5659   87.2722  H     
42   H        46.6248   36.3166   89.9748  H     
43   H        45.4594   37.4992   89.5114  H     
44   H        39.9644   34.7506   87.3128  H     
45   H        38.8099   36.0328   87.7609  H     
46   H        38.5906   35.6674   80.3078  H     
47   H        37.4098   36.6088   81.2516  H     
48   H        38.3760   38.3857   80.0147  H     
49   H        39.9481   37.5728   79.9343  H     
50   H        46.8738   32.6543   88.6561  H     
51   H        47.3021   34.0113   89.6814  H     
52   H        44.2752   36.4357   91.1240  H     
53   H        43.6465   35.6374   89.6884  H     
54   H        44.3768   33.1359   89.2723  H     
55   H        45.4096   32.3657   90.4627  H     
56   H        45.7741   34.5377   91.6146  H     
57   H        44.0788   34.0627   91.5532  H     
@<TRIPOS>BOND
     1    1    3 am
     2    4    1 1
     3    1   11 2
     4    2    4 1
     5    2    5 am
     6    2   17 1
     7    3   10 1
     8    3   16 1
     9    4   18 1
    10    5   12 1
    11    5   14 2
    12    6    7 am
    13    6   19 1
    14    6   20 1
    15    7   13 1
    16    7   15 2
    17    8    9 3
    18   10    9 1
    19   10   23 1
    20   12   13 1
    21   16   22 1
    22   17   21 1
    23   18   21 1
    24   19   24 1
    25   20   25 1
    26   22   23 1
    27   24   26 1
    28   25   27 1
    29   26   27 1
    30    4   28 1
    31   10   29 1
    32   12   30 1
    33   12   31 1
    34   13   32 1
    35   13   33 1
    36   16   34 1
    37   16   35 1
    38   17   36 1
    39   17   37 1
    40   18   38 1
    41   18   39 1
    42   19   40 1
    43   19   41 1
    44   20   42 1
    45   20   43 1
    46   21   44 1
    47   21   45 1
    48   22   46 1
    49   22   47 1
    50   23   48 1
    51   23   49 1
    52   24   50 1
    53   24   51 1
    54   25   52 1
    55   25   53 1
    56   26   54 1
    57   26   55 1
    58   27   56 1
    59   27   57 1
@<TRIPOS>PROPERTY_DATA
  Total_Score	| 6.8027
  Crash		| -3.2532
  Polar		| 2.3679
  FragIndex	| 1
  FragRMSD	| 0.448

