@<TRIPOS>MOLECULE
BindingDB_50051539
 49 51 0 0 0
SMALL
NO_CHARGES


@<TRIPOS>ATOM
1    C        46.6374   34.4323   89.7062  C     
2    C        46.8406   33.5226   88.6505  C     
3    C        46.7685   33.9743   87.3195  C     
4    C        46.5086   35.3280   87.0489  C     
5    C        46.2647   36.2525   88.0973  C     
6    C        46.3466   35.7797   89.4312  C     
7    C        45.9386   37.6777   87.7993  C     
8    C        44.8551   37.8917   86.7014  C     
9    C        43.4416   37.3189   87.0314  C     
10   C        42.4955   37.2092   85.9108  C     
11   N        41.2157   36.8121   86.0337  N     
12   O        42.9393   37.4029   84.7807  O     
13   C        40.3308   36.5323   84.9089  C     
14   C        38.9721   36.1685   85.5610  C     
15   C        39.3354   35.7019   86.9722  C     
16   C        40.5994   36.5119   87.3012  C     
17   C        40.1693   37.5898   83.8968  C     
18   O        40.5151   38.7180   84.2335  O     
19   N        39.6545   37.4012   82.6685  N     
20   C        39.0924   36.1722   82.1831  C     
21   C        38.4042   36.5198   80.8502  C     
22   C        39.1337   37.7820   80.3724  C     
23   C        39.6178   38.4426   81.6765  C     
24   H        46.6995   34.1041   90.6737  H     
25   H        47.0484   32.5389   88.8482  H     
26   H        46.9173   33.3162   86.5513  H     
27   H        46.4905   35.6385   86.0739  H     
28   H        46.1911   36.4201   90.2160  H     
29   H        45.6161   38.2015   88.7047  H     
30   H        46.8589   38.1665   87.4679  H     
31   H        44.7574   38.9707   86.5309  H     
32   H        45.2276   37.4454   85.7745  H     
33   H        43.5550   36.3125   87.4512  H     
34   H        43.0003   37.9620   87.8012  H     
35   H        40.7438   35.6439   84.4206  H     
36   H        38.3129   37.0426   85.6322  H     
37   H        38.4526   35.3710   85.0225  H     
38   H        38.5272   35.8873   87.6861  H     
39   H        39.5670   34.6301   86.9584  H     
40   H        41.2386   35.9080   87.9544  H     
41   H        40.3358   37.4424   87.8140  H     
42   H        39.8844   35.4367   82.0222  H     
43   H        38.3455   35.7591   82.8639  H     
44   H        38.4787   35.7027   80.1273  H     
45   H        37.3457   36.7533   81.0183  H     
46   H        39.9876   37.4949   79.7528  H     
47   H        38.4790   38.4386   79.7950  H     
48   H        38.9283   39.2294   81.9961  H     
49   H        40.6107   38.8769   81.5248  H     
@<TRIPOS>BOND
     1    1    2 2
     2    1    6 1
     3    2    3 1
     4    3    4 2
     5    4    5 1
     6    5    6 2
     7    5    7 1
     8    7    8 1
     9    8    9 1
    10    9   10 1
    11   10   11 am
    12   10   12 2
    13   11   13 1
    14   11   16 1
    15   13   14 1
    16   13   17 1
    17   14   15 1
    18   15   16 1
    19   17   18 2
    20   17   19 am
    21   19   20 1
    22   19   23 1
    23   20   21 1
    24   21   22 1
    25   22   23 1
    26    1   24 1
    27    2   25 1
    28    3   26 1
    29    4   27 1
    30    6   28 1
    31    7   29 1
    32    7   30 1
    33    8   31 1
    34    8   32 1
    35    9   33 1
    36    9   34 1
    37   13   35 1
    38   14   36 1
    39   14   37 1
    40   15   38 1
    41   15   39 1
    42   16   40 1
    43   16   41 1
    44   20   42 1
    45   20   43 1
    46   21   44 1
    47   21   45 1
    48   22   46 1
    49   22   47 1
    50   23   48 1
    51   23   49 1
@<TRIPOS>PROPERTY_DATA
  Total_Score	| 11.0667
  Crash		| -1.0030
  Polar		| 2.3622
  FragIndex	| 1
  FragRMSD	| 0.221

