@<TRIPOS>MOLECULE
BindingDB_50134150
 75 78 0 0 0
SMALL
NO_CHARGES


@<TRIPOS>ATOM
1    C        37.5304   39.0538   83.0556  C     
2    N        39.3076   37.4011   83.2703  N     
3    N        41.3210   37.2872   89.1546  N     
4    N        37.3391   39.9562   84.0432  N     
5    C        40.0399   37.5132   84.4129  C     
6    C        40.5428   37.7460   88.1468  C     
7    C        38.8371   38.5443   82.5233  C     
8    C        42.6615   37.7595   89.4309  C     
9    C        43.6824   36.9430   88.7534  C     
10   N        35.3959   42.4403   82.9895  N     
11   C        35.7110   41.5547   83.6455  C     
12   C        40.2605   36.4000   85.3574  C     
13   C        39.2441   37.2223   87.7313  C     
14   C        36.0716   40.4956   84.4468  C     
15   C        39.2130   36.1828   86.5363  C     
16   O        36.5229   38.6118   82.5144  O     
17   O        40.8208   38.8694   87.7051  O     
18   O        40.5202   38.6082   84.6971  O     
19   O        44.1779   35.9900   89.3551  O     
20   C        44.1081   37.1752   87.3579  C     
21   C        40.8038   36.4736   90.2262  C     
22   C        39.0351   36.1592   82.6110  C     
23   C        38.3746   40.4132   84.9160  C     
24   C        38.8537   37.9747   81.0812  C     
25   C        42.7092   37.7348   90.9844  C     
26   C        41.8462   36.5218   91.3565  C     
27   C        38.4317   36.5122   81.2551  C     
28   C        37.7456   41.3892   85.9316  C     
29   C        37.7467   36.1334   85.9765  C     
30   C        39.4974   34.7706   87.1365  C     
31   C        36.2881   40.9418   85.9049  C     
32   C        44.9806   38.4391   87.1899  C     
33   C        45.0229   36.0974   86.7110  C     
34   C        46.4509   36.4598   87.1643  C     
35   C        46.4273   37.9777   87.4520  C     
36   H        39.5461   39.3773   82.5218  H     
37   H        42.8016   38.8063   89.1441  H     
38   H        40.3553   35.4802   84.7973  H     
39   H        41.2554   36.5347   85.7685  H     
40   H        38.7310   36.7807   88.5932  H     
41   H        38.5990   38.0595   87.4836  H     
42   H        35.2716   39.7664   84.4234  H     
43   H        43.2205   37.2526   86.7410  H     
44   H        39.8646   36.8836   90.6085  H     
45   H        40.6475   35.4421   89.9115  H     
46   H        39.9680   35.6159   82.4509  H     
47   H        38.3592   35.5309   83.1936  H     
48   H        38.7914   39.5195   85.4927  H     
49   H        39.1532   40.9309   84.3773  H     
50   H        38.2078   38.4927   80.3723  H     
51   H        39.8752   38.0094   80.6784  H     
52   H        43.7246   37.6442   91.3877  H     
53   H        42.2543   38.6395   91.3964  H     
54   H        41.3853   36.6478   92.3415  H     
55   H        42.4556   35.6118   91.3631  H     
56   H        38.7974   35.8792   80.4465  H     
57   H        37.3466   36.4371   81.2939  H     
58   H        38.1929   41.2851   86.9178  H     
59   H        37.8522   42.4093   85.5879  H     
60   H        37.4827   37.0592   85.4590  H     
61   H        37.0226   35.9884   86.7804  H     
62   H        37.6204   35.3122   85.2693  H     
63   H        39.4355   33.9983   86.3642  H     
64   H        38.7701   34.5035   87.9162  H     
65   H        40.4977   34.7308   87.5766  H     
66   H        35.6263   41.7572   86.2287  H     
67   H        36.1595   40.0983   86.5995  H     
68   H        44.8997   38.8032   86.1592  H     
69   H        44.7031   39.2590   87.8515  H     
70   H        44.7460   35.0756   86.9913  H     
71   H        44.9655   36.1720   85.6202  H     
72   H        46.7065   35.9033   88.0706  H     
73   H        47.1698   36.2037   86.3828  H     
74   H        47.1315   38.5116   86.8155  H     
75   H        46.6878   38.1635   88.4983  H     
@<TRIPOS>BOND
     1    1    4 am
     2    7    1 1
     3    1   16 2
     4    2    5 am
     5    2    7 1
     6    2   22 1
     7    3    6 am
     8    3    8 1
     9    3   21 1
    10    4   14 1
    11    4   23 1
    12    5   12 1
    13    5   18 2
    14    6   13 1
    15    6   17 2
    16    7   24 1
    17    8    9 1
    18    8   25 1
    19    9   19 2
    20    9   20 1
    21   10   11 3
    22   14   11 1
    23   12   15 1
    24   13   15 1
    25   14   31 1
    26   15   29 1
    27   15   30 1
    28   20   32 1
    29   20   33 1
    30   21   26 1
    31   22   27 1
    32   23   28 1
    33   24   27 1
    34   25   26 1
    35   28   31 1
    36   32   35 1
    37   33   34 1
    38   34   35 1
    39    7   36 1
    40    8   37 1
    41   12   38 1
    42   12   39 1
    43   13   40 1
    44   13   41 1
    45   14   42 1
    46   20   43 1
    47   21   44 1
    48   21   45 1
    49   22   46 1
    50   22   47 1
    51   23   48 1
    52   23   49 1
    53   24   50 1
    54   24   51 1
    55   25   52 1
    56   25   53 1
    57   26   54 1
    58   26   55 1
    59   27   56 1
    60   27   57 1
    61   28   58 1
    62   28   59 1
    63   29   60 1
    64   29   61 1
    65   29   62 1
    66   30   63 1
    67   30   64 1
    68   30   65 1
    69   31   66 1
    70   31   67 1
    71   32   68 1
    72   32   69 1
    73   33   70 1
    74   33   71 1
    75   34   72 1
    76   34   73 1
    77   35   74 1
    78   35   75 1
@<TRIPOS>PROPERTY_DATA
  Total_Score	| 5.8091
  Crash		| -5.3278
  Polar		| 2.5098
  FragIndex	| 1
  FragRMSD	| 0.917

