@<TRIPOS>MOLECULE
BindingDB_50037603
 59 62 0 0 0
SMALL
NO_CHARGES


@<TRIPOS>ATOM
1    N        39.6842   37.4534   82.8530  N     
2    C        40.2411   37.5595   84.0765  C     
3    N        41.2631   36.6901   86.1608  N     
4    C        40.3279   36.4823   85.0718  C     
5    C        39.7259   38.5215   81.8796  C     
6    C        39.0291   39.7599   82.2524  C     
7    C        42.5632   36.9970   85.9945  C     
8    C        38.2240   39.9513   83.3786  C     
9    O        40.7106   38.6430   84.4132  O     
10   N        37.6370   41.1916   85.3684  N     
11   N        36.3228   39.3608   84.7378  N     
12   O        39.2412   40.7356   81.5433  O     
13   O        43.0092   37.0351   84.8474  O     
14   C        36.5788   40.3814   85.5891  C     
15   C        39.0961   36.2548   82.3241  C     
16   C        40.6550   36.4849   87.4515  C     
17   C        38.4566   41.0046   84.2964  C     
18   C        37.1115   39.1275   83.6555  C     
19   C        38.9566   36.2410   85.7576  C     
20   C        39.2337   37.8931   80.5449  C     
21   C        43.5011   37.2254   87.0960  C     
22   C        46.3142   36.2869   88.1084  C     
23   C        38.4804   36.6281   80.9656  C     
24   C        39.3245   35.7735   87.1688  C     
25   C        44.8794   37.8487   86.7126  C     
26   C        45.9831   37.7037   87.7968  C     
27   C        46.5476   35.3514   87.0666  C     
28   C        46.3949   35.8199   89.4441  C     
29   C        46.6412   34.4609   89.7244  C     
30   C        46.7685   33.9922   87.3368  C     
31   C        46.8016   33.5391   88.6714  C     
32   H        40.6368   35.5643   84.5611  H     
33   H        40.7838   38.7756   81.7473  H     
34   H        35.9605   40.5416   86.3864  H     
35   H        39.8690   35.4902   82.1809  H     
36   H        38.2995   35.8577   82.9606  H     
37   H        41.2636   35.8471   88.1003  H     
38   H        40.4823   37.4508   87.9439  H     
39   H        39.2541   41.6313   84.1899  H     
40   H        36.8604   38.3594   83.0335  H     
41   H        38.3625   37.1605   85.8302  H     
42   H        38.3637   35.4826   85.2431  H     
43   H        38.6028   38.5618   79.9497  H     
44   H        40.0933   37.6055   79.9305  H     
45   H        43.0440   37.8955   87.8296  H     
46   H        43.6697   36.2644   87.5891  H     
47   H        38.6005   35.8186   80.2347  H     
48   H        37.4108   36.8497   81.0770  H     
49   H        39.4759   34.6887   87.1669  H     
50   H        38.5558   36.0282   87.9069  H     
51   H        45.2533   37.3811   85.8027  H     
52   H        44.7537   38.9089   86.4800  H     
53   H        45.6484   38.2312   88.6929  H     
54   H        46.8898   38.2003   87.4384  H     
55   H        46.5422   35.6589   86.0920  H     
56   H        46.2462   36.4578   90.2278  H     
57   H        46.7014   34.1372   90.6949  H     
58   H        46.9199   33.3335   86.5695  H     
59   H        46.9676   32.5515   88.8688  H     
@<TRIPOS>BOND
     1    1    2 am
     2    1    5 1
     3    1   15 1
     4    4    2 1
     5    2    9 2
     6    3    4 1
     7    3    7 am
     8    3   16 1
     9    4   19 1
    10    5    6 1
    11    5   20 1
    12    6    8 1
    13    6   12 2
    14    7   13 2
    15    7   21 1
    16    8   17 1
    17    8   18 2
    18   10   14 1
    19   10   17 2
    20   11   14 2
    21   11   18 1
    22   15   23 1
    23   16   24 1
    24   19   24 1
    25   20   23 1
    26   21   25 1
    27   22   26 1
    28   22   27 1
    29   22   28 2
    30   25   26 1
    31   27   30 2
    32   28   29 1
    33   29   31 2
    34   30   31 1
    35    4   32 1
    36    5   33 1
    37   14   34 1
    38   15   35 1
    39   15   36 1
    40   16   37 1
    41   16   38 1
    42   17   39 1
    43   18   40 1
    44   19   41 1
    45   19   42 1
    46   20   43 1
    47   20   44 1
    48   21   45 1
    49   21   46 1
    50   23   47 1
    51   23   48 1
    52   24   49 1
    53   24   50 1
    54   25   51 1
    55   25   52 1
    56   26   53 1
    57   26   54 1
    58   27   55 1
    59   28   56 1
    60   29   57 1
    61   30   58 1
    62   31   59 1
@<TRIPOS>PROPERTY_DATA
  Total_Score	| 10.3711
  Crash		| -3.2807
  Polar		| 2.9000
  FragIndex	| 1
  FragRMSD	| 0.153

