@<TRIPOS>MOLECULE
BindingDB_50170712
 66 68 0 0 0
SMALL
NO_CHARGES


@<TRIPOS>ATOM
1    C        40.2894   37.4936   84.1140  C     
2    N        41.3248   36.7014   86.1761  N     
3    N        39.7229   37.3937   82.8992  N     
4    C        42.6375   37.0042   86.1191  C     
5    C        40.5174   36.3680   85.0207  C     
6    C        45.7580   36.1529   89.4136  C     
7    N        44.9299   35.6061   90.3367  N     
8    N        38.0181   40.2077   82.9401  N     
9    C        38.7499   39.4416   82.4881  C     
10   C        43.4633   37.2030   87.3107  C     
11   C        39.6101   38.4920   81.9715  C     
12   C        45.0229   37.4604   87.2830  C     
13   C        45.6084   37.4586   88.7447  C     
14   O        40.6493   38.6100   84.4876  O     
15   O        43.1463   37.1476   85.0165  O     
16   O        46.7757   35.5548   89.0437  O     
17   C        40.5892   36.6127   87.4092  C     
18   C        39.2162   36.1669   82.3398  C     
19   C        39.2154   35.7521   85.6264  C     
20   C        45.2526   34.2748   90.8682  C     
21   C        43.7705   36.3094   90.8936  C     
22   C        39.1181   36.3285   87.0452  C     
23   C        38.4689   36.5462   81.0518  C     
24   C        45.7243   36.3452   86.4018  C     
25   C        45.3185   38.8767   86.6626  C     
26   C        39.1358   37.8685   80.6402  C     
27   C        44.3962   33.1721   90.1865  C     
28   C        42.6332   35.4899   91.5916  C     
29   C        42.9723   33.0321   90.7803  C     
30   C        42.0858   34.3176   90.7606  C     
31   H        41.0163   35.5860   84.4607  H     
32   H        43.0575   38.0682   87.8504  H     
33   H        43.2750   36.3085   87.9191  H     
34   H        40.5889   38.9661   81.8189  H     
35   H        45.0046   38.1398   89.3556  H     
36   H        46.5995   37.9274   88.7355  H     
37   H        40.9780   35.8058   88.0357  H     
38   H        40.6219   37.5603   87.9642  H     
39   H        40.0352   35.4823   82.1157  H     
40   H        38.5136   35.6676   83.0133  H     
41   H        38.3142   35.9939   85.0516  H     
42   H        39.3176   34.6581   85.6939  H     
43   H        46.3054   33.9930   90.7260  H     
44   H        45.1094   34.2371   91.9438  H     
45   H        44.1567   37.0322   91.6045  H     
46   H        43.2798   36.8582   90.1005  H     
47   H        38.6530   35.6021   87.7368  H     
48   H        38.5272   37.2520   87.0283  H     
49   H        38.5673   35.7924   80.2666  H     
50   H        37.4056   36.7320   81.2531  H     
51   H        45.3422   35.3403   86.6727  H     
52   H        46.8185   36.3601   86.5662  H     
53   H        45.5325   36.5188   85.3386  H     
54   H        44.9069   38.9849   85.6545  H     
55   H        46.4131   39.0465   86.6090  H     
56   H        44.8915   39.6612   87.2948  H     
57   H        38.4502   38.5016   80.0475  H     
58   H        40.0114   37.6489   80.0058  H     
59   H        44.3338   33.3649   89.1078  H     
60   H        44.8918   32.2038   90.3323  H     
61   H        42.9679   35.1415   92.5678  H     
62   H        41.8121   36.1876   91.7792  H     
63   H        42.4540   32.2406   90.2445  H     
64   H        43.0532   32.7100   91.8267  H     
65   H        41.1128   34.0251   91.1671  H     
66   H        41.9258   34.6208   89.7252  H     
@<TRIPOS>BOND
     1    1    3 am
     2    5    1 1
     3    1   14 2
     4    2    4 am
     5    2    5 1
     6    2   17 1
     7    3   11 1
     8    3   18 1
     9    4   10 1
    10    4   15 2
    11    5   19 1
    12    6    7 am
    13    6   13 1
    14    6   16 2
    15    7   20 1
    16    7   21 1
    17    8    9 3
    18   11    9 1
    19   10   12 1
    20   11   26 1
    21   12   13 1
    22   12   24 1
    23   12   25 1
    24   17   22 1
    25   18   23 1
    26   19   22 1
    27   20   27 1
    28   21   28 1
    29   23   26 1
    30   27   29 1
    31   28   30 1
    32   29   30 1
    33    5   31 1
    34   10   32 1
    35   10   33 1
    36   11   34 1
    37   13   35 1
    38   13   36 1
    39   17   37 1
    40   17   38 1
    41   18   39 1
    42   18   40 1
    43   19   41 1
    44   19   42 1
    45   20   43 1
    46   20   44 1
    47   21   45 1
    48   21   46 1
    49   22   47 1
    50   22   48 1
    51   23   49 1
    52   23   50 1
    53   24   51 1
    54   24   52 1
    55   24   53 1
    56   25   54 1
    57   25   55 1
    58   25   56 1
    59   26   57 1
    60   26   58 1
    61   27   59 1
    62   27   60 1
    63   28   61 1
    64   28   62 1
    65   29   63 1
    66   29   64 1
    67   30   65 1
    68   30   66 1
@<TRIPOS>PROPERTY_DATA
  Total_Score	| 7.6186
  Crash		| -3.1771
  Polar		| 2.2496
  FragIndex	| 1
  FragRMSD	| 0.472

