@<TRIPOS>MOLECULE
BindingDB_50155838
 50 52 0 0 0
SMALL
NO_CHARGES


@<TRIPOS>ATOM
1    C        40.3658   37.5202   84.0101  C     
2    N        39.7737   37.4504   82.8003  N     
3    N        41.3078   36.6625   86.1417  N     
4    C        40.4741   36.4190   84.9760  C     
5    C        42.5999   37.0315   86.0645  C     
6    N        38.2734   40.3707   82.8706  N     
7    C        38.9294   39.5633   82.3857  C     
8    C        39.7201   38.5569   81.8720  C     
9    O        40.8192   38.5953   84.3872  O     
10   O        43.0839   37.2794   84.9657  O     
11   C        40.6099   36.3707   87.3664  C     
12   C        39.1231   36.2765   82.2798  C     
13   C        39.0745   36.0451   85.5333  C     
14   C        43.5461   37.0826   87.1699  C     
15   C        46.3578   36.2731   88.1559  C     
16   C        39.3657   35.5607   86.9573  C     
17   C        44.8325   37.9224   86.8889  C     
18   C        38.3927   36.7216   80.9988  C     
19   C        39.1881   37.9520   80.5485  C     
20   C        46.0129   37.6982   87.8873  C     
21   C        46.4293   35.7780   89.4887  C     
22   C        46.5344   35.3646   87.0913  C     
23   C        46.6792   34.4193   89.7342  C     
24   C        46.7605   33.9980   87.3382  C     
25   C        46.8207   33.5213   88.6597  C     
26   H        40.8925   35.5406   84.4755  H     
27   H        40.7224   38.9619   81.6975  H     
28   H        41.1874   35.7773   88.0749  H     
29   H        40.3116   37.3032   87.8473  H     
30   H        39.8669   35.5128   82.0419  H     
31   H        38.3973   35.8658   82.9861  H     
32   H        38.4061   36.9139   85.5811  H     
33   H        38.5909   35.2602   84.9452  H     
34   H        43.0237   37.4253   88.0554  H     
35   H        43.8712   36.0648   87.4281  H     
36   H        39.5935   34.4912   86.9386  H     
37   H        38.5175   35.7330   87.6272  H     
38   H        45.2021   37.6805   85.8813  H     
39   H        44.6001   38.9929   86.8654  H     
40   H        38.3832   35.9358   80.2380  H     
41   H        37.3603   37.0122   81.2270  H     
42   H        38.5781   38.6375   79.9544  H     
43   H        40.0248   37.6203   79.9302  H     
44   H        45.7614   38.2152   88.8233  H     
45   H        46.9087   38.1863   87.4911  H     
46   H        46.2987   36.4058   90.2881  H     
47   H        46.4833   35.6975   86.1270  H     
48   H        46.7476   34.0763   90.6993  H     
49   H        46.8916   33.3545   86.5644  H     
50   H        46.9751   32.5362   88.8425  H     
@<TRIPOS>BOND
     1    1    2 am
     2    4    1 1
     3    1    9 2
     4    2    8 1
     5    2   12 1
     6    3    4 1
     7    3    5 am
     8    3   11 1
     9    4   13 1
    10    5   10 2
    11    5   14 1
    12    6    7 3
    13    8    7 1
    14    8   19 1
    15   11   16 1
    16   12   18 1
    17   13   16 1
    18   14   17 1
    19   15   20 1
    20   15   21 2
    21   15   22 1
    22   17   20 1
    23   18   19 1
    24   21   23 1
    25   22   24 2
    26   23   25 2
    27   24   25 1
    28    4   26 1
    29    8   27 1
    30   11   28 1
    31   11   29 1
    32   12   30 1
    33   12   31 1
    34   13   32 1
    35   13   33 1
    36   14   34 1
    37   14   35 1
    38   16   36 1
    39   16   37 1
    40   17   38 1
    41   17   39 1
    42   18   40 1
    43   18   41 1
    44   19   42 1
    45   19   43 1
    46   20   44 1
    47   20   45 1
    48   21   46 1
    49   22   47 1
    50   23   48 1
    51   24   49 1
    52   25   50 1
@<TRIPOS>PROPERTY_DATA
  Total_Score	| 8.3435
  Crash		| -2.4634
  Polar		| 2.2173
  FragIndex	| 1
  FragRMSD	| 0.149

