@<TRIPOS>MOLECULE
BindingDB_50170683
 60 62 0 0 0
SMALL
NO_CHARGES


@<TRIPOS>ATOM
1    C        40.4276   37.5474   84.0888  C     
2    N        39.7846   37.4768   82.9096  N     
3    N        41.4891   36.7052   86.1555  N     
4    C        40.6089   36.4309   85.0307  C     
5    C        42.7571   37.1399   86.0268  C     
6    N        46.3402   35.9599   89.1321  N     
7    C        46.3074   37.1617   88.5003  C     
8    N        38.0795   40.2984   83.1016  N     
9    C        38.7827   39.5408   82.5982  C     
10   C        39.6361   38.6179   82.0355  C     
11   O        40.8572   38.6422   84.4528  O     
12   O        43.3158   37.0597   84.9354  O     
13   O        46.5390   38.1858   89.1544  O     
14   C        39.1931   36.2882   82.3576  C     
15   C        40.8568   36.4884   87.4282  C     
16   C        39.2497   36.0514   85.6852  C     
17   C        43.4553   37.8558   87.1076  C     
18   C        46.0553   37.4519   87.0833  C     
19   C        46.5238   35.8638   90.5787  C     
20   C        46.2130   34.6926   88.4231  C     
21   C        44.8735   38.4446   86.8214  C     
22   C        39.5835   35.6889   87.1354  C     
23   C        38.4344   36.7316   81.0926  C     
24   C        39.1234   38.0425   80.6956  C     
25   C        45.3730   35.1736   91.3810  C     
26   C        44.7274   34.2826   88.2450  C     
27   C        44.0091   35.0056   90.6568  C     
28   C        44.0038   33.9036   89.5651  C     
29   H        41.0215   35.5696   84.4937  H     
30   H        40.6025   39.1038   81.8554  H     
31   H        39.9742   35.5695   82.0981  H     
32   H        38.4851   35.8228   83.0481  H     
33   H        41.5014   35.8963   88.0883  H     
34   H        40.6123   37.4515   87.8860  H     
35   H        38.5444   36.8970   85.6909  H     
36   H        38.7827   35.2005   85.1832  H     
37   H        42.8044   38.7014   87.3845  H     
38   H        43.5299   37.1902   87.9773  H     
39   H        46.9637   37.9139   86.6752  H     
40   H        45.8650   36.5490   86.4912  H     
41   H        47.4589   35.3227   90.7714  H     
42   H        46.6770   36.8444   91.0441  H     
43   H        46.6941   34.7350   87.4424  H     
44   H        46.7291   33.8843   88.9615  H     
45   H        44.9366   38.8160   85.7931  H     
46   H        45.0101   39.3249   87.4573  H     
47   H        39.7862   34.6153   87.2157  H     
48   H        38.7725   35.9649   87.8194  H     
49   H        38.4887   35.9789   80.2991  H     
50   H        37.3826   36.9263   81.3293  H     
51   H        38.4504   38.7027   80.1423  H     
52   H        39.9686   37.8143   80.0430  H     
53   H        45.7121   34.1894   91.7153  H     
54   H        45.1930   35.7661   92.2894  H     
55   H        44.1766   35.0933   87.7519  H     
56   H        44.6943   33.4073   87.5843  H     
57   H        43.2769   34.7209   91.4189  H     
58   H        43.6898   35.9658   90.2368  H     
59   H        42.9580   33.6878   89.3180  H     
60   H        44.4465   32.9841   89.9776  H     
@<TRIPOS>BOND
     1    1    2 am
     2    4    1 1
     3    1   11 2
     4    2   10 1
     5    2   14 1
     6    3    4 1
     7    3    5 am
     8    3   15 1
     9    4   16 1
    10    5   12 2
    11    5   17 1
    12    6    7 am
    13    6   19 1
    14    6   20 1
    15    7   13 2
    16    7   18 1
    17    8    9 3
    18   10    9 1
    19   10   24 1
    20   14   23 1
    21   15   22 1
    22   16   22 1
    23   17   21 1
    24   18   21 1
    25   19   25 1
    26   20   26 1
    27   23   24 1
    28   25   27 1
    29   26   28 1
    30   27   28 1
    31    4   29 1
    32   10   30 1
    33   14   31 1
    34   14   32 1
    35   15   33 1
    36   15   34 1
    37   16   35 1
    38   16   36 1
    39   17   37 1
    40   17   38 1
    41   18   39 1
    42   18   40 1
    43   19   41 1
    44   19   42 1
    45   20   43 1
    46   20   44 1
    47   21   45 1
    48   21   46 1
    49   22   47 1
    50   22   48 1
    51   23   49 1
    52   23   50 1
    53   24   51 1
    54   24   52 1
    55   25   53 1
    56   25   54 1
    57   26   55 1
    58   26   56 1
    59   27   57 1
    60   27   58 1
    61   28   59 1
    62   28   60 1
@<TRIPOS>PROPERTY_DATA
  Total_Score	| 7.2816
  Crash		| -2.6850
  Polar		| 2.1345
  FragIndex	| 1
  FragRMSD	| 0.690

