@<TRIPOS>MOLECULE
BindingDB_50170689
 55 57 0 0 0
SMALL
NO_CHARGES


@<TRIPOS>ATOM
1    N        39.3387   37.2379   83.0601  N     
2    C        40.0568   37.4487   84.1778  C     
3    N        41.3464   36.8440   86.1778  N     
4    C        40.5045   36.3866   85.0932  C     
5    C        38.7458   38.2999   82.2783  C     
6    C        42.6079   37.2782   85.9966  C     
7    C        37.8007   39.1009   83.0498  C     
8    O        40.3926   38.6014   84.4449  O     
9    O        43.0430   37.3311   84.8545  O     
10   O        36.6331   38.6955   83.1581  O     
11   C        39.1181   35.9473   82.4697  C     
12   C        40.7048   36.7446   87.4613  C     
13   C        39.3306   35.6581   85.8091  C     
14   C        43.4921   37.6673   87.0978  C     
15   C        38.1152   37.6055   81.0401  C     
16   C        38.1792   40.2405   83.8663  C     
17   C        46.2661   36.2931   88.1333  C     
18   O        37.0758   41.0936   84.1797  O     
19   C        39.2510   36.3254   87.1853  C     
20   C        38.7762   36.2246   80.9991  C     
21   C        44.9695   38.0306   86.7305  C     
22   C        46.0178   37.7431   87.8442  C     
23   C        46.3259   35.8197   89.4712  C     
24   C        46.4879   35.3725   87.0868  C     
25   C        46.7401   34.0059   87.3605  C     
26   C        46.6003   34.4625   89.7441  C     
27   C        46.7995   33.5596   88.6919  C     
28   H        41.0673   35.6497   84.5138  H     
29   H        39.5657   38.9356   81.9180  H     
30   H        40.0037   35.3057   82.5025  H     
31   H        38.2886   35.4421   82.9758  H     
32   H        41.1997   35.9836   88.0756  H     
33   H        40.7120   37.7036   87.9900  H     
34   H        38.3684   35.7283   85.2914  H     
35   H        39.5748   34.5988   85.9422  H     
36   H        43.0522   38.5325   87.6043  H     
37   H        43.4975   36.8369   87.8088  H     
38   H        37.0362   37.4639   81.1414  H     
39   H        38.3092   38.1522   80.1128  H     
40   H        38.5979   39.8776   84.8121  H     
41   H        38.9565   40.8318   83.3566  H     
42   H        36.9806   41.6708   83.3906  H     
43   H        38.8722   35.6389   87.9495  H     
44   H        38.5998   37.2052   87.1338  H     
45   H        39.6930   36.2723   80.4023  H     
46   H        38.1180   35.4558   80.5859  H     
47   H        45.2899   37.4864   85.8407  H     
48   H        45.0128   39.0997   86.4866  H     
49   H        45.7138   38.2803   88.7505  H     
50   H        46.9700   38.1796   87.5242  H     
51   H        46.1906   36.4612   90.2552  H     
52   H        46.4838   35.6821   86.1141  H     
53   H        46.8960   33.3511   86.5933  H     
54   H        46.6607   34.1395   90.7141  H     
55   H        46.9995   32.5731   88.8867  H     
@<TRIPOS>BOND
     1    1    2 am
     2    1    5 1
     3    1   11 1
     4    4    2 1
     5    2    8 2
     6    3    4 1
     7    3    6 am
     8    3   12 1
     9    4   13 1
    10    5    7 1
    11    5   15 1
    12    6    9 2
    13    6   14 1
    14    7   10 2
    15    7   16 1
    16   11   20 1
    17   12   19 1
    18   13   19 1
    19   14   21 1
    20   15   20 1
    21   16   18 1
    22   17   22 1
    23   17   23 2
    24   17   24 1
    25   21   22 1
    26   23   26 1
    27   24   25 2
    28   25   27 1
    29   26   27 2
    30    4   28 1
    31    5   29 1
    32   11   30 1
    33   11   31 1
    34   12   32 1
    35   12   33 1
    36   13   34 1
    37   13   35 1
    38   14   36 1
    39   14   37 1
    40   15   38 1
    41   15   39 1
    42   16   40 1
    43   16   41 1
    44   18   42 1
    45   19   43 1
    46   19   44 1
    47   20   45 1
    48   20   46 1
    49   21   47 1
    50   21   48 1
    51   22   49 1
    52   22   50 1
    53   23   51 1
    54   24   52 1
    55   25   53 1
    56   26   54 1
    57   27   55 1
@<TRIPOS>PROPERTY_DATA
  Total_Score	| 10.5502
  Crash		| -2.4634
  Polar		| 4.3546
  FragIndex	| 1
  FragRMSD	| 0.489

