@<TRIPOS>MOLECULE
BindingDB_50193665
 61 63 0 0 0
SMALL
NO_CHARGES


@<TRIPOS>ATOM
1    C        46.7766   33.5340   88.6991  C     
2    C        46.5665   34.4546   89.7564  C     
3    C        46.3006   35.7994   89.4817  C     
4    C        46.2579   36.2848   88.1398  C     
5    C        46.5241   35.3536   87.1061  C     
6    C        46.7377   34.0075   87.3662  C     
7    C        45.9540   37.7033   87.8370  C     
8    C        44.8506   37.9077   86.7448  C     
9    C        43.5339   37.1135   86.9605  C     
10   C        42.4970   37.2409   85.9235  C     
11   N        41.1751   37.0190   86.0634  N     
12   O        42.9560   37.3296   84.7823  O     
13   C        40.4016   36.6081   84.8887  C     
14   C        39.1135   35.9705   85.4490  C     
15   C        39.4356   35.7265   86.9236  C     
16   C        40.4556   36.8334   87.3219  C     
17   C        39.7716   38.0949   88.0435  C     
18   C        40.8376   39.1219   88.5635  C     
19   C        38.7911   38.8859   87.1192  C     
20   C        38.9696   37.6506   89.3224  C     
21   C        40.1769   37.6351   83.8517  C     
22   O        40.5809   38.7572   84.1012  O     
23   N        39.6392   37.4209   82.6320  N     
24   C        39.6032   38.4440   81.6228  C     
25   C        39.1351   37.7673   80.3229  C     
26   C        38.3884   36.5264   80.8143  C     
27   C        39.0602   36.1975   82.1609  C     
28   H        46.9528   32.5587   88.8946  H     
29   H        46.6045   34.1223   90.7210  H     
30   H        46.1450   36.4442   90.2610  H     
31   H        46.5456   35.6755   86.1271  H     
32   H        46.8964   33.3411   86.6014  H     
33   H        45.6602   38.2579   88.7383  H     
34   H        46.8590   38.1801   87.4639  H     
35   H        44.5937   38.9682   86.7162  H     
36   H        45.2839   37.6660   85.7909  H     
37   H        43.7294   36.0397   87.0748  H     
38   H        43.1426   37.4536   87.9205  H     
39   H        40.9399   35.7905   84.3929  H     
40   H        38.2497   36.6299   85.3283  H     
41   H        38.8774   35.0171   84.9690  H     
42   H        38.5060   35.7047   87.4932  H     
43   H        39.9005   34.7394   87.0318  H     
44   H        41.1265   36.3862   88.0564  H     
45   H        41.4028   38.7003   89.3967  H     
46   H        40.3713   40.0395   88.9385  H     
47   H        41.5247   39.4068   87.7656  H     
48   H        39.2917   39.2010   86.2079  H     
49   H        38.4093   39.7821   87.6159  H     
50   H        37.9263   38.2759   86.8604  H     
51   H        38.0622   37.0960   89.0769  H     
52   H        38.6476   38.5158   89.9125  H     
53   H        39.5846   37.0170   89.9664  H     
54   H        38.9060   39.2265   81.9270  H     
55   H        40.5886   38.8926   81.4660  H     
56   H        38.4965   38.4232   79.7236  H     
57   H        39.9972   37.4644   79.7229  H     
58   H        37.3343   36.7774   80.9705  H     
59   H        38.4571   35.6935   80.1071  H     
60   H        39.8328   35.4350   82.0299  H     
61   H        38.2908   35.8195   82.8354  H     
@<TRIPOS>BOND
     1    1    2 2
     2    1    6 1
     3    2    3 1
     4    3    4 2
     5    4    5 1
     6    4    7 1
     7    5    6 2
     8    7    8 1
     9    8    9 1
    10    9   10 1
    11   10   11 am
    12   10   12 2
    13   11   13 1
    14   11   16 1
    15   13   14 1
    16   13   21 1
    17   14   15 1
    18   15   16 1
    19   16   17 1
    20   17   18 1
    21   17   19 1
    22   17   20 1
    23   21   22 2
    24   21   23 am
    25   23   24 1
    26   23   27 1
    27   24   25 1
    28   25   26 1
    29   26   27 1
    30    1   28 1
    31    2   29 1
    32    3   30 1
    33    5   31 1
    34    6   32 1
    35    7   33 1
    36    7   34 1
    37    8   35 1
    38    8   36 1
    39    9   37 1
    40    9   38 1
    41   13   39 1
    42   14   40 1
    43   14   41 1
    44   15   42 1
    45   15   43 1
    46   16   44 1
    47   18   45 1
    48   18   46 1
    49   18   47 1
    50   19   48 1
    51   19   49 1
    52   19   50 1
    53   20   51 1
    54   20   52 1
    55   20   53 1
    56   24   54 1
    57   24   55 1
    58   25   56 1
    59   25   57 1
    60   26   58 1
    61   26   59 1
    62   27   60 1
    63   27   61 1
@<TRIPOS>PROPERTY_DATA
  Total_Score	| 11.2270
  Crash		| -1.2539
  Polar		| 2.3663
  FragIndex	| 1
  FragRMSD	| 0.275

