@<TRIPOS>MOLECULE
BindingDB_50316822
 75 78 0 0 0
SMALL
NO_CHARGES


@<TRIPOS>ATOM
1    C        42.6122   36.9576   86.3008  C     
2    N        41.3100   36.5882   86.3759  N     
3    O        43.1129   36.9363   85.1755  O     
4    C        40.4940   36.2881   85.2097  C     
5    C        39.2771   35.5324   85.8116  C     
6    C        39.0835   36.1978   87.1784  C     
7    C        40.5287   36.5231   87.5825  C     
8    C        40.1043   37.4940   84.4568  C     
9    O        40.6034   38.5459   84.8517  O     
10   N        39.2604   37.5402   83.4074  N     
11   C        43.3503   37.7629   87.3073  C     
12   N        42.9501   37.6665   88.6896  N     
13   C        42.9632   36.6026   89.4924  C     
14   C        38.6773   36.3759   82.7455  C     
15   C        39.1154   36.3109   81.2564  C     
16   C        38.9318   37.6658   80.5123  C     
17   C        39.4423   38.8633   81.3594  C     
18   C        38.8748   38.8044   82.8028  C     
19   C        44.9317   37.7985   87.1966  C     
20   O        43.3368   35.5188   89.0771  O     
21   C        45.6398   36.6003   87.7384  C     
22   C        45.6054   35.3687   87.0357  C     
23   C        46.1024   34.1913   87.6346  C     
24   C        46.6162   34.2249   88.9426  C     
25   C        46.6538   35.4404   89.6515  C     
26   C        46.1937   36.6193   89.0443  C     
27   C        42.6475   36.7379   90.9029  C     
28   C        41.3450   36.0412   91.3796  C     
29   C        41.0906   34.5508   90.9659  C     
30   C        41.8969   33.5200   91.8246  C     
31   C        41.6492   32.0658   91.3417  C     
32   C        40.1355   31.7186   91.3528  C     
33   C        39.2940   32.7351   90.5326  C     
34   C        39.5624   34.1879   91.0099  C     
35   H        41.0313   35.6152   84.5320  H     
36   H        38.3593   35.5960   85.2209  H     
37   H        39.5245   34.4774   85.9500  H     
38   H        38.4946   37.1192   87.0738  H     
39   H        38.5814   35.5317   87.8926  H     
40   H        40.9129   35.7009   88.2017  H     
41   H        40.5526   37.4582   88.1479  H     
42   H        43.0624   38.7822   87.0314  H     
43   H        42.6792   38.5035   89.0944  H     
44   H        38.9408   35.4246   83.2055  H     
45   H        37.5820   36.4515   82.8006  H     
46   H        40.1680   36.0418   81.2271  H     
47   H        38.5393   35.5348   80.7337  H     
48   H        39.4731   37.6446   79.5520  H     
49   H        37.8663   37.7991   80.2911  H     
50   H        40.5372   38.8352   81.4003  H     
51   H        39.1473   39.8032   80.8949  H     
52   H        37.7768   38.8735   82.7914  H     
53   H        39.2275   39.6978   83.3317  H     
54   H        45.2713   37.9708   86.1697  H     
55   H        45.2766   38.6831   87.7475  H     
56   H        45.1911   35.3191   86.1006  H     
57   H        46.0526   33.3047   87.1160  H     
58   H        46.9555   33.3703   89.3827  H     
59   H        47.0078   35.4571   90.6105  H     
60   H        46.2055   37.4915   89.5909  H     
61   H        43.4885   36.3672   91.4938  H     
62   H        42.5555   37.7997   91.1565  H     
63   H        41.3251   36.1005   92.4692  H     
64   H        40.5106   36.6309   91.0060  H     
65   H        41.4013   34.4418   89.9195  H     
66   H        42.9674   33.7172   91.7539  H     
67   H        41.6022   33.6139   92.8744  H     
68   H        42.0553   31.9349   90.3278  H     
69   H        42.1817   31.3772   92.0014  H     
70   H        39.9935   30.7302   90.9263  H     
71   H        39.7601   31.6933   92.3844  H     
72   H        39.5484   32.6578   89.4687  H     
73   H        38.2380   32.5025   90.6557  H     
74   H        39.1938   34.3071   92.0338  H     
75   H        38.9984   34.8795   90.3629  H     
@<TRIPOS>BOND
     1    1    2 am
     2    1    3 2
     3    1   11 1
     4    2    4 1
     5    2    7 1
     6    4    5 1
     7    4    8 1
     8    5    6 1
     9    6    7 1
    10    8    9 2
    11    8   10 am
    12   10   14 1
    13   10   18 1
    14   11   12 1
    15   11   19 1
    16   12   13 am
    17   13   20 2
    18   13   27 1
    19   14   15 1
    20   15   16 1
    21   16   17 1
    22   17   18 1
    23   19   21 1
    24   21   22 2
    25   21   26 1
    26   22   23 1
    27   23   24 2
    28   24   25 1
    29   25   26 2
    30   27   28 1
    31   28   29 1
    32   29   30 1
    33   29   34 1
    34   30   31 1
    35   31   32 1
    36   32   33 1
    37   33   34 1
    38    4   35 1
    39    5   36 1
    40    5   37 1
    41    6   38 1
    42    6   39 1
    43    7   40 1
    44    7   41 1
    45   11   42 1
    46   12   43 1
    47   14   44 1
    48   14   45 1
    49   15   46 1
    50   15   47 1
    51   16   48 1
    52   16   49 1
    53   17   50 1
    54   17   51 1
    55   18   52 1
    56   18   53 1
    57   19   54 1
    58   19   55 1
    59   22   56 1
    60   23   57 1
    61   24   58 1
    62   25   59 1
    63   26   60 1
    64   27   61 1
    65   27   62 1
    66   28   63 1
    67   28   64 1
    68   29   65 1
    69   30   66 1
    70   30   67 1
    71   31   68 1
    72   31   69 1
    73   32   70 1
    74   32   71 1
    75   33   72 1
    76   33   73 1
    77   34   74 1
    78   34   75 1
@<TRIPOS>PROPERTY_DATA
  Total_Score	| 6.2681
  Crash		| -3.3047
  Polar		| 1.7620
  FragIndex	| 1
  FragRMSD	| 0.762

