@<TRIPOS>MOLECULE
BindingDB_50284126
 51 53 0 0 0
SMALL
NO_CHARGES


@<TRIPOS>ATOM
1    C        40.2441   37.5405   84.1512  C     
2    N        41.2852   36.6217   86.2105  N     
3    N        39.6979   37.4484   82.9230  N     
4    C        40.3562   36.4326   85.1078  C     
5    C        42.5708   36.9946   86.0575  C     
6    O        40.7052   38.6182   84.5202  O     
7    C        39.7848   38.5093   81.9415  C     
8    O        43.0235   37.1048   84.9181  O     
9    O        38.2607   39.7801   83.2200  O     
10   C        39.0707   39.7295   82.2997  C     
11   C        39.0435   36.2738   82.4111  C     
12   C        40.7013   36.3100   87.4856  C     
13   C        39.0019   36.1138   85.7965  C     
14   C        43.5171   37.1471   87.1643  C     
15   C        46.2948   36.2209   88.1800  C     
16   C        39.3970   35.5664   87.1736  C     
17   C        44.8646   37.8721   86.8482  C     
18   C        38.3822   36.7130   81.0958  C     
19   C        39.2618   37.8779   80.6254  C     
20   C        45.9865   37.6559   87.9026  C     
21   C        46.3437   35.7180   89.5048  C     
22   C        46.5410   35.3218   87.1130  C     
23   C        46.6396   34.3615   89.7512  C     
24   C        46.8062   33.9618   87.3561  C     
25   C        46.8627   33.4828   88.6781  C     
26   H        40.7005   35.5396   84.5738  H     
27   H        40.8411   38.7709   81.8024  H     
28   H        39.2636   40.5684   81.8025  H     
29   H        39.7812   35.4848   82.2258  H     
30   H        38.2744   35.9009   83.0866  H     
31   H        41.3436   35.6620   88.0901  H     
32   H        40.4923   37.2331   88.0313  H     
33   H        38.3928   37.0185   85.9319  H     
34   H        38.4176   35.3749   85.2458  H     
35   H        43.0355   37.7204   87.9570  H     
36   H        43.7256   36.1445   87.5495  H     
37   H        39.5752   34.4875   87.0991  H     
38   H        38.6243   35.7501   87.9274  H     
39   H        45.2481   37.5483   85.8815  H     
40   H        44.6676   38.9431   86.7709  H     
41   H        38.3495   35.9009   80.3650  H     
42   H        37.3635   37.0681   81.2819  H     
43   H        38.7014   38.5646   79.9887  H     
44   H        40.0964   37.4829   80.0424  H     
45   H        45.7053   38.1834   88.8215  H     
46   H        46.9038   38.1229   87.5342  H     
47   H        46.1669   36.3381   90.2972  H     
48   H        46.5315   35.6524   86.1436  H     
49   H        46.6783   34.0141   90.7105  H     
50   H        46.9648   33.3235   86.5732  H     
51   H        47.0745   32.4988   88.8520  H     
@<TRIPOS>BOND
     1    1    3 am
     2    4    1 1
     3    1    6 2
     4    2    4 1
     5    2    5 am
     6    2   12 1
     7    3    7 1
     8    3   11 1
     9    4   13 1
    10    5    8 2
    11    5   14 1
    12    7   10 1
    13    7   19 1
    14    9   10 2
    15   11   18 1
    16   12   16 1
    17   13   16 1
    18   14   17 1
    19   15   20 1
    20   15   21 2
    21   15   22 1
    22   17   20 1
    23   18   19 1
    24   21   23 1
    25   22   24 2
    26   23   25 2
    27   24   25 1
    28    4   26 1
    29    7   27 1
    30   10   28 1
    31   11   29 1
    32   11   30 1
    33   12   31 1
    34   12   32 1
    35   13   33 1
    36   13   34 1
    37   14   35 1
    38   14   36 1
    39   16   37 1
    40   16   38 1
    41   17   39 1
    42   17   40 1
    43   18   41 1
    44   18   42 1
    45   19   43 1
    46   19   44 1
    47   20   45 1
    48   20   46 1
    49   21   47 1
    50   22   48 1
    51   23   49 1
    52   24   50 1
    53   25   51 1
@<TRIPOS>PROPERTY_DATA
  Total_Score	| 9.6732
  Crash		| -1.8666
  Polar		| 2.2692
  FragIndex	| 1
  FragRMSD	| 0.136

