@<TRIPOS>MOLECULE
BindingDB_50379564
 35 38 0 0 0
SMALL
NO_CHARGES


@<TRIPOS>ATOM
1    C         0.6937   38.3635   12.6862  C     
2    C         0.2936   37.1747   12.0372  C     
3    C         1.0629   36.7607   10.9289  C     
4    C         1.8131   39.0953   12.2547  C     
5    C         2.6009   38.6843   11.1469  C     
6    C         2.1976   37.4798   10.4765  C     
7    C         4.3517   38.9720    9.5242  C     
8    C         3.7278   39.4195   10.6420  C     
9    C         2.8436   36.0277    8.5562  C     
10   N         3.7807   36.1267    7.6440  N     
11   N         4.4769   37.1981    7.8289  N     
12   C         3.9531   37.7995    8.9104  C     
13   N         2.9223   37.0673    9.3687  N     
14   O         2.0642   35.0890    8.5794  O     
15   C         4.1936   40.7038   11.2003  C     
16   C        -0.8386   36.4191   12.4643  C     
17   N        -1.2351   35.2405   11.9387  N     
18   C        -2.3271   34.7797   12.5653  C     
19   C        -2.6710   35.6855   13.5550  C     
20   C        -1.7404   36.7125   13.4952  C     
21   N         5.6541   40.8792   11.1957  N     
22   H         0.1694   38.7235   13.4838  H     
23   H         0.7774   35.9224   10.4357  H     
24   H         2.0173   39.9498   12.7686  H     
25   H         5.1090   39.4765    9.1199  H     
26   H         3.9224   35.4792    6.9331  H     
27   H         3.7550   41.5227   10.6267  H     
28   H         3.9086   40.8443   12.2395  H     
29   H        -0.7851   34.7590   11.2298  H     
30   H        -2.8104   33.9046   12.3575  H     
31   H        -3.4541   35.6131   14.2079  H     
32   H        -1.7346   37.5236   14.1124  H     
33   H         6.0971   40.0912   11.6754  H     
34   H         5.8868   41.7541   11.6833  H     
35   H         5.9970   40.9386   10.2372  H     
@<TRIPOS>BOND
     1    1    2 2
     2    1    4 1
     3    2    3 1
     4    2   16 1
     5    3    6 2
     6    4    5 2
     7    5    6 1
     8    5    8 1
     9    6   13 1
    10    7    8 2
    11    7   12 1
    12    8   15 1
    13    9   10 1
    14    9   13 1
    15    9   14 2
    16   10   11 1
    17   11   12 2
    18   12   13 1
    19   15   21 1
    20   16   17 1
    21   16   20 2
    22   17   18 1
    23   18   19 2
    24   19   20 1
    25    1   22 1
    26    3   23 1
    27    4   24 1
    28    7   25 1
    29   10   26 1
    30   15   27 1
    31   15   28 1
    32   17   29 1
    33   18   30 1
    34   19   31 1
    35   20   32 1
    36   21   33 1
    37   21   34 1
    38   21   35 1
@<TRIPOS>PROPERTY_DATA
  Total_Score	| 6.7756
  Crash		| -0.6496
  Polar		| 2.6080
  FragIndex	| 1
  FragRMSD	| 0.522

