@<TRIPOS>MOLECULE
BindingDB_50379560
 33 36 0 0 0
SMALL
NO_CHARGES


@<TRIPOS>ATOM
1    C         0.8230   38.4689   12.5633  C     
2    C         0.4004   37.2597   11.9544  C     
3    C         1.1483   36.7976   10.8491  C     
4    C         1.9447   39.1714   12.0895  C     
5    C         2.7042   38.7017   10.9783  C     
6    C         2.2767   37.4934   10.3486  C     
7    C         4.5759   38.8152    9.4789  C     
8    C         3.8628   39.3756   10.4822  C     
9    C         2.8458   36.0283    8.4140  C     
10   N         3.8357   36.0386    7.5625  N     
11   N         4.6399   37.0311    7.8055  N     
12   C         4.1244   37.6585    8.8700  C     
13   N         3.0010   37.0309    9.2605  N     
14   O         1.9624   35.1786    8.3750  O     
15   C         4.2539   40.6958   11.0249  C     
16   C        -0.7271   36.5309   12.4312  C     
17   N        -1.1211   35.3194   11.9817  N     
18   C        -2.2123   34.8945   12.6322  C     
19   C        -2.5615   35.8606   13.5645  C     
20   C        -1.6293   36.8844   13.4447  C     
21   O         5.4341   41.3531   10.5574  O     
22   H         0.3184   38.8501   13.3619  H     
23   H         0.8637   35.9267   10.4026  H     
24   H         2.1908   40.0376   12.5721  H     
25   H         5.4028   39.2177    9.1162  H     
26   H         3.9564   35.3950    6.8417  H     
27   H         3.4354   41.3930   10.8038  H     
28   H         4.3550   40.5979   12.1130  H     
29   H        -0.6626   34.7898   11.3027  H     
30   H        -2.6959   34.0068   12.4760  H     
31   H        -3.3415   35.8286   14.2232  H     
32   H        -1.6302   37.7344   14.0063  H     
33   H         6.1526   41.0786   11.1872  H     
@<TRIPOS>BOND
     1    1    2 2
     2    1    4 1
     3    2    3 1
     4    2   16 1
     5    3    6 2
     6    4    5 2
     7    5    6 1
     8    5    8 1
     9    6   13 1
    10    7    8 2
    11    7   12 1
    12    8   15 1
    13    9   10 1
    14    9   13 1
    15    9   14 2
    16   10   11 1
    17   11   12 2
    18   12   13 1
    19   15   21 1
    20   16   17 1
    21   16   20 2
    22   17   18 1
    23   18   19 2
    24   19   20 1
    25    1   22 1
    26    3   23 1
    27    4   24 1
    28    7   25 1
    29   10   26 1
    30   15   27 1
    31   15   28 1
    32   17   29 1
    33   18   30 1
    34   19   31 1
    35   20   32 1
    36   21   33 1
@<TRIPOS>PROPERTY_DATA
  Total_Score	| 6.6851
  Crash		| -0.4932
  Polar		| 2.8340
  FragIndex	| 1
  FragRMSD	| 0.573

