@<TRIPOS>MOLECULE
BindingDB_50379565
 42 45 0 0 0
SMALL
NO_CHARGES


@<TRIPOS>ATOM
1    C         0.8281   38.4702   12.5593  C     
2    C         0.4008   37.2732   11.9443  C     
3    C         1.1612   36.7995   10.8522  C     
4    C         1.9591   39.1678   12.0915  C     
5    C         2.7059   38.7111   10.9783  C     
6    C         2.2949   37.4860   10.3586  C     
7    C         4.5141   38.8720    9.3990  C     
8    C         3.8388   39.4027   10.4489  C     
9    C         2.9109   35.9853    8.4675  C     
10   N         3.8639   36.0338    7.5689  N     
11   N         4.6136   37.0723    7.7532  N     
12   C         4.0979   37.6954    8.8236  C     
13   N         3.0281   37.0188    9.2815  N     
14   O         2.0880   35.0798    8.4886  O     
15   C         4.2251   40.7602   10.8782  C     
16   C        -0.7482   36.5433   12.3821  C     
17   N        -1.1216   35.3145   11.9482  N     
18   C        -2.2489   34.9085   12.5552  C     
19   C        -2.6371   35.8902   13.4427  C     
20   C        -1.7045   36.9143   13.3356  C     
21   N         4.8592   40.8581   12.2085  N     
22   C         6.2758   40.4300   12.3657  C     
23   C         6.4634   38.9179   12.6683  C     
24   O         6.1602   38.0547   11.5704  O     
25   H         0.3190   38.8574   13.3500  H     
26   H         0.8517   35.9437   10.3785  H     
27   H         2.2093   40.0281   12.5798  H     
28   H         5.3123   39.3158    9.0013  H     
29   H         3.9789   35.3869    6.8595  H     
30   H         4.8649   41.2676   10.1458  H     
31   H         3.3182   41.3855   10.8874  H     
32   H        -0.6259   34.7735   11.3085  H     
33   H        -2.7075   34.0155   12.4045  H     
34   H        -3.4488   35.8781   14.0466  H     
35   H        -1.7255   37.7848   13.8786  H     
36   H         4.8210   41.8555   12.4460  H     
37   H         4.2827   40.3625   12.8832  H     
38   H         6.8763   40.7263   11.4960  H     
39   H         6.6631   40.9835   13.2269  H     
40   H         7.5080   38.7197   12.9693  H     
41   H         5.8248   38.6318   13.5131  H     
42   H         7.0456   37.7219   11.2414  H     
@<TRIPOS>BOND
     1    1    2 2
     2    1    4 1
     3    2    3 1
     4    2   16 1
     5    3    6 2
     6    4    5 2
     7    5    6 1
     8    5    8 1
     9    6   13 1
    10    7    8 2
    11    7   12 1
    12    8   15 1
    13    9   10 1
    14    9   13 1
    15    9   14 2
    16   10   11 1
    17   11   12 2
    18   12   13 1
    19   15   21 1
    20   16   17 1
    21   16   20 2
    22   17   18 1
    23   18   19 2
    24   19   20 1
    25   21   22 1
    26   22   23 1
    27   23   24 1
    28    1   25 1
    29    3   26 1
    30    4   27 1
    31    7   28 1
    32   10   29 1
    33   15   30 1
    34   15   31 1
    35   17   32 1
    36   18   33 1
    37   19   34 1
    38   20   35 1
    39   21   36 1
    40   21   37 1
    41   22   38 1
    42   22   39 1
    43   23   40 1
    44   23   41 1
    45   24   42 1
@<TRIPOS>PROPERTY_DATA
  Total_Score	| 8.1411
  Crash		| -0.8479
  Polar		| 3.9816
  FragIndex	| 1
  FragRMSD	| 0.556

