@<TRIPOS>MOLECULE
BindingDB_50379563
 31 34 0 0 0
SMALL
NO_CHARGES


@<TRIPOS>ATOM
1    C         0.7588   38.3973   12.6116  C     
2    C         0.3241   37.2029   11.9859  C     
3    C         1.0558   36.7541   10.8640  C     
4    C         1.8813   39.1014   12.1415  C     
5    C         2.6116   38.6525   11.0162  C     
6    C         2.1876   37.4496   10.3708  C     
7    C         4.4313   38.8481    9.4564  C     
8    C         3.7366   39.3417   10.5074  C     
9    C         2.8035   35.9882    8.4478  C     
10   N         3.7790   36.0343    7.5731  N     
11   N         4.5322   37.0581    7.7864  N     
12   C         4.0084   37.6840    8.8506  C     
13   N         2.9194   37.0100    9.2765  N     
14   O         1.9531   35.1131    8.4332  O     
15   N         4.1405   40.4652   10.9998  N     
16   C        -0.8064   36.4634   12.4515  C     
17   N        -1.2362   35.2784   11.9545  N     
18   C        -2.3116   34.8391   12.6262  C     
19   C        -2.6119   35.7677   13.6109  C     
20   C        -1.6675   36.7807   13.5068  C     
21   H         0.2624   38.7687   13.4245  H     
22   H         0.7604   35.8966   10.3960  H     
23   H         2.1467   39.9562   12.6393  H     
24   H         5.2330   39.3148    9.0892  H     
25   H         3.9044   35.3800    6.8617  H     
26   H         4.8381   40.9366   10.5849  H     
27   H         3.7035   40.8488   11.7260  H     
28   H        -0.7952   34.7653   11.2567  H     
29   H        -2.8056   33.9613   12.4521  H     
30   H        -3.3653   35.7015   14.2981  H     
31   H        -1.6277   37.5933   14.1178  H     
@<TRIPOS>BOND
     1    1    2 2
     2    1    4 1
     3    2    3 1
     4    2   16 1
     5    3    6 2
     6    4    5 2
     7    5    6 1
     8    5    8 1
     9    6   13 1
    10    7    8 2
    11    7   12 1
    12    8   15 1
    13    9   10 1
    14    9   13 1
    15    9   14 2
    16   10   11 1
    17   11   12 2
    18   12   13 1
    19   16   17 1
    20   16   20 2
    21   17   18 1
    22   18   19 2
    23   19   20 1
    24    1   21 1
    25    3   22 1
    26    4   23 1
    27    7   24 1
    28   10   25 1
    29   15   26 1
    30   15   27 1
    31   17   28 1
    32   18   29 1
    33   19   30 1
    34   20   31 1
@<TRIPOS>PROPERTY_DATA
  Total_Score	| 6.5365
  Crash		| -0.3748
  Polar		| 2.7073
  FragIndex	| 1
  FragRMSD	| 0.123

