@<TRIPOS>MOLECULE
BindingDB_50325173
 32 35 0 0 0
SMALL
NO_CHARGES


@<TRIPOS>ATOM
1    C         0.8673   38.6084   12.6665  C     
2    C         0.3545   37.4418   12.0507  C     
3    C         1.0407   36.9732   10.9045  C     
4    C         2.0049   39.2641   12.1665  C     
5    C         2.6942   38.7856   11.0258  C     
6    C         2.1965   37.6057   10.3895  C     
7    C         4.5149   38.8488    9.4559  C     
8    C         3.8621   39.4146   10.4986  C     
9    C         4.0163   37.7089    8.8648  C     
10   N         2.8887   37.1114    9.2915  N     
11   C         2.7072   36.0913    8.4722  C     
12   N         3.6848   36.0690    7.5957  N     
13   N         4.5002   37.0475    7.8038  N     
14   O         1.8059   35.2653    8.4514  O     
15   C         4.3548   40.6848   11.0328  C     
16   C        -0.7844   36.7241   12.5558  C     
17   N        -1.2444   35.6397   11.8621  N     
18   C        -2.2714   34.8468   12.2383  C     
19   C        -2.9381   35.1589   13.4326  C     
20   N        -2.5243   36.2389   14.1443  N     
21   C        -1.4855   37.0187   13.7564  C     
22   H         0.4268   39.0094   13.4934  H     
23   H         0.7001   36.1378   10.4333  H     
24   H         2.3226   40.1016   12.6604  H     
25   H         5.3433   39.2496    9.0813  H     
26   H         3.7810   35.4110    6.8888  H     
27   H         3.5714   41.4423   10.9441  H     
28   H         5.2367   41.0666   10.5115  H     
29   H         4.6215   40.5671   12.0848  H     
30   H        -2.5444   34.0509   11.6656  H     
31   H        -3.7202   34.5873   13.7600  H     
32   H        -1.2331   37.8000   14.3609  H     
@<TRIPOS>BOND
     1    1    2 2
     2    1    4 1
     3    2    3 1
     4    2   16 1
     5    3    6 2
     6    4    5 2
     7    5    6 1
     8    5    8 1
     9    6   10 1
    10    7    8 2
    11    7    9 1
    12    8   15 1
    13    9   10 1
    14    9   13 2
    15   10   11 1
    16   11   12 1
    17   11   14 2
    18   12   13 1
    19   16   17 2
    20   16   21 1
    21   17   18 1
    22   18   19 2
    23   19   20 1
    24   20   21 2
    25    1   22 1
    26    3   23 1
    27    4   24 1
    28    7   25 1
    29   12   26 1
    30   15   27 1
    31   15   28 1
    32   15   29 1
    33   18   30 1
    34   19   31 1
    35   21   32 1
@<TRIPOS>PROPERTY_DATA
  Total_Score	| 6.6842
  Crash		| -0.2171
  Polar		| 2.1763
  FragIndex	| 1
  FragRMSD	| 0.589

