@<TRIPOS>MOLECULE
BindingDB_50325177
 32 35 0 0 0
SMALL
NO_CHARGES


@<TRIPOS>ATOM
1    C         0.8125   38.4276   12.6010  C     
2    C         0.3618   37.2387   11.9805  C     
3    C         1.0843   36.7727   10.8586  C     
4    C         1.9344   39.1220   12.1214  C     
5    C         2.6604   38.6613   10.9958  C     
6    C         2.2191   37.4564   10.3571  C     
7    C         4.4620   38.8360    9.4056  C     
8    C         3.8042   39.3453   10.4714  C     
9    C         4.0197   37.6742    8.8106  C     
10   N         2.9391   37.0085    9.2555  N     
11   C         2.8148   35.9800    8.4374  C     
12   N         3.7742   36.0141    7.5475  N     
13   N         4.5290   37.0423    7.7417  N     
14   O         1.9687   35.1028    8.4545  O     
15   C         4.2864   40.5967   11.0461  C     
16   C        -0.7845   36.5215   12.4511  C     
17   C        -1.6179   36.8333   13.5302  C     
18   C        -2.5811   35.8425   13.6303  C     
19   C        -2.3263   34.9350   12.6149  C     
20   N        -1.2505   35.3590   11.9393  N     
21   H         0.3235   38.8139   13.4131  H     
22   H         0.7769   35.9159   10.3965  H     
23   H         2.2058   39.9812   12.6058  H     
24   H         5.2638   39.2800    9.0215  H     
25   H         3.9016   35.3543    6.8504  H     
26   H         3.4958   41.3418   10.9858  H     
27   H         5.1594   41.0110   10.5356  H     
28   H         4.5554   40.4395   12.0909  H     
29   H        -1.5415   37.6296   14.1623  H     
30   H        -3.3224   35.7814   14.3293  H     
31   H        -2.8432   34.0720   12.4329  H     
32   H        -0.8351   34.8496   11.2242  H     
@<TRIPOS>BOND
     1    1    2 2
     2    1    4 1
     3    2    3 1
     4    2   16 1
     5    3    6 2
     6    4    5 2
     7    5    6 1
     8    5    8 1
     9    6   10 1
    10    7    8 2
    11    7    9 1
    12    8   15 1
    13    9   10 1
    14    9   13 2
    15   10   11 1
    16   11   12 1
    17   11   14 2
    18   12   13 1
    19   16   17 2
    20   16   20 1
    21   17   18 1
    22   18   19 2
    23   19   20 1
    24    1   21 1
    25    3   22 1
    26    4   23 1
    27    7   24 1
    28   12   25 1
    29   15   26 1
    30   15   27 1
    31   15   28 1
    32   17   29 1
    33   18   30 1
    34   19   31 1
    35   20   32 1
@<TRIPOS>PROPERTY_DATA
  Total_Score	| 6.5562
  Crash		| -0.3529
  Polar		| 2.5805
  FragIndex	| 1
  FragRMSD	| 0.803

