@<TRIPOS>MOLECULE
BindingDB_50379582
 51 55 0 0 0
SMALL
NO_CHARGES


@<TRIPOS>ATOM
1    C         0.8947   37.7848   12.9633  C     
2    C         0.2835   36.8974   12.0500  C     
3    C         0.9566   36.6478   10.8327  C     
4    C         2.1507   38.3523   12.6979  C     
5    C         2.8647   38.0469   11.5137  C     
6    C         2.2302   37.1981   10.5541  C     
7    C         4.6612   38.4485    9.9674  C     
8    C         4.1676   38.5558   11.2275  C     
9    C         2.7197   36.1040    8.3783  C     
10   N         3.7037   36.2326    7.5191  N     
11   N         4.5384   37.1335    7.9163  N     
12   C         4.0507   37.5964    9.0750  C     
13   N         2.9045   36.9526    9.3708  N     
14   O         1.8713   35.2340    8.2708  O     
15   C         5.1126   38.9730   12.2764  C     
16   C        -0.9569   36.2656   12.3680  C     
17   N        -1.6812   36.4916   13.4843  N     
18   C        -2.7720   35.7100   13.5152  C     
19   C        -2.7702   34.9208   12.3756  C     
20   C        -1.6353   35.2664   11.6580  C     
21   N         5.4767   40.4322   12.1853  N     
22   C         5.1679   41.2354   13.4111  C     
23   C         6.2095   41.0355   14.5478  C     
24   N         7.5929   41.3037   14.0494  N     
25   C         7.9286   40.4846   12.8425  C     
26   C         6.8749   40.6953   11.7221  C     
27   C         8.6291   41.1766   15.1165  C     
28   H         0.4399   38.0199   13.8496  H     
29   H         0.5107   36.0598   10.1339  H     
30   H         2.5304   38.9933   13.3953  H     
31   H         5.5554   38.8118    9.7213  H     
32   H         3.8397   35.6483    6.7578  H     
33   H         4.7381   38.7207   13.2687  H     
34   H         6.0003   38.3418   12.1853  H     
35   H        -1.4484   37.1287   14.1782  H     
36   H        -3.4756   35.6946   14.2550  H     
37   H        -3.4638   34.2168   12.1148  H     
38   H        -1.3572   34.8326   10.7769  H     
39   H         4.8771   40.8193   11.4541  H     
40   H         5.1572   42.2902   13.1306  H     
41   H         4.1696   41.0020   13.7839  H     
42   H         5.9653   41.7261   15.3614  H     
43   H         6.1370   40.0185   14.9393  H     
44   H         7.6014   42.2820   13.7473  H     
45   H         8.9073   40.7763   12.4492  H     
46   H         7.9679   39.4238   13.1041  H     
47   H         7.1326   40.0617   10.8744  H     
48   H         6.9300   41.7289   11.3745  H     
49   H         8.3812   41.8196   15.9686  H     
50   H         9.6002   41.4938   14.7340  H     
51   H         8.7098   40.1419   15.4675  H     
@<TRIPOS>BOND
     1    1    2 2
     2    1    4 1
     3    2    3 1
     4    2   16 1
     5    3    6 2
     6    4    5 2
     7    5    6 1
     8    5    8 1
     9    6   13 1
    10    7    8 2
    11    7   12 1
    12    8   15 1
    13    9   10 1
    14    9   13 1
    15    9   14 2
    16   10   11 1
    17   11   12 2
    18   12   13 1
    19   15   21 1
    20   16   17 1
    21   16   20 2
    22   17   18 1
    23   18   19 2
    24   19   20 1
    25   21   22 1
    26   21   26 1
    27   22   23 1
    28   23   24 1
    29   24   25 1
    30   24   27 1
    31   25   26 1
    32    1   28 1
    33    3   29 1
    34    4   30 1
    35    7   31 1
    36   10   32 1
    37   15   33 1
    38   15   34 1
    39   17   35 1
    40   18   36 1
    41   19   37 1
    42   20   38 1
    43   21   39 1
    44   22   40 1
    45   22   41 1
    46   23   42 1
    47   23   43 1
    48   24   44 1
    49   25   45 1
    50   25   46 1
    51   26   47 1
    52   26   48 1
    53   27   49 1
    54   27   50 1
    55   27   51 1
@<TRIPOS>PROPERTY_DATA
  Total_Score	| 10.4521
  Crash		| -0.7433
  Polar		| 3.5241
  FragIndex	| 1
  FragRMSD	| 1.285

