@<TRIPOS>MOLECULE
BindingDB_50379570
 50 53 0 0 0
SMALL
NO_CHARGES


@<TRIPOS>ATOM
1    C         0.6929   38.2893   12.5983  C     
2    C         0.2358   37.1428   11.9109  C     
3    C         0.9815   36.7167   10.7899  C     
4    C         1.8473   38.9721   12.1912  C     
5    C         2.6014   38.5483   11.0716  C     
6    C         2.1476   37.3936   10.3553  C     
7    C         4.4760   38.7215    9.5642  C     
8    C         3.7909   39.2086   10.6254  C     
9    C         2.7397   36.0114    8.3619  C     
10   N         3.7374   36.0505    7.5183  N     
11   N         4.5370   37.0266    7.8059  N     
12   C         4.0102   37.6145    8.8915  C     
13   N         2.8813   36.9787    9.2509  N     
14   O         1.8608   35.1679    8.2841  O     
15   C         4.2870   40.4280   11.2591  C     
16   C        -0.9136   36.4162   12.3319  C     
17   N        -1.2415   35.1693   11.9281  N     
18   C        -2.3603   34.7535   12.5293  C     
19   C        -2.7966   35.7613   13.3785  C     
20   C        -1.8961   36.8054   13.2522  C     
21   N         4.8792   40.1375   12.5950  N     
22   C         5.1653   41.3399   13.4197  C     
23   C         6.2517   41.0955   14.5060  C     
24   N         7.6648   41.3931   14.0863  N     
25   C         8.6313   41.1822   15.2044  C     
26   C         8.1022   40.6960   12.8417  C     
27   H         0.1993   38.6369   13.4228  H     
28   H         0.6615   35.8990   10.2731  H     
29   H         2.1203   39.7938   12.7307  H     
30   H         5.3176   39.1400    9.2409  H     
31   H         3.8708   35.4288    6.7875  H     
32   H         5.0649   40.9223   10.6578  H     
33   H         3.4683   41.1466   11.3497  H     
34   H        -0.7246   34.6252   11.3127  H     
35   H        -2.7988   33.8407   12.4059  H     
36   H        -3.6245   35.7377   13.9736  H     
37   H        -1.9592   37.6956   13.7483  H     
38   H         4.2429   39.5348   13.1177  H     
39   H         5.7436   39.6077   12.4554  H     
40   H         5.4739   42.1862   12.8084  H     
41   H         4.2307   41.6358   13.9074  H     
42   H         5.9990   41.7697   15.3254  H     
43   H         6.1741   40.0739   14.8796  H     
44   H         7.7091   42.3889   13.8643  H     
45   H         8.3981   41.8423   16.0404  H     
46   H         9.6544   41.4154   14.8961  H     
47   H         8.5944   40.1461   15.5568  H     
48   H         8.0544   39.6058   12.9634  H     
49   H         9.1369   40.9611   12.5905  H     
50   H         7.4827   40.9852   11.9899  H     
@<TRIPOS>BOND
     1    1    2 2
     2    1    4 1
     3    2    3 1
     4    2   16 1
     5    3    6 2
     6    4    5 2
     7    5    6 1
     8    5    8 1
     9    6   13 1
    10    7    8 2
    11    7   12 1
    12    8   15 1
    13    9   10 1
    14    9   13 1
    15    9   14 2
    16   10   11 1
    17   11   12 2
    18   12   13 1
    19   15   21 1
    20   16   17 1
    21   16   20 2
    22   17   18 1
    23   18   19 2
    24   19   20 1
    25   21   22 1
    26   22   23 1
    27   23   24 1
    28   24   25 1
    29   24   26 1
    30    1   27 1
    31    3   28 1
    32    4   29 1
    33    7   30 1
    34   10   31 1
    35   15   32 1
    36   15   33 1
    37   17   34 1
    38   18   35 1
    39   19   36 1
    40   20   37 1
    41   21   38 1
    42   21   39 1
    43   22   40 1
    44   22   41 1
    45   23   42 1
    46   23   43 1
    47   24   44 1
    48   25   45 1
    49   25   46 1
    50   25   47 1
    51   26   48 1
    52   26   49 1
    53   26   50 1
@<TRIPOS>PROPERTY_DATA
  Total_Score	| 10.3429
  Crash		| -0.7955
  Polar		| 4.4467
  FragIndex	| 1
  FragRMSD	| 0.782

