@<TRIPOS>MOLECULE
BindingDB_50325146
 31 34 0 0 0
SMALL
NO_CHARGES


@<TRIPOS>ATOM
1    C         0.7753   38.2932   12.5886  C     
2    C         0.3116   37.1569   11.8959  C     
3    C         1.0428   36.7387   10.7623  C     
4    C         1.9221   38.9898   12.1674  C     
5    C         2.6623   38.5761   11.0302  C     
6    C         2.2001   37.4214   10.3217  C     
7    C         4.4872   38.7896    9.4720  C     
8    C         3.8327   39.2531   10.5617  C     
9    C         4.0226   37.6740    8.8073  C     
10   N         2.9205   37.0140    9.2085  N     
11   C         2.7794   36.0240    8.3469  C     
12   N         3.7547   36.0772    7.4694  N     
13   N         4.5334   37.0792    7.7192  N     
14   O         1.9251   35.1552    8.3076  O     
15   C         4.3491   40.4493   11.2276  C     
16   C        -0.8518   36.4578   12.3359  C     
17   N        -1.5853   36.7943   13.4173  N     
18   C        -2.5952   35.9182   13.5365  C     
19   N        -2.5218   35.0183   12.5496  N     
20   C        -1.4655   35.3265   11.7902  C     
21   H         0.2788   38.6370   13.4189  H     
22   H         0.7238   35.9228   10.2535  H     
23   H         2.2007   39.8123   12.7126  H     
24   H         5.3055   39.2351    9.1222  H     
25   H         3.8794   35.4371    6.7502  H     
26   H         3.5873   41.2299   11.2134  H     
27   H         5.2439   40.8610   10.7556  H     
28   H         4.6038   40.2124   12.2611  H     
29   H        -3.3093   35.9413   14.2643  H     
30   H        -3.1316   34.2765   12.4083  H     
31   H        -1.1835   34.8050   10.9611  H     
@<TRIPOS>BOND
     1    1    2 2
     2    1    4 1
     3    2    3 1
     4    2   16 1
     5    3    6 2
     6    4    5 2
     7    5    6 1
     8    5    8 1
     9    6   10 1
    10    7    8 2
    11    7    9 1
    12    8   15 1
    13    9   10 1
    14    9   13 2
    15   10   11 1
    16   11   12 1
    17   11   14 2
    18   12   13 1
    19   16   17 1
    20   16   20 2
    21   17   18 2
    22   18   19 1
    23   19   20 1
    24    1   21 1
    25    3   22 1
    26    4   23 1
    27    7   24 1
    28   12   25 1
    29   15   26 1
    30   15   27 1
    31   15   28 1
    32   18   29 1
    33   19   30 1
    34   20   31 1
@<TRIPOS>PROPERTY_DATA
  Total_Score	| 5.8025
  Crash		| -0.2543
  Polar		| 2.0826
  FragIndex	| 1
  FragRMSD	| 0.807

