@<TRIPOS>MOLECULE
BindingDB_50379584
 44 47 0 0 0
SMALL
NO_CHARGES


@<TRIPOS>ATOM
1    C         0.8150   38.4019   12.6340  C     
2    C         0.3687   37.2116   12.0107  C     
3    C         1.0943   36.7586   10.8868  C     
4    C         1.9314   39.1081   12.1474  C     
5    C         2.6565   38.6640   11.0112  C     
6    C         2.2165   37.4536   10.3758  C     
7    C         4.4035   38.8718    9.3638  C     
8    C         3.7649   39.3668   10.4638  C     
9    C         2.8408   35.9420    8.4907  C     
10   N         3.8086   35.9798    7.6060  N     
11   N         4.5218   37.0447    7.7602  N     
12   C         3.9833   37.6948    8.7993  C     
13   N         2.9296   37.0029    9.2741  N     
14   O         2.0386   35.0246    8.5360  O     
15   C         4.3843   40.5426   11.1065  C     
16   C        -0.7730   36.4830   12.4770  C     
17   N        -1.2223   35.3135   11.9630  N     
18   C        -2.3161   34.8875   12.6161  C     
19   C        -2.6048   35.8075   13.6117  C     
20   C        -1.6407   36.8019   13.5279  C     
21   N         5.1229   40.2476   12.3690  N     
22   C         6.3092   39.3403   12.3089  C     
23   C         7.5039   39.8068   11.4420  C     
24   N         8.4278   40.6824   12.1712  N     
25   H         0.3291   38.7775   13.4482  H     
26   H         0.7878   35.9076   10.4210  H     
27   H         2.1914   39.9669   12.6352  H     
28   H         5.2039   39.3095    8.9785  H     
29   H         3.9761   35.2956    6.9389  H     
30   H         5.0686   41.0870   10.4439  H     
31   H         3.6102   41.2726   11.3142  H     
32   H        -0.8097   34.8213   11.2363  H     
33   H        -2.8326   34.0306   12.4166  H     
34   H        -3.3752   35.7582   14.2794  H     
35   H        -1.5987   37.6202   14.1374  H     
36   H         5.4241   41.1324   12.7764  H     
37   H         4.4503   39.8215   13.0112  H     
38   H         6.6594   39.1996   13.3302  H     
39   H         5.9971   38.3495   11.9739  H     
40   H         8.0757   38.9308   11.1307  H     
41   H         7.1790   40.3229   10.5413  H     
42   H         7.9395   41.5137   12.5202  H     
43   H         9.1844   40.9661   11.5395  H     
44   H         8.8362   40.1640   12.9549  H     
@<TRIPOS>BOND
     1    1    2 2
     2    1    4 1
     3    2    3 1
     4    2   16 1
     5    3    6 2
     6    4    5 2
     7    5    6 1
     8    5    8 1
     9    6   13 1
    10    7    8 2
    11    7   12 1
    12    8   15 1
    13    9   10 1
    14    9   13 1
    15    9   14 2
    16   10   11 1
    17   11   12 2
    18   12   13 1
    19   15   21 1
    20   16   17 1
    21   16   20 2
    22   17   18 1
    23   18   19 2
    24   19   20 1
    25   21   22 1
    26   22   23 1
    27   23   24 1
    28    1   25 1
    29    3   26 1
    30    4   27 1
    31    7   28 1
    32   10   29 1
    33   15   30 1
    34   15   31 1
    35   17   32 1
    36   18   33 1
    37   19   34 1
    38   20   35 1
    39   21   36 1
    40   21   37 1
    41   22   38 1
    42   22   39 1
    43   23   40 1
    44   23   41 1
    45   24   42 1
    46   24   43 1
    47   24   44 1
@<TRIPOS>PROPERTY_DATA
  Total_Score	| 10.1792
  Crash		| -0.8090
  Polar		| 6.3653
  FragIndex	| 1
  FragRMSD	| 0.782

