@<TRIPOS>MOLECULE
BindingDB_50379580
 53 56 0 0 0
SMALL
NO_CHARGES


@<TRIPOS>ATOM
1    C         0.7783   38.3628   12.6146  C     
2    C         0.3018   37.2215   11.9299  C     
3    C         1.0204   36.7944   10.7923  C     
4    C         1.9212   39.0462   12.1744  C     
5    C         2.6634   38.6189   11.0437  C     
6    C         2.1940   37.4523   10.3510  C     
7    C         4.5830   38.7006    9.5949  C     
8    C         3.8531   39.2676   10.5903  C     
9    C         2.7879   36.0244    8.3916  C     
10   N         3.8058   36.0235    7.5660  N     
11   N         4.6270   36.9803    7.8635  N     
12   C         4.0997   37.5938    8.9315  C     
13   N         2.9365   36.9984    9.2716  N     
14   O         1.8851   35.2005    8.3128  O     
15   C         4.2877   40.5957   11.0576  C     
16   C        -0.8301   36.4870   12.3809  C     
17   N        -1.1744   35.2455   11.9546  N     
18   C        -2.2576   34.8059   12.6087  C     
19   C        -2.6562   35.7928   13.5035  C     
20   C        -1.7647   36.8468   13.3591  C     
21   N         5.4799   40.5767   11.9492  N     
22   C         5.3801   39.8992   13.2661  C     
23   C         6.0881   40.6960   14.3842  C     
24   C         7.6511   40.6793   14.3622  C     
25   N         8.2613   42.0146   14.6778  N     
26   C         8.0093   42.4897   16.0753  C     
27   C         9.7156   42.0931   14.3446  C     
28   H         0.3026   38.7108   13.4494  H     
29   H         0.6952   35.9736   10.2831  H     
30   H         2.2133   39.8559   12.7281  H     
31   H         5.4318   39.1085    9.2820  H     
32   H         3.9244   35.3939    6.8406  H     
33   H         4.5498   41.2252   10.2004  H     
34   H         3.4943   41.1433   11.5510  H     
35   H        -0.6788   34.7113   11.3154  H     
36   H        -2.6887   33.8877   12.4959  H     
37   H        -3.4362   35.7412   14.1565  H     
38   H        -1.7955   37.7193   13.8847  H     
39   H         6.2562   40.1583   11.4330  H     
40   H         5.7261   41.5584   12.1200  H     
41   H         4.3120   39.8521   13.5782  H     
42   H         5.7807   38.8872   13.1966  H     
43   H         5.7285   41.7308   14.3280  H     
44   H         5.7504   40.2950   15.3510  H     
45   H         8.0287   39.9302   15.0650  H     
46   H         7.9803   40.3503   13.3759  H     
47   H         7.8013   42.6858   14.0603  H     
48   H         6.9452   42.4478   16.3174  H     
49   H         8.3255   43.5347   16.1694  H     
50   H         8.5613   41.8856   16.8031  H     
51   H        10.3072   41.4129   14.9690  H     
52   H        10.0832   43.1154   14.4970  H     
53   H         9.8800   41.8436   13.2911  H     
@<TRIPOS>BOND
     1    1    2 2
     2    1    4 1
     3    2    3 1
     4    2   16 1
     5    3    6 2
     6    4    5 2
     7    5    6 1
     8    5    8 1
     9    6   13 1
    10    7    8 2
    11    7   12 1
    12    8   15 1
    13    9   10 1
    14    9   13 1
    15    9   14 2
    16   10   11 1
    17   11   12 2
    18   12   13 1
    19   15   21 1
    20   16   17 1
    21   16   20 2
    22   17   18 1
    23   18   19 2
    24   19   20 1
    25   21   22 1
    26   22   23 1
    27   23   24 1
    28   24   25 1
    29   25   26 1
    30   25   27 1
    31    1   28 1
    32    3   29 1
    33    4   30 1
    34    7   31 1
    35   10   32 1
    36   15   33 1
    37   15   34 1
    38   17   35 1
    39   18   36 1
    40   19   37 1
    41   20   38 1
    42   21   39 1
    43   21   40 1
    44   22   41 1
    45   22   42 1
    46   23   43 1
    47   23   44 1
    48   24   45 1
    49   24   46 1
    50   25   47 1
    51   26   48 1
    52   26   49 1
    53   26   50 1
    54   27   51 1
    55   27   52 1
    56   27   53 1
@<TRIPOS>PROPERTY_DATA
  Total_Score	| 10.3244
  Crash		| -0.7499
  Polar		| 4.7094
  FragIndex	| 1
  FragRMSD	| 0.823

