@<TRIPOS>MOLECULE
BindingDB_50379572
 45 48 0 0 0
SMALL
NO_CHARGES


@<TRIPOS>ATOM
1    C         0.8795   38.4532   12.5828  C     
2    C         0.4310   37.2535   11.9736  C     
3    C         1.1640   36.7756   10.8634  C     
4    C         1.9913   39.1531   12.0794  C     
5    C         2.7068   38.6987   10.9405  C     
6    C         2.2906   37.4622   10.3491  C     
7    C         4.4399   38.9052    9.2887  C     
8    C         3.8047   39.4163   10.3668  C     
9    C         2.9313   35.9290    8.4877  C     
10   N         3.8462   35.9883    7.5534  N     
11   N         4.5467   37.0665    7.6803  N     
12   C         4.0325   37.7113    8.7386  C     
13   N         3.0051   37.0034    9.2508  N     
14   O         2.1589   34.9832    8.5844  O     
15   C         4.2456   40.7255   10.8614  C     
16   C        -0.7164   36.5292   12.4379  C     
17   N        -1.1472   35.3325   11.9723  N     
18   C        -2.2604   34.9402   12.6085  C     
19   C        -2.5805   35.9028   13.5481  C     
20   C        -1.6155   36.8966   13.4472  C     
21   N         5.1230   40.6155   12.0574  N     
22   C         6.5982   40.6856   11.8582  C     
23   C         7.2866   39.3652   11.3889  C     
24   C         7.8529   38.4516   12.5189  C     
25   O         7.0280   37.2977   12.6992  O     
26   H         0.3984   38.8402   13.3931  H     
27   H         0.8591   35.9200   10.4091  H     
28   H         2.2543   40.0171   12.5557  H     
29   H         5.1847   39.3752    8.8446  H     
30   H         3.9892   35.3062    6.8768  H     
31   H         4.7413   41.3058   10.0793  H     
32   H         3.3658   41.3068   11.1319  H     
33   H        -0.6982   34.7955   11.2950  H     
34   H        -2.7666   34.0670   12.4416  H     
35   H        -3.3680   35.8787   14.1965  H     
36   H        -1.5872   37.7373   14.0226  H     
37   H         4.8826   41.4039   12.6587  H     
38   H         4.8938   39.7653   12.5741  H     
39   H         6.8170   41.4725   11.1311  H     
40   H         7.0414   41.0090   12.8021  H     
41   H         6.5904   38.7792   10.7726  H     
42   H         8.1344   39.6341   10.7417  H     
43   H         8.8514   38.0939   12.2306  H     
44   H         7.9376   38.9853   13.4725  H     
45   H         6.8745   37.2272   13.6662  H     
@<TRIPOS>BOND
     1    1    2 2
     2    1    4 1
     3    2    3 1
     4    2   16 1
     5    3    6 2
     6    4    5 2
     7    5    6 1
     8    5    8 1
     9    6   13 1
    10    7    8 2
    11    7   12 1
    12    8   15 1
    13    9   10 1
    14    9   13 1
    15    9   14 2
    16   10   11 1
    17   11   12 2
    18   12   13 1
    19   15   21 1
    20   16   17 1
    21   16   20 2
    22   17   18 1
    23   18   19 2
    24   19   20 1
    25   21   22 1
    26   22   23 1
    27   23   24 1
    28   24   25 1
    29    1   26 1
    30    3   27 1
    31    4   28 1
    32    7   29 1
    33   10   30 1
    34   15   31 1
    35   15   32 1
    36   17   33 1
    37   18   34 1
    38   19   35 1
    39   20   36 1
    40   21   37 1
    41   21   38 1
    42   22   39 1
    43   22   40 1
    44   23   41 1
    45   23   42 1
    46   24   43 1
    47   24   44 1
    48   25   45 1
@<TRIPOS>PROPERTY_DATA
  Total_Score	| 9.1507
  Crash		| -1.3161
  Polar		| 3.9232
  FragIndex	| 1
  FragRMSD	| 0.571

