@<TRIPOS>MOLECULE
BindingDB_50379585
 39 43 0 0 0
SMALL
NO_CHARGES


@<TRIPOS>ATOM
1    C         0.6558   38.3439   12.5646  C     
2    C         0.2312   37.1669   11.9116  C     
3    C         0.9904   36.7194   10.8075  C     
4    C         1.8032   39.0342   12.1418  C     
5    C         2.5885   38.5784   11.0521  C     
6    C         2.1482   37.4026   10.3628  C     
7    C         4.4836   38.7202    9.5761  C     
8    C         3.7883   39.2305   10.6209  C     
9    C         2.7443   36.0015    8.3903  C     
10   N         3.7446   36.0374    7.5420  N     
11   N         4.5429   37.0115    7.8284  N     
12   C         4.0204   37.6078    8.9093  C     
13   N         2.8897   36.9732    9.2731  N     
14   O         1.8481   35.1785    8.3027  O     
15   C         4.2761   40.4818   11.2305  C     
16   C        -0.9142   36.4364   12.3438  C     
17   N        -1.2194   35.1734   11.9728  N     
18   C        -2.3485   34.7629   12.5685  C     
19   C        -2.8174   35.7968   13.3643  C     
20   C        -1.9209   36.8457   13.2246  C     
21   N         4.6030   40.4616   12.6361  N     
22   C         4.4274   39.4980   13.5695  C     
23   N         4.8048   39.9344   14.7843  N     
24   C         5.2820   41.1728   14.6189  C     
25   C         5.1561   41.5059   13.2797  C     
26   H         0.1453   38.7088   13.3714  H     
27   H         0.6890   35.8778   10.3189  H     
28   H         2.0581   39.8744   12.6604  H     
29   H         5.3203   39.1426    9.2447  H     
30   H         3.8592   35.4217    6.7997  H     
31   H         5.1652   40.8602   10.7127  H     
32   H         3.5045   41.2383   11.0656  H     
33   H        -0.6858   34.6150   11.3859  H     
34   H        -2.7782   33.8433   12.4587  H     
35   H        -3.6586   35.7864   13.9433  H     
36   H        -2.0050   37.7510   13.6891  H     
37   H         4.0262   38.5738   13.4059  H     
38   H         5.6550   41.7719   15.3567  H     
39   H         5.4288   42.3965   12.8657  H     
@<TRIPOS>BOND
     1    1    2 2
     2    1    4 1
     3    2    3 1
     4    2   16 1
     5    3    6 2
     6    4    5 2
     7    5    6 1
     8    5    8 1
     9    6   13 1
    10    7    8 2
    11    7   12 1
    12    8   15 1
    13    9   10 1
    14    9   13 1
    15    9   14 2
    16   10   11 1
    17   11   12 2
    18   12   13 1
    19   15   21 1
    20   16   17 1
    21   16   20 2
    22   17   18 1
    23   18   19 2
    24   19   20 1
    25   21   22 1
    26   21   25 1
    27   22   23 2
    28   23   24 1
    29   24   25 2
    30    1   26 1
    31    3   27 1
    32    4   28 1
    33    7   29 1
    34   10   30 1
    35   15   31 1
    36   15   32 1
    37   17   33 1
    38   18   34 1
    39   19   35 1
    40   20   36 1
    41   22   37 1
    42   24   38 1
    43   25   39 1
@<TRIPOS>PROPERTY_DATA
  Total_Score	| 7.0983
  Crash		| -0.8530
  Polar		| 2.9949
  FragIndex	| 1
  FragRMSD	| 0.826

