@<TRIPOS>MOLECULE
BindingDB_50325171
 33 36 0 0 0
SMALL
NO_CHARGES


@<TRIPOS>ATOM
1    C         0.8828   38.3996   12.6347  C     
2    C         0.3100   37.2895   11.9458  C     
3    C         0.9883   36.9290   10.7429  C     
4    C         1.9945   39.1078   12.1473  C     
5    C         2.6632   38.7138   10.9662  C     
6    C         2.1633   37.5609   10.2839  C     
7    C         4.5022   38.8343    9.4220  C     
8    C         3.8126   39.3802   10.4493  C     
9    C         4.0346   37.6903    8.8085  C     
10   N         2.8885   37.0860    9.1953  N     
11   C         2.7606   36.0571    8.3748  C     
12   N         3.7814   36.0417    7.5454  N     
13   N         4.5790   37.0272    7.7803  N     
14   O         1.8877   35.2000    8.3514  O     
15   C         4.2495   40.6804   10.9615  C     
16   C        -0.8507   36.5432   12.4495  C     
17   C        -1.5135   36.8841   13.6685  C     
18   C        -2.5707   36.1107   14.1782  C     
19   N        -3.0135   35.0291   13.4977  N     
20   C        -2.4605   34.6618   12.3220  C     
21   C        -1.3938   35.3995   11.7825  C     
22   H         0.5229   38.7321   13.5263  H     
23   H         0.6312   36.1845   10.1630  H     
24   H         2.3343   39.9039   12.6948  H     
25   H         5.3296   39.2458    9.0677  H     
26   H         3.9215   35.3641    6.8677  H     
27   H         3.4292   41.3993   10.8695  H     
28   H         5.1070   41.0979   10.4179  H     
29   H         4.5369   40.5902   12.0127  H     
30   H        -1.2611   37.6997   14.2188  H     
31   H        -3.0196   36.3617   15.0612  H     
32   H        -2.8267   33.8404   11.8309  H     
33   H        -1.0322   35.0469   10.9013  H     
@<TRIPOS>BOND
     1    1    2 2
     2    1    4 1
     3    2    3 1
     4    2   16 1
     5    3    6 2
     6    4    5 2
     7    5    6 1
     8    5    8 1
     9    6   10 1
    10    7    8 2
    11    7    9 1
    12    8   15 1
    13    9   10 1
    14    9   13 2
    15   10   11 1
    16   11   12 1
    17   11   14 2
    18   12   13 1
    19   16   17 2
    20   16   21 1
    21   17   18 1
    22   18   19 2
    23   19   20 1
    24   20   21 2
    25    1   22 1
    26    3   23 1
    27    4   24 1
    28    7   25 1
    29   12   26 1
    30   15   27 1
    31   15   28 1
    32   15   29 1
    33   17   30 1
    34   18   31 1
    35   20   32 1
    36   21   33 1
@<TRIPOS>PROPERTY_DATA
  Total_Score	| 7.1519
  Crash		| -0.3749
  Polar		| 2.1774
  FragIndex	| 1
  FragRMSD	| 0.855

