@<TRIPOS>MOLECULE
BindingDB_50379573
 41 44 0 0 0
SMALL
NO_CHARGES


@<TRIPOS>ATOM
1    C         0.7740   38.3408   12.6486  C     
2    C         0.3030   37.1953   11.9739  C     
3    C         1.0128   36.7881   10.8214  C     
4    C         1.8959   39.0518   12.1863  C     
5    C         2.6206   38.6522   11.0332  C     
6    C         2.1537   37.4807   10.3461  C     
7    C         4.4080   38.8582    9.4273  C     
8    C         3.7898   39.3294   10.5422  C     
9    C         2.7505   36.0197    8.4238  C     
10   N         3.7297   36.0371    7.5546  N     
11   N         4.4889   37.0656    7.7587  N     
12   C         3.9563   37.7125    8.8064  C     
13   N         2.8690   37.0486    9.2398  N     
14   O         1.9136   35.1292    8.4320  O     
15   C         4.3993   40.5223   11.1661  C     
16   C        -0.8261   36.4500   12.4420  C     
17   N        -1.2898   35.3082   11.8837  N     
18   C        -2.3358   34.8283   12.5683  C     
19   C        -2.5812   35.6792   13.6326  C     
20   C        -1.6384   36.6930   13.5575  C     
21   N         5.7767   40.3563   11.7504  N     
22   C         6.0034   39.0451   12.4223  C     
23   C         6.8894   40.7028   10.8200  C     
24   H         0.3124   38.6820   13.4908  H     
25   H         0.6956   35.9538   10.3281  H     
26   H         2.1661   39.8646   12.7344  H     
27   H         5.2049   39.3147    9.0446  H     
28   H         3.8870   35.3413    6.8932  H     
29   H         4.3953   41.3268   10.4218  H     
30   H         3.7827   40.9243   11.9596  H     
31   H        -0.9029   34.8681   11.1108  H     
32   H        -2.8485   33.9705   12.3516  H     
33   H        -3.3083   35.5696   14.3438  H     
34   H        -1.5633   37.4651   14.2225  H     
35   H         5.8368   41.0470   12.5014  H     
36   H         5.2247   38.8550   13.1616  H     
37   H         6.9639   39.0497   12.9548  H     
38   H         6.0156   38.2277   11.7025  H     
39   H         6.9305   40.0035    9.9749  H     
40   H         7.8464   40.6873   11.3506  H     
41   H         6.7543   41.7152   10.4341  H     
@<TRIPOS>BOND
     1    1    2 2
     2    1    4 1
     3    2    3 1
     4    2   16 1
     5    3    6 2
     6    4    5 2
     7    5    6 1
     8    5    8 1
     9    6   13 1
    10    7    8 2
    11    7   12 1
    12    8   15 1
    13    9   10 1
    14    9   13 1
    15    9   14 2
    16   10   11 1
    17   11   12 2
    18   12   13 1
    19   15   21 1
    20   16   17 1
    21   16   20 2
    22   17   18 1
    23   18   19 2
    24   19   20 1
    25   21   22 1
    26   21   23 1
    27    1   24 1
    28    3   25 1
    29    4   26 1
    30    7   27 1
    31   10   28 1
    32   15   29 1
    33   15   30 1
    34   17   31 1
    35   18   32 1
    36   19   33 1
    37   20   34 1
    38   21   35 1
    39   22   36 1
    40   22   37 1
    41   22   38 1
    42   23   39 1
    43   23   40 1
    44   23   41 1
@<TRIPOS>PROPERTY_DATA
  Total_Score	| 7.3862
  Crash		| -0.6717
  Polar		| 2.3755
  FragIndex	| 1
  FragRMSD	| 0.781

