@<TRIPOS>MOLECULE
BindingDB_16476
 39 42 0 0 0
SMALL
NO_CHARGES


@<TRIPOS>ATOM
1    C        19.0433   -6.7485   15.5107  C     
2    C        18.5091   -6.1760   16.6635  C     
3    N        17.8561   -7.1116   17.3891  N     
4    C        18.6914   -8.0946   15.5602  C     
5    C        17.6973  -10.6389   16.1498  C     
6    C        17.4707   -9.5772   17.0486  C     
7    C        17.9718   -8.2959   16.7435  C     
8    C        18.9159   -9.1433   14.6500  C     
9    C        18.4136  -10.4354   14.9440  C     
10   C        17.1356   -6.8229   18.5996  C     
11   C        15.9708   -5.9346   18.3993  C     
12   O        15.5680   -5.5197   17.1750  O     
13   O        15.2285   -5.5566   19.4630  O     
14   C        19.6546   -6.0100   14.3844  C     
15   C        18.6553   -5.4958   13.4249  C     
16   N        18.9488   -4.6079   12.4470  N     
17   S        16.9577   -5.8154   13.3689  S     
18   C        16.6505   -4.7411   12.0682  C     
19   C        17.8898   -4.1834   11.7088  C     
20   C        15.4559   -4.3806   11.4238  C     
21   C        15.5203   -3.4328   10.3811  C     
22   C        16.7577   -2.8654    9.9983  C     
23   C        17.9483   -3.2433   10.6601  C     
24   F        19.0969   -2.7186   10.3214  F     
25   F        16.7799   -1.9842    9.0335  F     
26   F        14.3105   -4.8927   11.7871  F     
27   C        18.6278  -11.5746   14.0250  C     
28   H        18.5555   -5.1776   16.8865  H     
29   H        17.3263  -11.5648   16.3783  H     
30   H        16.9449   -9.7451   17.9072  H     
31   H        19.4327   -8.9627   13.7865  H     
32   H        16.7697   -7.7370   19.0683  H     
33   H        17.8224   -6.3546   19.3070  H     
34   H        20.2172   -5.1612   14.7813  H     
35   H        20.3646   -6.6503   13.8580  H     
36   H        14.6638   -3.1518    9.8963  H     
37   H        19.1855  -12.3591   14.5401  H     
38   H        19.1915  -11.2806   13.1379  H     
39   H        17.6649  -11.9760   13.6999  H     
@<TRIPOS>BOND
     1    1    2 2
     2    1    4 1
     3    1   14 1
     4    2    3 1
     5    3    7 1
     6    3   10 1
     7    4    7 2
     8    4    8 1
     9    5    6 2
    10    5    9 1
    11    6    7 1
    12    8    9 2
    13    9   27 1
    14   10   11 1
    15   11   12 1
    16   11   13 2
    17   14   15 1
    18   15   16 2
    19   15   17 1
    20   16   19 1
    21   17   18 1
    22   18   19 2
    23   18   20 1
    24   19   23 1
    25   20   21 2
    26   20   26 1
    27   21   22 1
    28   22   23 2
    29   22   25 1
    30   23   24 1
    31    2   28 1
    32    5   29 1
    33    6   30 1
    34    8   31 1
    35   10   32 1
    36   10   33 1
    37   14   34 1
    38   14   35 1
    39   21   36 1
    40   27   37 1
    41   27   38 1
    42   27   39 1
@<TRIPOS>PROPERTY_DATA
  Total_Score	| 11.4356
  Crash		| -0.7011
  Polar		| 5.1071
  FragIndex	| 1
  FragRMSD	| 0.078

