@<TRIPOS>MOLECULE
BindingDB_16474
 36 39 0 0 0
SMALL
NO_CHARGES


@<TRIPOS>ATOM
1    C        19.0052   -6.7559   15.4888  C     
2    C        18.4624   -6.1941   16.6419  C     
3    N        17.8353   -7.1428   17.3752  N     
4    C        18.6946   -8.1075   15.5446  C     
5    C        17.8060  -10.6874   16.1652  C     
6    C        17.5368   -9.6263   17.0528  C     
7    C        17.9917   -8.3281   16.7362  C     
8    C        18.9508   -9.1558   14.6418  C     
9    C        18.4999  -10.4522   14.9566  C     
10   C        17.1062   -6.8757   18.5875  C     
11   C        15.9543   -5.9668   18.3992  C     
12   O        15.5454   -5.5549   17.1753  O     
13   O        15.2295   -5.5843   19.4690  O     
14   C        19.6178   -5.9977   14.3752  C     
15   C        18.6329   -5.4902   13.3994  C     
16   N        18.9360   -4.6098   12.4133  N     
17   S        16.9359   -5.7999   13.3312  S     
18   C        16.6394   -4.7280   12.0274  C     
19   C        17.8855   -4.1848   11.6672  C     
20   C        15.4505   -4.3581   11.3812  C     
21   C        15.5223   -3.4069   10.3404  C     
22   C        16.7634   -2.8513    9.9636  C     
23   C        17.9549   -3.2496   10.6137  C     
24   F        19.1110   -2.7525   10.2660  F     
25   F        16.7979   -1.9490    9.0189  F     
26   F        14.3070   -4.8680   11.7433  F     
27   F        18.7331  -11.4388   14.1384  F     
28   H        18.4991   -5.1968   16.8644  H     
29   H        17.4844  -11.6325   16.3964  H     
30   H        17.0300   -9.8076   17.9177  H     
31   H        19.4629   -8.9825   13.7726  H     
32   H        16.7214   -7.7962   19.0287  H     
33   H        17.7878   -6.4313   19.3163  H     
34   H        20.1596   -5.1457   14.7865  H     
35   H        20.3493   -6.6212   13.8600  H     
36   H        14.6669   -3.1199    9.8591  H     
@<TRIPOS>BOND
     1    1    2 2
     2    1    4 1
     3    1   14 1
     4    2    3 1
     5    3    7 1
     6    3   10 1
     7    4    7 2
     8    4    8 1
     9    5    6 2
    10    5    9 1
    11    6    7 1
    12    8    9 2
    13    9   27 1
    14   10   11 1
    15   11   12 1
    16   11   13 2
    17   14   15 1
    18   15   16 2
    19   15   17 1
    20   16   19 1
    21   17   18 1
    22   18   19 2
    23   18   20 1
    24   19   23 1
    25   20   21 2
    26   20   26 1
    27   21   22 1
    28   22   23 2
    29   22   25 1
    30   23   24 1
    31    2   28 1
    32    5   29 1
    33    6   30 1
    34    8   31 1
    35   10   32 1
    36   10   33 1
    37   14   34 1
    38   14   35 1
    39   21   36 1
@<TRIPOS>PROPERTY_DATA
  Total_Score	| 10.9997
  Crash		| -0.7424
  Polar		| 5.1343
  FragIndex	| 1
  FragRMSD	| 0.060

