@<TRIPOS>MOLECULE
BindingDB_16488
 36 39 0 0 0
SMALL
NO_CHARGES


@<TRIPOS>ATOM
1    C        19.0371   -6.7425   15.4904  C     
2    C        18.4764   -6.2125   16.6481  C     
3    N        17.8290   -7.1781   17.3429  N     
4    C        18.7098   -8.0944   15.5022  C     
5    C        17.7627  -10.6824   15.9641  C     
6    C        17.4803   -9.6598   16.8953  C     
7    C        17.9653   -8.3495   16.6643  C     
8    C        18.9868   -9.1036   14.5615  C     
9    C        18.5100  -10.4047   14.8021  C     
10   C        17.1086   -6.8938   18.5584  C     
11   C        15.9659   -5.9742   18.3661  C     
12   O        15.2359   -5.5811   19.4308  O     
13   O        15.5856   -5.5222   17.1485  O     
14   C        19.6408   -5.9554   14.3923  C     
15   C        18.6433   -5.4594   13.4201  C     
16   N        18.9384   -4.5874   12.4275  N     
17   S        16.9502   -5.7893   13.3531  S     
18   C        16.6444   -4.7310   12.0401  C     
19   C        17.8805   -4.1731   11.6821  C     
20   C        15.4497   -4.3894   11.3859  C     
21   C        15.5142   -3.4529   10.3347  C     
22   C        16.7515   -2.8760    9.9567  C     
23   C        17.9407   -3.2331   10.6315  C     
24   F        19.0852   -2.6978   10.3006  F     
25   F        16.7794   -2.0094    8.9807  F     
26   F        14.3128   -4.9050   11.7561  F     
27   F        16.7536   -9.9580   17.9329  F     
28   H        18.5022   -5.2196   16.8993  H     
29   H        17.4151  -11.6321   16.1229  H     
30   H        19.5249   -8.9009   13.7175  H     
31   H        18.7014  -11.1496   14.1282  H     
32   H        16.7225   -7.8012   19.0168  H     
33   H        17.7997   -6.4511   19.2824  H     
34   H        20.1558   -5.0925   14.8199  H     
35   H        20.3902   -6.5534   13.8708  H     
36   H        14.6591   -3.1851    9.8430  H     
@<TRIPOS>BOND
     1    1    2 2
     2    1    4 1
     3    1   14 1
     4    2    3 1
     5    3    7 1
     6    3   10 1
     7    4    7 2
     8    4    8 1
     9    5    6 2
    10    5    9 1
    11    6    7 1
    12    6   27 1
    13    8    9 2
    14   10   11 1
    15   11   12 1
    16   11   13 2
    17   14   15 1
    18   15   16 2
    19   15   17 1
    20   16   19 1
    21   17   18 1
    22   18   19 2
    23   18   20 1
    24   19   23 1
    25   20   21 2
    26   20   26 1
    27   21   22 1
    28   22   23 2
    29   22   25 1
    30   23   24 1
    31    2   28 1
    32    5   29 1
    33    8   30 1
    34    9   31 1
    35   10   32 1
    36   10   33 1
    37   14   34 1
    38   14   35 1
    39   21   36 1
@<TRIPOS>PROPERTY_DATA
  Total_Score	| 11.0527
  Crash		| -0.7818
  Polar		| 5.1192
  FragIndex	| 1
  FragRMSD	| 0.648

