@<TRIPOS>MOLECULE
BindingDB_16482
 36 39 0 0 0
SMALL
NO_CHARGES


@<TRIPOS>ATOM
1    C        19.0712   -6.7373   15.5526  C     
2    C        18.5370   -6.2149   16.7402  C     
3    N        17.9034   -7.1827   17.4323  N     
4    C        18.7466   -8.0837   15.5541  C     
5    C        17.7810  -10.6642   16.0469  C     
6    C        17.6061   -9.6494   17.0200  C     
7    C        18.0635   -8.3408   16.7520  C     
8    C        18.9355   -9.0906   14.5828  C     
9    C        18.4315  -10.3695   14.8279  C     
10   C        17.0657   -6.9722   18.5923  C     
11   C        15.9143   -6.0674   18.3784  C     
12   O        15.6327   -5.6679   17.1121  O     
13   O        15.2188   -5.5714   19.4456  O     
14   C        19.6548   -5.9567   14.4257  C     
15   C        18.6625   -5.5224   13.4190  C     
16   N        18.9399   -4.6754   12.3983  N     
17   S        16.9595   -5.8242   13.3985  S     
18   C        16.6359   -4.7872   12.0714  C     
19   C        17.8841   -4.2711   11.6643  C     
20   C        15.4302   -4.3942   11.4909  C     
21   C        15.4668   -3.4286   10.4534  C     
22   C        16.7079   -2.9139   10.0180  C     
23   C        17.9119   -3.3526   10.5842  C     
24   F        19.0646   -2.8771   10.1750  F     
25   F        16.7097   -2.0160    9.0590  F     
26   F        14.2894   -4.8668   11.9201  F     
27   F        17.3187  -11.8670   16.2676  F     
28   H        18.4857   -5.2086   16.9898  H     
29   H        17.1307   -9.8636   17.8971  H     
30   H        19.3982   -8.8738   13.7022  H     
31   H        18.5498  -11.1027   14.1220  H     
32   H        16.6388   -7.9220   18.9081  H     
33   H        17.6917   -6.6062   19.4078  H     
34   H        20.1486   -5.0560   14.8266  H     
35   H        20.4250   -6.5620   13.9436  H     
36   H        14.6002   -3.0981   10.0359  H     
@<TRIPOS>BOND
     1    1    2 2
     2    1    4 1
     3    1   14 1
     4    2    3 1
     5    3    7 1
     6    3   10 1
     7    4    7 2
     8    4    8 1
     9    5    6 2
    10    5    9 1
    11    5   27 1
    12    6    7 1
    13    8    9 2
    14   10   11 1
    15   11   12 1
    16   11   13 2
    17   14   15 1
    18   15   16 2
    19   15   17 1
    20   16   19 1
    21   17   18 1
    22   18   19 2
    23   18   20 1
    24   19   23 1
    25   20   21 2
    26   20   26 1
    27   21   22 1
    28   22   23 2
    29   22   25 1
    30   23   24 1
    31    2   28 1
    32    6   29 1
    33    8   30 1
    34    9   31 1
    35   10   32 1
    36   10   33 1
    37   14   34 1
    38   14   35 1
    39   21   36 1
@<TRIPOS>PROPERTY_DATA
  Total_Score	| 11.0358
  Crash		| -0.7989
  Polar		| 5.0685
  FragIndex	| 1
  FragRMSD	| 0.132

