@<TRIPOS>MOLECULE
BindingDB_16472
 36 39 0 0 0
SMALL
NO_CHARGES


@<TRIPOS>ATOM
1    C        18.9808   -6.9190   15.6893  C     
2    C        18.5269   -6.1286   16.7454  C     
3    N        17.8325   -6.8801   17.6150  N     
4    C        18.5194   -8.2188   15.9526  C     
5    C        17.2387  -10.5022   17.0351  C     
6    C        17.1227   -9.2639   17.6868  C     
7    C        17.7854   -8.1426   17.1477  C     
8    C        18.6381   -9.4750   15.3068  C     
9    C        18.0007  -10.6120   15.8555  C     
10   C        17.2157   -6.3690   18.7965  C     
11   C        15.9270   -5.6956   18.5256  C     
12   O        15.5074   -5.3701   17.2682  O     
13   O        15.1561   -5.3407   19.5689  O     
14   C        19.6465   -6.3095   14.5130  C     
15   C        18.6774   -5.7599   13.5339  C     
16   N        19.0072   -4.9180   12.5277  N     
17   S        16.9577   -5.9419   13.5143  S     
18   C        16.7063   -4.8867   12.1926  C     
19   C        17.9706   -4.4201   11.8006  C     
20   C        15.5249   -4.4744   11.5532  C     
21   C        15.6311   -3.5616   10.4785  C     
22   C        16.8965   -3.0782   10.0732  C     
23   C        18.0721   -3.5042   10.7302  C     
24   F        19.2423   -3.0593   10.3632  F     
25   F        16.9630   -2.2264    9.0818  F     
26   F        14.3628   -4.9219   11.9412  F     
27   Cl       19.5542   -9.6814   13.8945  Cl    
28   H        18.6624   -5.1245   16.8195  H     
29   H        16.7723  -11.3284   17.4247  H     
30   H        16.5584   -9.1825   18.5301  H     
31   H        18.0913  -11.5236   15.3991  H     
32   H        17.0561   -7.1656   19.5263  H     
33   H        17.8683   -5.6424   19.2886  H     
34   H        20.2622   -5.4686   14.8599  H     
35   H        20.3162   -7.0187   14.0294  H     
36   H        14.7851   -3.2578    9.9893  H     
@<TRIPOS>BOND
     1    1    2 2
     2    1    4 1
     3    1   14 1
     4    2    3 1
     5    3    7 1
     6    3   10 1
     7    4    7 2
     8    4    8 1
     9    5    6 2
    10    5    9 1
    11    6    7 1
    12    8    9 2
    13    8   27 1
    14   10   11 1
    15   11   12 1
    16   11   13 2
    17   14   15 1
    18   15   16 2
    19   15   17 1
    20   16   19 1
    21   17   18 1
    22   18   19 2
    23   18   20 1
    24   19   23 1
    25   20   21 2
    26   20   26 1
    27   21   22 1
    28   22   23 2
    29   22   25 1
    30   23   24 1
    31    2   28 1
    32    5   29 1
    33    6   30 1
    34    9   31 1
    35   10   32 1
    36   10   33 1
    37   14   34 1
    38   14   35 1
    39   21   36 1
@<TRIPOS>PROPERTY_DATA
  Total_Score	| 9.4110
  Crash		| -2.1023
  Polar		| 5.1610
  FragIndex	| 1
  FragRMSD	| 0.488

