@<TRIPOS>MOLECULE
BindingDB_16489
 36 39 0 0 0
SMALL
NO_CHARGES


@<TRIPOS>ATOM
1    C        18.9837   -6.8539   15.5106  C     
2    C        18.4183   -6.3468   16.6716  C     
3    N        17.7442   -7.3205   17.3346  N     
4    C        18.6369   -8.1972   15.4911  C     
5    C        17.6182  -10.7706   15.7816  C     
6    C        17.3099   -9.7932   16.7524  C     
7    C        17.8472   -8.4798   16.6196  C     
8    C        18.9427   -9.1630   14.5238  C     
9    C        18.4433  -10.4630   14.6819  C     
10   C        17.0565   -7.0028   18.5672  C     
11   C        15.9416   -6.0483   18.3502  C     
12   O        15.5469   -5.5994   17.1280  O     
13   O        15.2774   -5.5598   19.4264  O     
14   C        19.5935   -6.0314   14.4417  C     
15   C        18.6254   -5.5220   13.4462  C     
16   N        18.9769   -4.6317   12.4905  N     
17   S        16.9253   -5.8143   13.2858  S     
18   C        16.6998   -4.7198   11.9930  C     
19   C        17.9624   -4.1741   11.7132  C     
20   C        15.5489   -4.3328   11.2833  C     
21   C        15.6876   -3.3528   10.2777  C     
22   C        16.9486   -2.7905    9.9843  C     
23   C        18.0941   -3.1968   10.7062  C     
24   F        19.2613   -2.6593   10.4681  F     
25   F        17.0420   -1.8767    9.0621  F     
26   F        14.3775   -4.8351   11.5690  F     
27   Cl       16.2465  -10.3018   17.9714  Cl    
28   H        18.4562   -5.3578   16.9543  H     
29   H        17.2387  -11.7154   15.8642  H     
30   H        19.5253   -8.9239   13.7254  H     
31   H        18.6565  -11.1756   13.9770  H     
32   H        16.6524   -7.8546   19.0548  H     
33   H        17.7712   -6.5613   19.2680  H     
34   H        20.0740   -5.1599   14.8960  H     
35   H        20.3737   -6.5927   13.9307  H     
36   H        14.8589   -3.0414    9.7539  H     
@<TRIPOS>BOND
     1    1    2 2
     2    1    4 1
     3    1   14 1
     4    2    3 1
     5    3    7 1
     6    3   10 1
     7    4    7 2
     8    4    8 1
     9    5    6 2
    10    5    9 1
    11    6    7 1
    12    6   27 1
    13    8    9 2
    14   10   11 1
    15   11   12 1
    16   11   13 2
    17   14   15 1
    18   15   16 2
    19   15   17 1
    20   16   19 1
    21   17   18 1
    22   18   19 2
    23   18   20 1
    24   19   23 1
    25   20   21 2
    26   20   26 1
    27   21   22 1
    28   22   23 2
    29   22   25 1
    30   23   24 1
    31    2   28 1
    32    5   29 1
    33    8   30 1
    34    9   31 1
    35   10   32 1
    36   10   33 1
    37   14   34 1
    38   14   35 1
    39   21   36 1
@<TRIPOS>PROPERTY_DATA
  Total_Score	| 10.8570
  Crash		| -0.8315
  Polar		| 5.0171
  FragIndex	| 1
  FragRMSD	| 0.200

