@<TRIPOS>MOLECULE
BindingDB_16473
 36 39 0 0 0
SMALL
NO_CHARGES


@<TRIPOS>ATOM
1    C        19.0454   -6.7474   15.5018  C     
2    C        18.5509   -6.2115   16.6877  C     
3    N        17.8995   -7.1573   17.4047  N     
4    C        18.7495   -8.1056   15.5583  C     
5    C        17.7801  -10.6706   16.1032  C     
6    C        17.5647   -9.6289   17.0349  C     
7    C        18.0419   -8.3349   16.7443  C     
8    C        18.9601   -9.1305   14.6165  C     
9    C        18.4621  -10.4204   14.8904  C     
10   C        17.1498   -6.8730   18.5994  C     
11   C        16.0102   -5.9557   18.3568  C     
12   O        15.1998   -5.6127   19.3895  O     
13   O        15.6681   -5.5184   17.1111  O     
14   C        19.6455   -5.9834   14.3928  C     
15   C        18.6436   -5.5480   13.4048  C     
16   N        18.9335   -4.6847   12.3992  N     
17   S        16.9368   -5.8156   13.4071  S     
18   C        16.6265   -4.7830   12.0657  C     
19   C        17.8772   -4.2617   11.6671  C     
20   C        15.4335   -4.3982   11.4226  C     
21   C        15.4956   -3.4411   10.3767  C     
22   C        16.7490   -2.9129    9.9732  C     
23   C        17.9493   -3.3326   10.5977  C     
24   F        19.1135   -2.8293   10.2470  F     
25   F        16.7797   -1.9954    9.0337  F     
26   F        14.2856   -4.8913   11.8046  F     
27   Cl       18.6560  -11.6573   13.7533  Cl    
28   H        18.5689   -5.2133   16.9120  H     
29   H        17.3977  -11.6034   16.2995  H     
30   H        17.0598   -9.8210   17.9034  H     
31   H        19.4576   -8.9377   13.7419  H     
32   H        16.7530   -7.7862   19.0413  H     
33   H        17.8240   -6.4294   19.3402  H     
34   H        20.1113   -5.0820   14.7888  H     
35   H        20.4253   -6.5726   13.9117  H     
36   H        14.6320   -3.1110    9.9231  H     
@<TRIPOS>BOND
     1    1    2 2
     2    1    4 1
     3    1   14 1
     4    2    3 1
     5    3    7 1
     6    3   10 1
     7    4    7 2
     8    4    8 1
     9    5    6 2
    10    5    9 1
    11    6    7 1
    12    8    9 2
    13    9   27 1
    14   10   11 1
    15   11   12 1
    16   11   13 2
    17   14   15 1
    18   15   16 2
    19   15   17 1
    20   16   19 1
    21   17   18 1
    22   18   19 2
    23   18   20 1
    24   19   23 1
    25   20   21 2
    26   20   26 1
    27   21   22 1
    28   22   23 2
    29   22   25 1
    30   23   24 1
    31    2   28 1
    32    5   29 1
    33    6   30 1
    34    8   31 1
    35   10   32 1
    36   10   33 1
    37   14   34 1
    38   14   35 1
    39   21   36 1
@<TRIPOS>PROPERTY_DATA
  Total_Score	| 11.1944
  Crash		| -0.7990
  Polar		| 5.1598
  FragIndex	| 1
  FragRMSD	| 0.651

