@<TRIPOS>MOLECULE
BindingDB_16475
 36 39 0 0 0
SMALL
NO_CHARGES


@<TRIPOS>ATOM
1    C        19.0121   -6.7271   15.5052  C     
2    C        18.5006   -6.1913   16.6978  C     
3    N        17.8281   -7.1410   17.3885  N     
4    C        18.7118   -8.0835   15.5604  C     
5    C        17.8529  -10.6828   16.1573  C     
6    C        17.5654   -9.6291   17.0414  C     
7    C        17.9915   -8.3210   16.7374  C     
8    C        18.9966   -9.1265   14.6568  C     
9    C        18.5565  -10.4253   14.9634  C     
10   C        17.0560   -6.9087   18.5755  C     
11   C        15.9297   -5.9675   18.4133  C     
12   O        15.4520   -5.5629   17.2036  O     
13   O        15.2681   -5.5428   19.5295  O     
14   C        19.5898   -5.9843   14.3572  C     
15   C        18.5780   -5.5322   13.3750  C     
16   N        18.8940   -4.6371   12.4155  N     
17   S        16.8765   -5.8227   13.2738  S     
18   C        16.6003   -4.7179   11.9812  C     
19   C        17.8690   -4.1659   11.6783  C     
20   C        15.4243   -4.3043   11.2939  C     
21   C        15.5609   -3.3236   10.2906  C     
22   C        16.8163   -2.7454   10.0098  C     
23   C        17.9669   -3.1637   10.7070  C     
24   F        19.1220   -2.5810   10.4876  F     
25   F        16.8982   -1.8110    9.1051  F     
26   F        14.2517   -4.7803   11.6092  F     
27   Br       18.9037  -11.8095   13.7765  Br    
28   H        18.5859   -5.2157   16.9809  H     
29   H        17.5260  -11.6306   16.3734  H     
30   H        17.0666   -9.8322   17.9069  H     
31   H        19.5223   -8.9434   13.7971  H     
32   H        16.6589   -7.8516   18.9616  H     
33   H        17.7198   -6.5166   19.3665  H     
34   H        20.0951   -5.0916   14.7344  H     
35   H        20.3492   -6.5946   13.8592  H     
36   H        14.7302   -2.9921    9.7905  H     
@<TRIPOS>BOND
     1    1    2 2
     2    1    4 1
     3    1   14 1
     4    2    3 1
     5    3    7 1
     6    3   10 1
     7    4    7 2
     8    4    8 1
     9    5    6 2
    10    5    9 1
    11    6    7 1
    12    8    9 2
    13    9   27 1
    14   10   11 1
    15   11   12 1
    16   11   13 2
    17   14   15 1
    18   15   16 2
    19   15   17 1
    20   16   19 1
    21   17   18 1
    22   18   19 2
    23   18   20 1
    24   19   23 1
    25   20   21 2
    26   20   26 1
    27   21   22 1
    28   22   23 2
    29   22   25 1
    30   23   24 1
    31    2   28 1
    32    5   29 1
    33    6   30 1
    34    8   31 1
    35   10   32 1
    36   10   33 1
    37   14   34 1
    38   14   35 1
    39   21   36 1
@<TRIPOS>PROPERTY_DATA
  Total_Score	| 11.4276
  Crash		| -0.6204
  Polar		| 5.1272
  FragIndex	| 1
  FragRMSD	| 0.099

