@<TRIPOS>MOLECULE
BindingDB_16491
 39 42 0 0 0
SMALL
NO_CHARGES


@<TRIPOS>ATOM
1    C        19.1595   -6.8117   15.5924  C     
2    C        18.6971   -6.2743   16.7828  C     
3    N        17.8897   -7.1599   17.4296  N     
4    C        18.6433   -8.0997   15.5513  C     
5    C        17.2815  -10.5124   15.6968  C     
6    C        17.0951   -9.5589   16.7359  C     
7    C        17.8124   -8.3115   16.6750  C     
8    C        18.8329   -9.0573   14.5413  C     
9    C        18.1458  -10.2751   14.6114  C     
10   C        17.2093   -6.7196   18.6373  C     
11   C        15.8710   -6.1595   18.3408  C     
12   O        15.2068   -5.5843   19.3734  O     
13   O        15.6107   -5.5966   17.1321  O     
14   C        19.7585   -6.0300   14.4805  C     
15   C        18.7721   -5.5442   13.4810  C     
16   N        19.0720   -4.6376   12.5150  N     
17   S        17.0830   -5.8812   13.3595  S     
18   C        16.7890   -4.7939   12.0685  C     
19   C        18.0279   -4.2138   11.7556  C     
20   C        15.6030   -4.4444   11.4065  C     
21   C        15.6669   -3.4559   10.4048  C     
22   C        16.8970   -2.8482   10.0782  C     
23   C        18.0850   -3.2356   10.7381  C     
24   F        19.2252   -2.6716   10.4447  F     
25   F        16.9179   -1.9118    9.1749  F     
26   F        14.4655   -4.9989   11.7327  F     
27   C        16.1026   -9.9580   17.7777  C     
28   H        18.8552   -5.3087   17.0722  H     
29   H        16.7740  -11.4057   15.7109  H     
30   H        19.4517   -8.8624   13.7555  H     
31   H        18.2622  -10.9789   13.8861  H     
32   H        17.1334   -7.5158   19.3790  H     
33   H        17.7971   -5.9373   19.1389  H     
34   H        20.2589   -5.1541   14.8971  H     
35   H        20.5243   -6.6378   13.9958  H     
36   H        14.8113   -3.1756    9.9227  H     
37   H        15.0848   -9.8901   17.3517  H     
38   H        16.1551   -9.3452   18.6722  H     
39   H        16.2916  -11.0026   18.0817  H     
@<TRIPOS>BOND
     1    1    2 2
     2    1    4 1
     3    1   14 1
     4    2    3 1
     5    3    7 1
     6    3   10 1
     7    4    7 2
     8    4    8 1
     9    5    6 2
    10    5    9 1
    11    6    7 1
    12    6   27 1
    13    8    9 2
    14   10   11 1
    15   11   12 1
    16   11   13 2
    17   14   15 1
    18   15   16 2
    19   15   17 1
    20   16   19 1
    21   17   18 1
    22   18   19 2
    23   18   20 1
    24   19   23 1
    25   20   21 2
    26   20   26 1
    27   21   22 1
    28   22   23 2
    29   22   25 1
    30   23   24 1
    31    2   28 1
    32    5   29 1
    33    8   30 1
    34    9   31 1
    35   10   32 1
    36   10   33 1
    37   14   34 1
    38   14   35 1
    39   21   36 1
    40   27   37 1
    41   27   38 1
    42   27   39 1
@<TRIPOS>PROPERTY_DATA
  Total_Score	| 11.0475
  Crash		| -0.8358
  Polar		| 4.9193
  FragIndex	| 1
  FragRMSD	| 0.691

