@<TRIPOS>MOLECULE
BindingDB_16484
 39 42 0 0 0
SMALL
NO_CHARGES


@<TRIPOS>ATOM
1    C        19.0335   -6.7861   15.5182  C     
2    C        18.4842   -6.2346   16.6755  C     
3    N        17.8366   -7.1928   17.3819  N     
4    C        18.7178   -8.1394   15.5581  C     
5    C        17.8059  -10.7362   16.1276  C     
6    C        17.5268   -9.6723   17.0210  C     
7    C        17.9892   -8.3719   16.7304  C     
8    C        18.9927   -9.1719   14.6468  C     
9    C        18.5302  -10.4700   14.9342  C     
10   C        17.0829   -6.9263   18.5792  C     
11   C        15.9344   -6.0216   18.3650  C     
12   O        15.5454   -5.6006   17.1405  O     
13   O        15.2511   -5.5410   19.4317  O     
14   C        19.6341   -6.0257   14.4006  C     
15   C        18.6283   -5.5014   13.4547  C     
16   N        18.9296   -4.6258   12.4680  N     
17   S        16.9272   -5.8116   13.4013  S     
18   C        16.6330   -4.7465   12.0920  C     
19   C        17.8763   -4.2037   11.7211  C     
20   C        15.4369   -4.3994   11.4375  C     
21   C        15.5062   -3.4689   10.3787  C     
22   C        16.7502   -2.9148    9.9862  C     
23   C        17.9406   -3.2846   10.6550  C     
24   F        19.0934   -2.7791   10.3044  F     
25   F        16.7802   -2.0495    9.0066  F     
26   F        14.2900   -4.9147   11.8049  F     
27   C        17.3170  -12.0970   16.4437  C     
28   H        18.5077   -5.2356   16.9113  H     
29   H        16.9825   -9.8453   17.8683  H     
30   H        19.5241   -8.9900   13.7917  H     
31   H        18.7216  -11.2160   14.2636  H     
32   H        16.6804   -7.8462   19.0017  H     
33   H        17.7585   -6.4998   19.3266  H     
34   H        20.2038   -5.1866   14.8065  H     
35   H        20.3349   -6.6650   13.8577  H     
36   H        14.6539   -3.1900    9.8887  H     
37   H        17.7506  -12.4330   17.3886  H     
38   H        17.5850  -12.8201   15.6701  H     
39   H        16.2266  -12.0850   16.5374  H     
@<TRIPOS>BOND
     1    1    2 2
     2    1    4 1
     3    1   14 1
     4    2    3 1
     5    3    7 1
     6    3   10 1
     7    4    7 2
     8    4    8 1
     9    5    6 2
    10    5    9 1
    11    5   27 1
    12    6    7 1
    13    8    9 2
    14   10   11 1
    15   11   12 1
    16   11   13 2
    17   14   15 1
    18   15   16 2
    19   15   17 1
    20   16   19 1
    21   17   18 1
    22   18   19 2
    23   18   20 1
    24   19   23 1
    25   20   21 2
    26   20   26 1
    27   21   22 1
    28   22   23 2
    29   22   25 1
    30   23   24 1
    31    2   28 1
    32    6   29 1
    33    8   30 1
    34    9   31 1
    35   10   32 1
    36   10   33 1
    37   14   34 1
    38   14   35 1
    39   21   36 1
    40   27   37 1
    41   27   38 1
    42   27   39 1
@<TRIPOS>PROPERTY_DATA
  Total_Score	| 11.1539
  Crash		| -0.7572
  Polar		| 5.0840
  FragIndex	| 1
  FragRMSD	| 0.091

