@<TRIPOS>MOLECULE
BindingDB_16469
 36 39 0 0 0
SMALL
NO_CHARGES


@<TRIPOS>ATOM
1    N        18.9063   -4.6217   12.4045  N     
2    S        16.9114   -5.7996   13.3285  S     
3    C        16.6128   -4.7313   12.0175  C     
4    C        17.8606   -4.1980   11.6507  C     
5    C        15.4235   -4.3677   11.3616  C     
6    C        15.5041   -3.4244   10.3154  C     
7    C        16.7456   -2.8684    9.9410  C     
8    C        17.9305   -3.2582   10.6082  C     
9    C        18.6102   -5.5067   13.3824  C     
10   C        19.6021   -5.9948   14.3667  C     
11   C        18.9903   -6.7535   15.4808  C     
12   C        18.4422   -6.2014   16.6387  C     
13   N        17.8324   -7.1596   17.3707  N     
14   C        18.6939   -8.1109   15.5349  C     
15   C        17.8348  -10.7001   16.1394  C     
16   C        17.5568   -9.6474   17.0369  C     
17   C        17.9920   -8.3417   16.7262  C     
18   C        18.9544   -9.1454   14.6206  C     
19   C        18.5245  -10.4486   14.9349  C     
20   C        17.0923   -6.8789   18.5730  C     
21   C        15.9446   -5.9552   18.3936  C     
22   O        15.2132   -5.5922   19.4757  O     
23   O        15.5563   -5.4953   17.1746  O     
24   F        19.0887   -2.7556   10.2663  F     
25   F        16.7841   -1.9829    8.9811  F     
26   F        14.2814   -4.8805   11.7172  F     
27   H        14.6538   -3.1512    9.8178  H     
28   H        20.3458   -6.6063   13.8579  H     
29   H        20.1196   -5.1237   14.7754  H     
30   H        18.4901   -5.2049   16.8747  H     
31   H        17.5277  -11.6511   16.3637  H     
32   H        17.0642   -9.8439   17.9108  H     
33   H        19.4719   -8.9665   13.7568  H     
34   H        18.7165  -11.2211   14.2849  H     
35   H        16.7025   -7.8021   19.0011  H     
36   H        17.7763   -6.4579   19.3172  H     
@<TRIPOS>BOND
     1    1    4 1
     2    1    9 2
     3    2    3 1
     4    2    9 1
     5    3    4 2
     6    3    5 1
     7    4    8 1
     8    5    6 2
     9    5   26 1
    10    6    7 1
    11    7    8 2
    12    7   25 1
    13    8   24 1
    14    9   10 1
    15   10   11 1
    16   11   12 2
    17   11   14 1
    18   12   13 1
    19   13   17 1
    20   13   20 1
    21   14   17 2
    22   14   18 1
    23   15   16 2
    24   15   19 1
    25   16   17 1
    26   18   19 2
    27   20   21 1
    28   21   22 1
    29   21   23 2
    30    6   27 1
    31   10   28 1
    32   10   29 1
    33   12   30 1
    34   15   31 1
    35   16   32 1
    36   18   33 1
    37   19   34 1
    38   20   35 1
    39   20   36 1
@<TRIPOS>PROPERTY_DATA
  Total_Score	| 11.0765
  Crash		| -0.7538
  Polar		| 5.1386
  FragIndex	| 1
  FragRMSD	| 0.648

