@<TRIPOS>MOLECULE
BindingDB_16483
 36 39 0 0 0
SMALL
NO_CHARGES


@<TRIPOS>ATOM
1    C        18.9766   -6.7246   15.5002  C     
2    C        18.4682   -6.1761   16.6745  C     
3    N        17.8950   -7.1372   17.4300  N     
4    C        18.6940   -8.0841   15.5679  C     
5    C        17.7343  -10.6500   16.1488  C     
6    C        17.5451   -9.6058   17.0794  C     
7    C        18.0233   -8.3149   16.7748  C     
8    C        18.9156   -9.1234   14.6456  C     
9    C        18.4215  -10.4082   14.9373  C     
10   C        17.1656   -6.8632   18.6355  C     
11   C        16.0162   -5.9570   18.4033  C     
12   O        15.6332   -5.5574   17.1658  O     
13   O        15.2390   -5.5651   19.4385  O     
14   C        19.5486   -5.9572   14.3749  C     
15   C        18.5572   -5.4897   13.3854  C     
16   N        18.8813   -4.6189   12.4062  N     
17   S        16.8601   -5.7870   13.2900  S     
18   C        16.6007   -4.7135   11.9705  C     
19   C        17.8533   -4.1749   11.6436  C     
20   C        15.4248   -4.3245   11.2951  C     
21   C        15.5378   -3.3739   10.2606  C     
22   C        16.7903   -2.8155    9.9278  C     
23   C        17.9553   -3.2160   10.6223  C     
24   F        19.1112   -2.6750   10.3559  F     
25   F        16.8533   -1.9112    8.9816  F     
26   F        14.2636   -4.7976   11.6476  F     
27   Cl       17.0923  -12.1847   16.4675  Cl    
28   H        18.4498   -5.1768   16.8906  H     
29   H        17.0459   -9.7786   17.9540  H     
30   H        19.4068   -8.9401   13.7678  H     
31   H        18.5466  -11.1613   14.2576  H     
32   H        16.7908   -7.7848   19.0801  H     
33   H        17.8387   -6.4111   19.3702  H     
34   H        20.0480   -5.0706   14.7769  H     
35   H        20.3166   -6.5555   13.8758  H     
36   H        14.6991   -3.0686    9.7608  H     
@<TRIPOS>BOND
     1    1    2 2
     2    1    4 1
     3    1   14 1
     4    2    3 1
     5    3    7 1
     6    3   10 1
     7    4    7 2
     8    4    8 1
     9    5    6 2
    10    5    9 1
    11    5   27 1
    12    6    7 1
    13    8    9 2
    14   10   11 1
    15   11   12 1
    16   11   13 2
    17   14   15 1
    18   15   16 2
    19   15   17 1
    20   16   19 1
    21   17   18 1
    22   18   19 2
    23   18   20 1
    24   19   23 1
    25   20   21 2
    26   20   26 1
    27   21   22 1
    28   22   23 2
    29   22   25 1
    30   23   24 1
    31    2   28 1
    32    6   29 1
    33    8   30 1
    34    9   31 1
    35   10   32 1
    36   10   33 1
    37   14   34 1
    38   14   35 1
    39   21   36 1
@<TRIPOS>PROPERTY_DATA
  Total_Score	| 10.7664
  Crash		| -0.7217
  Polar		| 5.0721
  FragIndex	| 1
  FragRMSD	| 0.092

