@<TRIPOS>MOLECULE
BindingDB_16486
 46 50 0 0 0
SMALL
NO_CHARGES


@<TRIPOS>ATOM
1    C        19.0170   -6.7447   15.5087  C     
2    C        18.4248   -6.2368   16.6607  C     
3    N        17.8122   -7.2290   17.3470  N     
4    C        18.7557   -8.1089   15.5194  C     
5    C        17.9901  -10.7661   16.0522  C     
6    C        17.6716   -9.7319   16.9680  C     
7    C        18.0431   -8.3974   16.6921  C     
8    C        19.0689   -9.1128   14.5867  C     
9    C        18.6725  -10.4354   14.8545  C     
10   C        17.0193   -6.9970   18.5236  C     
11   C        15.8436   -6.1100   18.3201  C     
12   O        15.2009   -5.5969   19.3941  O     
13   O        15.4897   -5.6372   17.0958  O     
14   C        19.6046   -5.9457   14.4097  C     
15   C        18.5960   -5.5235   13.4146  C     
16   N        18.8695   -4.7045   12.3700  N     
17   S        16.8996   -5.8474   13.4116  S     
18   C        16.5669   -4.8605   12.0505  C     
19   C        17.7969   -4.3329   11.6245  C     
20   C        15.3589   -4.5443   11.4148  C     
21   C        15.3889   -3.6564   10.3172  C     
22   C        16.6206   -3.1143    9.8719  C     
23   C        17.8315   -3.4625   10.5143  C     
24   F        18.9757   -2.9787   10.1088  F     
25   F        16.6258   -2.2720    8.8684  F     
26   F        14.2280   -5.0588   11.8234  F     
27   C        17.6987  -12.1262   16.3366  C     
28   C        17.3285  -14.9015   16.7608  C     
29   C        18.1115  -14.1513   17.6575  C     
30   C        18.2873  -12.7693   17.4496  C     
31   C        16.9024  -12.8941   15.4541  C     
32   C        16.7136  -14.2718   15.6659  C     
33   H        18.4147   -5.2415   16.8905  H     
34   H        17.1867   -9.9473   17.8444  H     
35   H        19.5933   -8.8981   13.7381  H     
36   H        18.9070  -11.1636   14.1742  H     
37   H        16.6544   -7.9346   18.9421  H     
38   H        17.6739   -6.5486   19.2767  H     
39   H        20.0615   -5.0410   14.8211  H     
40   H        20.3932   -6.5181   13.9189  H     
41   H        14.5194   -3.4082    9.8344  H     
42   H        17.2131  -15.9097   16.9028  H     
43   H        18.5700  -14.6165   18.4438  H     
44   H        18.8872  -12.2510   18.0951  H     
45   H        16.4620  -12.4591   14.6405  H     
46   H        16.1524  -14.8181   15.0129  H     
@<TRIPOS>BOND
     1    1    2 2
     2    1    4 1
     3    1   14 1
     4    2    3 1
     5    3    7 1
     6    3   10 1
     7    4    7 2
     8    4    8 1
     9    5    6 2
    10    5    9 1
    11    5   27 1
    12    6    7 1
    13    8    9 2
    14   10   11 1
    15   11   12 1
    16   11   13 2
    17   14   15 1
    18   15   16 2
    19   15   17 1
    20   16   19 1
    21   17   18 1
    22   18   19 2
    23   18   20 1
    24   19   23 1
    25   20   21 2
    26   20   26 1
    27   21   22 1
    28   22   23 2
    29   22   25 1
    30   23   24 1
    31   27   30 2
    32   27   31 1
    33   28   29 2
    34   28   32 1
    35   29   30 1
    36   31   32 2
    37    2   33 1
    38    6   34 1
    39    8   35 1
    40    9   36 1
    41   10   37 1
    42   10   38 1
    43   14   39 1
    44   14   40 1
    45   21   41 1
    46   28   42 1
    47   29   43 1
    48   30   44 1
    49   31   45 1
    50   32   46 1
@<TRIPOS>PROPERTY_DATA
  Total_Score	| 11.5656
  Crash		| -0.8587
  Polar		| 5.2713
  FragIndex	| 1
  FragRMSD	| 0.676

