@<TRIPOS>MOLECULE
BindingDB_16480
 46 50 0 0 0
SMALL
NO_CHARGES


@<TRIPOS>ATOM
1    C        19.0000   -6.7814   15.4807  C     
2    C        18.4749   -6.2286   16.6428  C     
3    N        17.8423   -7.1799   17.3681  N     
4    C        18.6917   -8.1382   15.5326  C     
5    C        17.7812  -10.7155   16.1224  C     
6    C        17.5190   -9.6596   17.0211  C     
7    C        17.9795   -8.3622   16.7164  C     
8    C        18.9571   -9.1857   14.6258  C     
9    C        18.4906  -10.4892   14.9179  C     
10   C        17.1318   -6.9070   18.5903  C     
11   C        15.9858   -5.9831   18.4158  C     
12   O        15.2651   -5.5817   19.4831  O     
13   O        15.6041   -5.5077   17.2073  O     
14   C        19.5995   -6.0291   14.3584  C     
15   C        18.6104   -5.5262   13.3848  C     
16   N        18.9317   -4.6279   12.4232  N     
17   S        16.9105   -5.8235   13.2831  S     
18   C        16.6447   -4.7350   11.9879  C     
19   C        17.8945   -4.1844   11.6690  C     
20   C        15.4717   -4.3469   11.3168  C     
21   C        15.5766   -3.3839   10.2915  C     
22   C        16.8262   -2.8174    9.9612  C     
23   C        17.9942   -3.2208   10.6478  C     
24   F        19.1522   -2.6824   10.3796  F     
25   F        16.8855   -1.9062    9.0318  F     
26   F        14.3138   -4.8449   11.6491  F     
27   C        18.7290  -11.5533   14.0093  C     
28   C        19.1764  -13.6966   12.2138  C     
29   C        20.2635  -12.9477   12.6978  C     
30   C        20.0398  -11.8738   13.5852  C     
31   C        17.6446  -12.3141   13.5099  C     
32   C        17.8676  -13.3746   12.6124  C     
33   H        18.5102   -5.2339   16.8800  H     
34   H        17.4494  -11.6521   16.3580  H     
35   H        17.0074   -9.8435   17.8812  H     
36   H        19.4698   -8.9931   13.7616  H     
37   H        16.7426   -7.8231   19.0386  H     
38   H        17.8306   -6.4685   19.3070  H     
39   H        20.1452   -5.1687   14.7568  H     
40   H        20.3276   -6.6617   13.8485  H     
41   H        14.7352   -3.0798    9.7934  H     
42   H        19.3388  -14.4767   11.5700  H     
43   H        21.2153  -13.1831   12.4086  H     
44   H        20.8442  -11.3409   13.9217  H     
45   H        16.6869  -12.0931   13.7852  H     
46   H        17.0760  -13.9118   12.2526  H     
@<TRIPOS>BOND
     1    1    2 2
     2    1    4 1
     3    1   14 1
     4    2    3 1
     5    3    7 1
     6    3   10 1
     7    4    7 2
     8    4    8 1
     9    5    6 2
    10    5    9 1
    11    6    7 1
    12    8    9 2
    13    9   27 1
    14   10   11 1
    15   11   12 1
    16   11   13 2
    17   14   15 1
    18   15   16 2
    19   15   17 1
    20   16   19 1
    21   17   18 1
    22   18   19 2
    23   18   20 1
    24   19   23 1
    25   20   21 2
    26   20   26 1
    27   21   22 1
    28   22   23 2
    29   22   25 1
    30   23   24 1
    31   27   30 2
    32   27   31 1
    33   28   29 2
    34   28   32 1
    35   29   30 1
    36   31   32 2
    37    2   33 1
    38    5   34 1
    39    6   35 1
    40    8   36 1
    41   10   37 1
    42   10   38 1
    43   14   39 1
    44   14   40 1
    45   21   41 1
    46   28   42 1
    47   29   43 1
    48   30   44 1
    49   31   45 1
    50   32   46 1
@<TRIPOS>PROPERTY_DATA
  Total_Score	| 11.6521
  Crash		| -0.7645
  Polar		| 5.0545
  FragIndex	| 1
  FragRMSD	| 0.646

