@<TRIPOS>MOLECULE
BindingDB_16495
 39 42 0 0 0
SMALL
NO_CHARGES


@<TRIPOS>ATOM
1    C        18.9641   -6.6140   15.4308  C     
2    C        18.4756   -5.9899   16.5736  C     
3    N        17.8596   -6.8894   17.3775  N     
4    C        18.6317   -7.9580   15.5627  C     
5    C        17.6847  -10.4771   16.3174  C     
6    C        17.4828   -9.3747   17.1718  C     
7    C        17.9633   -8.1040   16.7831  C     
8    C        18.8324   -9.0491   14.6994  C     
9    C        18.3457  -10.3158   15.0803  C     
10   C        17.1533   -6.5717   18.5982  C     
11   C        19.5872   -5.9486   14.2649  C     
12   C        18.5934   -5.4793   13.2843  C     
13   C        16.5930   -4.6977   11.9326  C     
14   C        17.8355   -4.1388   11.5809  C     
15   C        17.9074   -3.1738   10.5567  C     
16   C        15.4031   -4.3064   11.3053  C     
17   C        15.4698   -3.3258   10.2902  C     
18   C        16.7160   -2.7607    9.9183  C     
19   N        18.8889   -4.5747   12.3129  N     
20   S        16.9002   -5.7966   13.2140  S     
21   F        19.0674   -2.6713   10.2192  F     
22   F        16.7386   -1.8284    9.0074  F     
23   F        14.2608   -4.8275   11.6513  F     
24   C        17.9733   -5.6084   19.5057  C     
25   C        15.8142   -6.0135   18.3284  C     
26   O        15.0014   -5.7490   19.3728  O     
27   O        15.3326   -5.8216   17.0686  O     
28   H        18.5121   -4.9737   16.7336  H     
29   H        17.3409  -11.3973   16.5956  H     
30   H        16.9925   -9.5038   18.0532  H     
31   H        19.3166   -8.9288   13.8054  H     
32   H        18.4788  -11.1161   14.4638  H     
33   H        16.9942   -7.4812   19.1860  H     
34   H        20.1469   -5.0727   14.6151  H     
35   H        20.2911   -6.6219   13.7857  H     
36   H        14.6149   -3.0287    9.8158  H     
37   H        19.0126   -5.9315   19.5608  H     
38   H        17.5615   -5.6058   20.5212  H     
39   H        17.9537   -4.5883   19.1217  H     
@<TRIPOS>BOND
     1    1    2 2
     2    1    4 1
     3    1   11 1
     4    2    3 1
     5    3    7 1
     6    3   10 1
     7    4    7 2
     8    4    8 1
     9    5    6 2
    10    5    9 1
    11    6    7 1
    12    8    9 2
    13   10   24 1
    14   10   25 1
    15   11   12 1
    16   12   19 2
    17   12   20 1
    18   13   14 2
    19   13   16 1
    20   13   20 1
    21   14   15 1
    22   14   19 1
    23   15   18 2
    24   15   21 1
    25   16   17 2
    26   16   23 1
    27   17   18 1
    28   18   22 1
    29   25   26 2
    30   25   27 1
    31    2   28 1
    32    5   29 1
    33    6   30 1
    34    8   31 1
    35    9   32 1
    36   10   33 1
    37   11   34 1
    38   11   35 1
    39   17   36 1
    40   24   37 1
    41   24   38 1
    42   24   39 1
@<TRIPOS>PROPERTY_DATA
  Total_Score	| 10.1173
  Crash		| -1.3018
  Polar		| 5.0238
  FragIndex	| 1
  FragRMSD	| 0.194

