@<TRIPOS>MOLECULE
BindingDB_91855
 45 48 0 0 0
SMALL
NO_CHARGES


@<TRIPOS>ATOM
1    C        21.4094   -5.1872    4.8007  C     
2    O        22.7857   -4.9320    5.0907  O     
3    C        23.4043   -4.0644    5.9374  C     
4    O        24.7554   -4.0915    5.8977  O     
5    C        22.7565   -3.0888    6.8446  C     
6    C        21.5701   -3.5959    7.5826  C     
7    C        21.6176   -4.7823    8.3473  C     
8    C        20.4734   -5.2388    9.0303  C     
9    C        19.2572   -4.5162    8.9818  C     
10   N        18.2198   -5.0836    9.6318  N     
11   C        16.9190   -4.7144    9.8139  C     
12   C        16.1850   -5.6597   10.5633  C     
13   C        14.8358   -5.4634   10.9255  C     
14   C        14.2106   -4.2731   10.5062  C     
15   C        14.9115   -3.3347    9.7354  C     
16   C        16.2710   -3.5321    9.3600  C     
17   C        16.8942   -2.5561    8.5800  C     
18   O        16.2391   -1.6095    8.1667  O     
19   N        18.1410   -2.4779    8.1577  N     
20   C        19.2152   -3.2944    8.2729  C     
21   C        20.3720   -2.8516    7.5903  C     
22   C        14.1444   -6.4394   11.6894  C     
23   C        12.9493   -6.2967   12.3955  C     
24   N        12.6724   -7.4684   12.9901  N     
25   C        11.5441   -7.7790   13.8074  C     
26   C        13.6631   -8.3198   12.6738  C     
27   N        14.5595   -7.7057   11.8876  N     
28   H        20.7393   -4.5090    5.3299  H     
29   H        21.2467   -5.0760    3.7265  H     
30   H        21.1781   -6.2153    5.0857  H     
31   H        22.4947   -2.2152    6.2364  H     
32   H        23.4805   -2.7504    7.5870  H     
33   H        22.4755   -5.3358    8.3941  H     
34   H        20.5370   -6.1143    9.5590  H     
35   H        18.4449   -5.9364   10.0402  H     
36   H        16.6558   -6.5160   10.8748  H     
37   H        13.2292   -4.0832   10.7288  H     
38   H        14.3940   -2.4994    9.4485  H     
39   H        18.3258   -1.6656    7.6581  H     
40   H        20.3441   -1.9583    7.0904  H     
41   H        12.3909   -5.4475   12.4711  H     
42   H        10.8994   -6.9085   13.9522  H     
43   H        11.8834   -8.1230   14.7860  H     
44   H        10.9577   -8.5723   13.3376  H     
45   H        13.7385   -9.2891   12.9877  H     
@<TRIPOS>BOND
     1    1    2 1
     2    2    3 1
     3    3    4 2
     4    3    5 1
     5    5    6 1
     6    6    7 ar
     7    7    8 ar
     8    8    9 ar
     9    9   10 1
    10   10   11 1
    11   11   12 ar
    12   12   13 ar
    13   13   14 ar
    14   14   15 ar
    15   15   16 ar
    16   11   16 ar
    17   16   17 1
    18   17   18 2
    19   17   19 1
    20   19   20 1
    21    9   20 ar
    22   20   21 ar
    23    6   21 ar
    24   13   22 1
    25   22   23 ar
    26   23   24 ar
    27   24   25 1
    28   24   26 ar
    29   26   27 ar
    30   22   27 ar
    31    1   28 1
    32    1   29 1
    33    1   30 1
    34    5   31 1
    35    5   32 1
    36    7   33 1
    37    8   34 1
    38   10   35 1
    39   12   36 1
    40   14   37 1
    41   15   38 1
    42   19   39 1
    43   21   40 1
    44   23   41 1
    45   25   42 1
    46   25   43 1
    47   25   44 1
    48   26   45 1
@<TRIPOS>PROPERTY_DATA
  Total_Score	| 5.8861
  Crash		| -1.4159
  Polar		| 0.5727
  FragIndex	| 1
  FragRMSD	| 1.232

