@<TRIPOS>MOLECULE
BindingDB_91929
 46 49 0 0 0
SMALL
NO_CHARGES


@<TRIPOS>ATOM
1    C        21.7394   -5.5399    3.8430  C     
2    O        21.7765   -4.8107    5.0709  O     
3    C        22.6806   -3.8478    5.4073  C     
4    O        23.6838   -3.5287    4.5547  O     
5    C        22.6474   -3.1814    6.7246  C     
6    C        21.5411   -3.6461    7.6070  C     
7    C        21.6875   -4.7896    8.4170  C     
8    C        20.6126   -5.2414    9.2021  C     
9    C        19.3724   -4.5672    9.2047  C     
10   N        18.4198   -5.1238    9.9822  N     
11   C        17.0946   -4.8690   10.1640  C     
12   C        16.4563   -5.8264   10.9923  C     
13   C        15.0627   -5.8436   11.2229  C     
14   C        14.3149   -4.8115   10.6143  C     
15   C        14.9320   -3.8125    9.8428  C     
16   C        16.3342   -3.8105    9.5891  C     
17   C        16.8765   -2.7879    8.8027  C     
18   O        16.1649   -1.8550    8.4523  O     
19   N        18.1032   -2.6462    8.3243  N     
20   C        19.2124   -3.4131    8.4018  C     
21   C        20.3016   -2.9697    7.6092  C     
22   C        14.4348   -6.8658   12.0238  C     
23   C        15.0196   -8.1447   12.1900  C     
24   C        14.4255   -9.1266   13.0033  C     
25   C        13.1825   -8.8852   13.6077  C     
26   C        12.5604   -7.6327   13.4376  C     
27   C        13.2014   -6.6268   12.6811  C     
28   C        11.3891   -7.4022   13.9523  C     
29   N        10.3465   -7.1964   14.3857  N     
30   H        21.5536   -4.8631    3.0104  H     
31   H        22.6836   -6.0628    3.6837  H     
32   H        20.9352   -6.2720    3.8925  H     
33   H        23.6176   -3.3408    7.2072  H     
34   H        22.5482   -2.1032    6.5661  H     
35   H        22.5688   -5.3116    8.4259  H     
36   H        20.7456   -6.0841    9.7664  H     
37   H        18.7364   -5.9064   10.4590  H     
38   H        17.0337   -6.5426   11.4425  H     
39   H        13.2956   -4.7745   10.7046  H     
40   H        14.3275   -3.0845    9.4435  H     
41   H        18.2194   -1.8366    7.8018  H     
42   H        20.1870   -2.1434    7.0122  H     
43   H        15.8946   -8.3809   11.7162  H     
44   H        14.8949  -10.0215   13.1500  H     
45   H        12.7463   -9.6290   14.1688  H     
46   H        12.7615   -5.7025   12.6168  H     
@<TRIPOS>BOND
     1    1    2 1
     2    2    3 1
     3    3    4 2
     4    3    5 1
     5    5    6 1
     6    6    7 ar
     7    7    8 ar
     8    8    9 ar
     9    9   10 1
    10   10   11 1
    11   11   12 ar
    12   12   13 ar
    13   13   14 ar
    14   14   15 ar
    15   15   16 ar
    16   11   16 ar
    17   16   17 1
    18   17   18 2
    19   17   19 1
    20   19   20 1
    21    9   20 ar
    22   20   21 ar
    23    6   21 ar
    24   13   22 1
    25   22   23 ar
    26   23   24 ar
    27   24   25 ar
    28   25   26 ar
    29   26   27 ar
    30   22   27 ar
    31   26   28 1
    32   28   29 3
    33    1   30 1
    34    1   31 1
    35    1   32 1
    36    5   33 1
    37    5   34 1
    38    7   35 1
    39    8   36 1
    40   10   37 1
    41   12   38 1
    42   14   39 1
    43   15   40 1
    44   19   41 1
    45   21   42 1
    46   23   43 1
    47   24   44 1
    48   25   45 1
    49   27   46 1
@<TRIPOS>PROPERTY_DATA
  Total_Score	| 7.1582
  Crash		| -0.9563
  Polar		| 1.5068
  FragIndex	| 1
  FragRMSD	| 0.152

