@<TRIPOS>MOLECULE
BindingDB_91828
 45 48 0 0 0
SMALL
NO_CHARGES


@<TRIPOS>ATOM
1    C        21.4582   -5.4595    3.8150  C     
2    O        21.5015   -4.7818    5.0744  O     
3    C        22.5661   -4.1060    5.5795  C     
4    O        23.7169   -4.0081    4.8712  O     
5    C        22.4815   -3.4052    6.8791  C     
6    C        21.3227   -3.8158    7.7204  C     
7    C        21.3700   -5.0074    8.4733  C     
8    C        20.2586   -5.4333    9.2141  C     
9    C        19.0531   -4.6942    9.2137  C     
10   N        18.0524   -5.2381    9.9412  N     
11   C        16.7364   -4.9113   10.1075  C     
12   C        16.0294   -5.8539   10.8971  C     
13   C        14.6358   -5.7501   11.1368  C     
14   C        13.9580   -4.6673   10.5458  C     
15   C        14.6484   -3.7109    9.7830  C     
16   C        16.0474   -3.7890    9.5558  C     
17   C        16.6671   -2.7770    8.8156  C     
18   O        16.0170   -1.7966    8.4759  O     
19   N        17.9134   -2.6714    8.3886  N     
20   C        18.9907   -3.4929    8.4700  C     
21   C        20.1290   -3.0608    7.7465  C     
22   C        13.9236   -6.7400   11.8781  C     
23   C        14.3124   -8.0805   11.9686  C     
24   N        13.4064   -8.7656   12.6738  N     
25   C        12.4622   -7.8848   13.0280  C     
26   N        12.7515   -6.6485   12.5596  N     
27   C        11.9120   -5.5167   12.8169  C     
28   H        21.6721   -4.7591    3.0029  H     
29   H        20.4582   -5.8672    3.6754  H     
30   H        22.1865   -6.2726    3.8000  H     
31   H        23.4130   -3.5858    7.4246  H     
32   H        22.4406   -2.3345    6.6665  H     
33   H        22.2144   -5.5829    8.4747  H     
34   H        20.3285   -6.3028    9.7460  H     
35   H        18.3071   -6.0658   10.3925  H     
36   H        16.5332   -6.6404   11.3072  H     
37   H        12.9381   -4.5691   10.6639  H     
38   H        14.0960   -2.9575    9.3740  H     
39   H        18.0985   -1.8404    7.9091  H     
40   H        20.0808   -2.1944    7.2075  H     
41   H        15.1428   -8.5096   11.5436  H     
42   H        11.6449   -8.1314   13.5890  H     
43   H        10.9906   -5.6130   12.2395  H     
44   H        11.6472   -5.4705   13.8784  H     
45   H        12.4003   -4.5780   12.5314  H     
@<TRIPOS>BOND
     1    1    2 1
     2    2    3 1
     3    3    4 2
     4    3    5 1
     5    5    6 1
     6    6    7 ar
     7    7    8 ar
     8    8    9 ar
     9    9   10 1
    10   10   11 1
    11   11   12 ar
    12   12   13 ar
    13   13   14 ar
    14   14   15 ar
    15   15   16 ar
    16   11   16 ar
    17   16   17 1
    18   17   18 2
    19   17   19 1
    20   19   20 1
    21    9   20 ar
    22   20   21 ar
    23    6   21 ar
    24   13   22 1
    25   22   23 ar
    26   23   24 ar
    27   24   25 ar
    28   25   26 ar
    29   22   26 ar
    30   26   27 1
    31    1   28 1
    32    1   29 1
    33    1   30 1
    34    5   31 1
    35    5   32 1
    36    7   33 1
    37    8   34 1
    38   10   35 1
    39   12   36 1
    40   14   37 1
    41   15   38 1
    42   19   39 1
    43   21   40 1
    44   23   41 1
    45   25   42 1
    46   27   43 1
    47   27   44 1
    48   27   45 1
@<TRIPOS>PROPERTY_DATA
  Total_Score	| 7.8325
  Crash		| -0.3522
  Polar		| 1.1533
  FragIndex	| 1
  FragRMSD	| 0.293

