@<TRIPOS>MOLECULE
BindingDB_91925
 43 46 0 0 0
SMALL
NO_CHARGES


@<TRIPOS>ATOM
1    N        13.7892   -7.0070   16.1134  N     
2    C        13.9161   -7.2127   14.7965  C     
3    C        13.3628   -8.3922   14.2509  C     
4    C        13.3957   -8.6228   12.8682  C     
5    C        13.9752   -7.6676   12.0176  C     
6    C        14.5760   -6.5104   12.5505  C     
7    C        14.5526   -6.2816   13.9442  C     
8    C        15.1489   -5.5887   11.6521  C     
9    C        14.3611   -4.5682   11.0958  C     
10   C        14.9246   -3.6774   10.1788  C     
11   C        16.2851   -3.7811    9.7692  C     
12   C        16.7894   -2.8025    8.9017  C     
13   O        16.0612   -1.8807    8.5503  O     
14   N        17.9915   -2.6812    8.3816  N     
15   C        19.1129   -3.4406    8.4428  C     
16   C        20.1980   -2.9789    7.6520  C     
17   C        21.4473   -3.6379    7.6611  C     
18   C        22.5831   -3.0900    6.8688  C     
19   C        22.7739   -3.8661    5.6306  C     
20   O        23.8879   -3.7084    4.8813  O     
21   O        21.9092   -4.8657    5.3160  O     
22   C        21.5938   -4.7960    8.4520  C     
23   C        20.5276   -5.2784    9.2063  C     
24   C        19.2817   -4.6160    9.2163  C     
25   N        18.3532   -5.1740   10.0075  N     
26   C        17.0622   -4.8521   10.2908  C     
27   C        16.4887   -5.7345   11.2361  C     
28   H        13.2543   -7.6312   16.6276  H     
29   H        14.1511   -6.2246   16.5489  H     
30   H        12.9333   -9.0868   14.8595  H     
31   H        12.9768   -9.4703   12.4757  H     
32   H        13.9719   -7.8204   11.0067  H     
33   H        14.9493   -5.4171   14.3251  H     
34   H        13.3800   -4.4631   11.3671  H     
35   H        14.3067   -2.9435    9.8168  H     
36   H        18.1051   -1.8712    7.8516  H     
37   H        20.0686   -2.1444    7.0712  H     
38   H        22.4112   -2.0295    6.6468  H     
39   H        23.5130   -3.1359    7.4453  H     
40   H        22.4847   -5.2981    8.4571  H     
41   H        20.6681   -6.1319    9.7538  H     
42   H        18.6657   -5.9622   10.4785  H     
43   H        17.0315   -6.5246   11.6013  H     
@<TRIPOS>BOND
     1    1    2 1
     2    2    3 ar
     3    3    4 ar
     4    4    5 ar
     5    5    6 ar
     6    6    7 ar
     7    2    7 ar
     8    6    8 1
     9    8    9 ar
    10    9   10 ar
    11   10   11 ar
    12   11   12 1
    13   12   13 2
    14   12   14 1
    15   14   15 1
    16   15   16 ar
    17   16   17 ar
    18   17   18 1
    19   18   19 1
    20   19   20 2
    21   19   21 1
    22   17   22 ar
    23   22   23 ar
    24   23   24 ar
    25   15   24 ar
    26   24   25 1
    27   25   26 1
    28   11   26 ar
    29   26   27 ar
    30    8   27 ar
    31    1   28 1
    32    1   29 1
    33    3   30 1
    34    4   31 1
    35    5   32 1
    36    7   33 1
    37    9   34 1
    38   10   35 1
    39   14   36 1
    40   16   37 1
    41   18   38 1
    42   18   39 1
    43   22   40 1
    44   23   41 1
    45   25   42 1
    46   27   43 1
@<TRIPOS>PROPERTY_DATA
  Total_Score	| 6.0741
  Crash		| -1.1454
  Polar		| 2.8264
  FragIndex	| 1
  FragRMSD	| 0.222

