@<TRIPOS>MOLECULE
BindingDB_91849
 46 49 0 0 0
SMALL
NO_CHARGES


@<TRIPOS>ATOM
1    C        21.5641   -5.8788    4.1392  C     
2    O        21.6457   -5.0230    5.2808  O     
3    C        22.6199   -4.1283    5.6088  C     
4    O        23.7245   -3.9831    4.8467  O     
5    C        22.4907   -3.2991    6.8257  C     
6    C        21.3753   -3.7446    7.6955  C     
7    C        21.5049   -4.9040    8.4923  C     
8    C        20.4231   -5.3641    9.2612  C     
9    C        19.1808   -4.6912    9.2419  C     
10   N        18.2041   -5.2759    9.9668  N     
11   C        16.8664   -5.0401   10.0834  C     
12   C        16.2049   -6.0286   10.8491  C     
13   C        14.8229   -5.9732   11.1054  C     
14   N        14.3124   -6.9171   11.9433  N     
15   C        13.1021   -6.9047   12.5733  C     
16   C        12.4913   -5.7052   13.0262  C     
17   C        11.2281   -5.7719   13.6439  C     
18   N        10.6401   -6.9880   13.8692  N     
19   C        11.2386   -8.1605   13.5244  C     
20   C        12.4882   -8.1493   12.8746  C     
21   C        14.0665   -4.9570   10.4857  C     
22   C        14.7113   -3.9623    9.7304  C     
23   C        16.1244   -3.9528    9.5382  C     
24   C        16.7039   -2.8838    8.8410  C     
25   O        16.0227   -1.8999    8.5766  O     
26   N        17.9415   -2.7311    8.4053  N     
27   C        19.0503   -3.5035    8.4871  C     
28   C        20.1515   -3.0443    7.7293  C     
29   H        21.5160   -6.9190    4.4706  H     
30   H        20.6511   -5.6477    3.5863  H     
31   H        22.4204   -5.7640    3.4689  H     
32   H        23.4172   -3.3294    7.4029  H     
33   H        22.3539   -2.2656    6.5038  H     
34   H        22.3788   -5.4346    8.4921  H     
35   H        20.5378   -6.2259    9.8034  H     
36   H        18.5040   -6.0670   10.4428  H     
37   H        16.7557   -6.7947   11.2618  H     
38   H        14.8913   -7.6665   12.1584  H     
39   H        12.9534   -4.7951   12.8731  H     
40   H        10.7617   -4.9053   13.9460  H     
41   H        10.7546   -9.0459   13.7120  H     
42   H        12.9338   -9.0348   12.6176  H     
43   H        13.0414   -4.9419   10.5984  H     
44   H        14.1257   -3.2235    9.3259  H     
45   H        18.0924   -1.9003    7.9264  H     
46   H        20.0481   -2.1967    7.1647  H     
@<TRIPOS>BOND
     1    1    2 1
     2    2    3 1
     3    3    4 2
     4    3    5 1
     5    5    6 1
     6    6    7 ar
     7    7    8 ar
     8    8    9 ar
     9    9   10 1
    10   10   11 1
    11   11   12 ar
    12   12   13 ar
    13   13   14 1
    14   14   15 1
    15   15   16 ar
    16   16   17 ar
    17   17   18 ar
    18   18   19 ar
    19   19   20 ar
    20   15   20 ar
    21   13   21 ar
    22   21   22 ar
    23   22   23 ar
    24   11   23 ar
    25   23   24 1
    26   24   25 2
    27   24   26 1
    28   26   27 1
    29    9   27 ar
    30   27   28 ar
    31    6   28 ar
    32    1   29 1
    33    1   30 1
    34    1   31 1
    35    5   32 1
    36    5   33 1
    37    7   34 1
    38    8   35 1
    39   10   36 1
    40   12   37 1
    41   14   38 1
    42   16   39 1
    43   17   40 1
    44   19   41 1
    45   20   42 1
    46   21   43 1
    47   22   44 1
    48   26   45 1
    49   28   46 1
@<TRIPOS>PROPERTY_DATA
  Total_Score	| 9.4867
  Crash		| -0.7127
  Polar		| 2.4885
  FragIndex	| 1
  FragRMSD	| 0.266

