@<TRIPOS>MOLECULE
BindingDB_91932
 43 46 0 0 0
SMALL
NO_CHARGES


@<TRIPOS>ATOM
1    O        22.1290   -4.8172    5.2370  O     
2    C        22.9096   -3.7894    5.6465  C     
3    C        22.5911   -2.9663    6.8324  C     
4    C        21.4774   -3.5014    7.6548  C     
5    C        20.2167   -2.8701    7.6664  C     
6    C        19.1368   -3.3716    8.4318  C     
7    C        19.3297   -4.5395    9.2032  C     
8    N        18.3899   -5.1482    9.9577  N     
9    C        17.0568   -4.9239   10.1489  C     
10   C        16.2811   -3.8574    9.6195  C     
11   C        16.7906   -2.8057    8.8491  C     
12   N        18.0023   -2.6337    8.3582  N     
13   O        16.0715   -1.8666    8.5338  O     
14   C        14.8922   -3.8844    9.9030  C     
15   C        14.2984   -4.9113   10.6612  C     
16   C        15.0544   -5.9664   11.2324  C     
17   C        14.4473   -7.0264   12.0360  C     
18   C        13.1508   -6.8959   12.6063  C     
19   C        12.5059   -7.9189   13.3559  C     
20   N        11.2323   -7.7711   13.8280  N     
21   O        10.6253   -8.6949   14.5245  O     
22   O        10.5681   -6.7876   13.6219  O     
23   C        13.2227   -9.1056   13.5934  C     
24   C        14.5139   -9.2722   13.0863  C     
25   C        15.1050   -8.2595   12.3054  C     
26   C        16.4437   -5.9204   10.9539  C     
27   C        20.5977   -5.1666    9.2059  C     
28   C        21.6592   -4.6556    8.4412  C     
29   O        23.9564   -3.4346    4.8676  O     
30   H        23.4794   -2.8878    7.4595  H     
31   H        22.3594   -1.9614    6.4716  H     
32   H        20.0767   -2.0292    7.0946  H     
33   H        18.7268   -5.9380   10.4116  H     
34   H        18.1103   -1.8167    7.8398  H     
35   H        14.2715   -3.1510    9.5420  H     
36   H        13.2891   -4.8706   10.7656  H     
37   H        12.6491   -6.0127   12.4863  H     
38   H        12.8137   -9.8655   14.1354  H     
39   H        15.0261  -10.1370   13.2760  H     
40   H        16.0309   -8.4546   11.9271  H     
41   H        17.0498   -6.6379   11.3514  H     
42   H        20.7618   -6.0151    9.7598  H     
43   H        22.5659   -5.1357    8.4579  H     
@<TRIPOS>BOND
     1    1    2 1
     2    2    3 1
     3    3    4 1
     4    4    5 ar
     5    5    6 ar
     6    6    7 ar
     7    7    8 1
     8    8    9 1
     9    9   10 ar
    10   10   11 1
    11   11   12 1
    12    6   12 1
    13   11   13 2
    14   10   14 ar
    15   14   15 ar
    16   15   16 ar
    17   16   17 1
    18   17   18 ar
    19   18   19 ar
    20   19   20 am
    21   20   21 1
    22   20   22 2
    23   19   23 ar
    24   23   24 ar
    25   24   25 ar
    26   17   25 ar
    27   16   26 ar
    28    9   26 ar
    29    7   27 ar
    30   27   28 ar
    31    4   28 ar
    32    2   29 2
    33    3   30 1
    34    3   31 1
    35    5   32 1
    36    8   33 1
    37   12   34 1
    38   14   35 1
    39   15   36 1
    40   18   37 1
    41   23   38 1
    42   24   39 1
    43   25   40 1
    44   26   41 1
    45   27   42 1
    46   28   43 1
@<TRIPOS>PROPERTY_DATA
  Total_Score	| 7.2428
  Crash		| -0.6744
  Polar		| 2.7654
  FragIndex	| 1
  FragRMSD	| 0.152

