@<TRIPOS>MOLECULE
BindingDB_91937
 49 52 0 0 0
SMALL
NO_CHARGES


@<TRIPOS>ATOM
1    C        21.4732   -5.4598    3.8633  C     
2    O        21.5183   -4.8123    5.1318  O     
3    C        22.5347   -4.0220    5.5879  C     
4    O        23.6266   -3.8181    4.8184  O     
5    C        22.4823   -3.3744    6.9102  C     
6    C        21.3384   -3.7982    7.7633  C     
7    C        21.4220   -4.9546    8.5636  C     
8    C        20.3353   -5.3542    9.3554  C     
9    C        19.1249   -4.6315    9.3462  C     
10   N        18.1450   -5.1618   10.1076  N     
11   C        16.8181   -4.8857   10.2271  C     
12   C        16.1311   -5.8133   11.0507  C     
13   C        14.7243   -5.7984   11.2258  C     
14   C        14.0164   -4.8040   10.5088  C     
15   C        14.6838   -3.8427    9.7396  C     
16   C        16.1016   -3.8311    9.5956  C     
17   C        16.7093   -2.7805    8.8941  C     
18   O        16.0444   -1.7928    8.6065  O     
19   N        17.9582   -2.6441    8.4914  N     
20   C        19.0281   -3.4694    8.5534  C     
21   C        20.1349   -3.0647    7.7758  C     
22   C        14.0433   -6.7302   12.0908  C     
23   C        14.5196   -8.0561   12.2966  C     
24   C        13.9184   -8.9386   13.2151  C     
25   C        12.7696   -8.5506   13.9330  C     
26   O        12.2970   -9.4429   14.8724  O     
27   C        10.9017   -9.8052   14.8018  C     
28   C        12.2544   -7.2498   13.7267  C     
29   C        12.8716   -6.3681   12.8218  C     
30   H        21.4860   -4.7176    3.0673  H     
31   H        20.5540   -6.0392    3.7883  H     
32   H        22.3245   -6.1320    3.7450  H     
33   H        23.4249   -3.5835    7.4199  H     
34   H        22.4408   -2.2917    6.7639  H     
35   H        22.2744   -5.5164    8.5781  H     
36   H        20.4212   -6.2016    9.9239  H     
37   H        18.4145   -5.9524   10.6043  H     
38   H        16.6811   -6.5220   11.5459  H     
39   H        12.9913   -4.7713   10.5363  H     
40   H        14.1049   -3.1435    9.2671  H     
41   H        18.1487   -1.7971    8.0520  H     
42   H        20.0633   -2.2295    7.1916  H     
43   H        15.3309   -8.4112   11.7879  H     
44   H        14.3333   -9.8663   13.3677  H     
45   H        10.7495  -10.6877   15.4199  H     
46   H        10.5965  -10.0249   13.7725  H     
47   H        10.2877   -8.9909   15.2024  H     
48   H        11.4276   -6.9356   14.2508  H     
49   H        12.4652   -5.4333   12.7377  H     
@<TRIPOS>BOND
     1    1    2 1
     2    2    3 1
     3    3    4 2
     4    3    5 1
     5    5    6 1
     6    6    7 ar
     7    7    8 ar
     8    8    9 ar
     9    9   10 1
    10   10   11 1
    11   11   12 ar
    12   12   13 ar
    13   13   14 ar
    14   14   15 ar
    15   15   16 ar
    16   11   16 ar
    17   16   17 1
    18   17   18 2
    19   17   19 1
    20   19   20 1
    21    9   20 ar
    22   20   21 ar
    23    6   21 ar
    24   13   22 1
    25   22   23 ar
    26   23   24 ar
    27   24   25 ar
    28   25   26 1
    29   26   27 1
    30   25   28 ar
    31   28   29 ar
    32   22   29 ar
    33    1   30 1
    34    1   31 1
    35    1   32 1
    36    5   33 1
    37    5   34 1
    38    7   35 1
    39    8   36 1
    40   10   37 1
    41   12   38 1
    42   14   39 1
    43   15   40 1
    44   19   41 1
    45   21   42 1
    46   23   43 1
    47   24   44 1
    48   27   45 1
    49   27   46 1
    50   27   47 1
    51   28   48 1
    52   29   49 1
@<TRIPOS>PROPERTY_DATA
  Total_Score	| 8.9846
  Crash		| -0.5752
  Polar		| 1.2658
  FragIndex	| 1
  FragRMSD	| 0.229

