@<TRIPOS>MOLECULE
BindingDB_91848
 51 55 0 0 0
SMALL
NO_CHARGES


@<TRIPOS>ATOM
1    C        21.2250   -5.7786    4.0995  C     
2    O        21.6028   -5.0995    5.3030  O     
3    C        22.5559   -4.1457    5.4722  C     
4    O        23.3262   -3.7353    4.4380  O     
5    C        22.7940   -3.6010    6.8233  C     
6    C        21.6542   -3.8655    7.7447  C     
7    C        21.7462   -4.8266    8.7738  C     
8    C        20.6535   -5.0703    9.6233  C     
9    C        19.4328   -4.3741    9.4686  C     
10   N        18.4448   -4.7440   10.3160  N     
11   C        17.0998   -4.5246   10.2721  C     
12   C        16.3499   -5.4323   11.0620  C     
13   C        14.9336   -5.5311   10.9996  C     
14   C        14.2928   -4.6016   10.1645  C     
15   C        15.0014   -3.6245    9.4546  C     
16   C        16.4160   -3.5723    9.4702  C     
17   C        17.0425   -2.6030    8.6911  C     
18   O        16.3893   -1.6615    8.2611  O     
19   N        18.2845   -2.5652    8.2569  N     
20   C        19.3398   -3.3865    8.4576  C     
21   C        20.4482   -3.1415    7.6143  C     
22   C        14.2146   -6.6106   11.6414  C     
23   C        14.8365   -7.8856   11.5457  C     
24   C        14.3665   -9.0015   12.2397  C     
25   C        13.2377   -8.8855   13.0499  C     
26   C        12.5349   -7.6673   13.1207  C     
27   C        11.3811   -7.6158   13.9389  C     
28   C        10.6148   -6.4479   14.0128  C     
29   C        10.9642   -5.3391   13.2370  C     
30   C        12.1152   -5.3807   12.4244  C     
31   C        12.9721   -6.5188   12.3746  C     
32   H        21.3945   -6.8457    4.2350  H     
33   H        20.1634   -5.6125    3.9134  H     
34   H        21.7935   -5.4430    3.2312  H     
35   H        22.9590   -2.5231    6.7683  H     
36   H        23.7158   -4.0483    7.2004  H     
37   H        22.6057   -5.3649    8.9085  H     
38   H        20.7509   -5.7908   10.3471  H     
39   H        18.7195   -5.3998   10.9770  H     
40   H        16.8584   -6.0960   11.6576  H     
41   H        13.3054   -4.6494   10.0095  H     
42   H        14.4479   -2.9838    8.8762  H     
43   H        18.4736   -1.8200    7.6644  H     
44   H        20.3810   -2.4225    6.8870  H     
45   H        15.6735   -8.0275   10.9707  H     
46   H        14.8683   -9.8894   12.1753  H     
47   H        12.9266   -9.7076   13.5722  H     
48   H        11.0839   -8.4310   14.4799  H     
49   H         9.7837   -6.4123   14.6062  H     
50   H        10.3734   -4.5037   13.2518  H     
51   H        12.2223   -4.5765   11.8167  H     
@<TRIPOS>BOND
     1    1    2 1
     2    2    3 1
     3    3    4 2
     4    3    5 1
     5    5    6 1
     6    6    7 ar
     7    7    8 ar
     8    8    9 ar
     9    9   10 1
    10   10   11 1
    11   11   12 ar
    12   12   13 ar
    13   13   14 ar
    14   14   15 ar
    15   15   16 ar
    16   11   16 ar
    17   16   17 1
    18   17   18 2
    19   17   19 1
    20   19   20 1
    21    9   20 ar
    22   20   21 ar
    23    6   21 ar
    24   13   22 1
    25   22   23 ar
    26   23   24 ar
    27   24   25 ar
    28   25   26 ar
    29   26   27 ar
    30   27   28 ar
    31   28   29 ar
    32   29   30 ar
    33   30   31 ar
    34   22   31 ar
    35   26   31 ar
    36    1   32 1
    37    1   33 1
    38    1   34 1
    39    5   35 1
    40    5   36 1
    41    7   37 1
    42    8   38 1
    43   10   39 1
    44   12   40 1
    45   14   41 1
    46   15   42 1
    47   19   43 1
    48   21   44 1
    49   23   45 1
    50   24   46 1
    51   25   47 1
    52   27   48 1
    53   28   49 1
    54   29   50 1
    55   30   51 1
@<TRIPOS>PROPERTY_DATA
  Total_Score	| 7.2181
  Crash		| -2.5007
  Polar		| 0.6358
  FragIndex	| 1
  FragRMSD	| 0.396

