@<TRIPOS>MOLECULE
BindingDB_91899
 31 33 0 0 0
SMALL
NO_CHARGES


@<TRIPOS>ATOM
1    O        21.6471   -4.9119    5.1379  O     
2    C        22.5869   -4.0192    5.5475  C     
3    O        23.6810   -3.8327    4.7670  O     
4    C        22.4809   -3.2888    6.8288  C     
5    C        21.3579   -3.7517    7.6922  C     
6    C        21.4903   -4.8997    8.5009  C     
7    C        20.4128   -5.3461    9.2783  C     
8    C        19.1787   -4.6593    9.2803  C     
9    N        18.2181   -5.2171   10.0467  N     
10   C        16.8992   -4.9362   10.2320  C     
11   C        16.2500   -5.8936   11.0520  C     
12   C        14.8800   -5.8089   11.3417  C     
13   Cl       14.1325   -6.9657   12.3268  Cl    
14   C        14.1356   -4.7450   10.8172  C     
15   C        14.7632   -3.7842   10.0098  C     
16   C        16.1517   -3.8472    9.6952  C     
17   C        16.7093   -2.8318    8.9082  C     
18   O        16.0148   -1.8820    8.5786  O     
19   N        17.9224   -2.7172    8.4134  N     
20   C        19.0286   -3.4983    8.4806  C     
21   C        20.1309   -3.0447    7.7160  C     
22   H        23.4430   -3.4093    7.3411  H     
23   H        22.3560   -2.2139    6.6230  H     
24   H        22.3648   -5.4318    8.5092  H     
25   H        20.5355   -6.2028    9.8330  H     
26   H        18.5147   -6.0028   10.5342  H     
27   H        16.7794   -6.6783   11.4459  H     
28   H        13.1297   -4.6658   11.0181  H     
29   H        14.1640   -3.0332    9.6464  H     
30   H        18.0537   -1.9181    7.8812  H     
31   H        20.0436   -2.2138    7.1361  H     
@<TRIPOS>BOND
     1    1    2 1
     2    2    3 2
     3    2    4 1
     4    4    5 1
     5    5    6 ar
     6    6    7 ar
     7    7    8 ar
     8    8    9 1
     9    9   10 1
    10   10   11 ar
    11   11   12 ar
    12   12   13 1
    13   12   14 ar
    14   14   15 ar
    15   15   16 ar
    16   10   16 ar
    17   16   17 1
    18   17   18 2
    19   17   19 1
    20   19   20 1
    21    8   20 ar
    22   20   21 ar
    23    5   21 ar
    24    4   22 1
    25    4   23 1
    26    6   24 1
    27    7   25 1
    28    9   26 1
    29   11   27 1
    30   14   28 1
    31   15   29 1
    32   19   30 1
    33   21   31 1
@<TRIPOS>PROPERTY_DATA
  Total_Score	| 4.3887
  Crash		| -0.1837
  Polar		| 1.2223
  FragIndex	| 1
  FragRMSD	| 0.141

