@<TRIPOS>MOLECULE
BindingDB_91853
 55 58 0 0 0
SMALL
NO_CHARGES


@<TRIPOS>ATOM
1    C        21.6106   -5.3366    3.7231  C     
2    O        21.6073   -4.7227    5.0174  O     
3    C        22.5575   -3.8691    5.4953  C     
4    O        23.6149   -3.5207    4.7152  O     
5    C        22.4864   -3.3078    6.8634  C     
6    C        21.3387   -3.7822    7.6833  C     
7    C        21.4557   -4.9412    8.4830  C     
8    C        20.3645   -5.3768    9.2546  C     
9    C        19.1435   -4.6696    9.2618  C     
10   N        18.2000   -5.1838   10.0742  N     
11   C        16.9151   -4.8350   10.3540  C     
12   C        16.3331   -5.6076   11.3833  C     
13   C        15.0034   -5.4376   11.8119  C     
14   C        14.1974   -4.5025   11.1103  C     
15   C        12.7724   -4.2196   11.4282  C     
16   C        14.7789   -3.7234   10.0887  C     
17   C        16.1537   -3.8092    9.7275  C     
18   C        16.6845   -2.8569    8.8433  C     
19   O        15.9931   -1.9167    8.4817  O     
20   N        17.9065   -2.7430    8.3568  N     
21   C        19.0172   -3.5114    8.4592  C     
22   C        20.1194   -3.0796    7.6880  C     
23   C        14.5920   -6.1168   12.9849  C     
24   C        15.2333   -5.8255   14.2178  C     
25   C        14.8947   -6.4954   15.3999  C     
26   C        13.8681   -7.4417   15.3762  C     
27   C        13.2230   -7.8018   14.1624  C     
28   N        12.1797   -8.6764   14.0830  N     
29   C        11.7259   -9.6706   14.8493  C     
30   O        10.6861  -10.1615   14.4224  O     
31   C        12.2952  -10.2839   16.0435  C     
32   C        13.5904   -7.1116   12.9807  C     
33   H        20.6885   -5.9157    3.6064  H     
34   H        22.4706   -6.0092    3.6188  H     
35   H        21.6487   -4.5697    2.9409  H     
36   H        23.4091   -3.5796    7.3909  H     
37   H        22.4887   -2.2218    6.7491  H     
38   H        22.3336   -5.4695    8.5060  H     
39   H        20.4907   -6.2111    9.8252  H     
40   H        18.5061   -5.9686   10.5593  H     
41   H        16.9120   -6.3110   11.8619  H     
42   H        12.6383   -3.1606   11.6303  H     
43   H        12.4073   -4.7517   12.2993  H     
44   H        12.1513   -4.5024   10.5771  H     
45   H        14.1852   -3.0335    9.6206  H     
46   H        18.0413   -1.9585    7.8019  H     
47   H        20.0306   -2.2321    7.1203  H     
48   H        15.9675   -5.1165   14.2636  H     
49   H        15.3683   -6.2733   16.2792  H     
50   H        13.6116   -7.8562   16.2572  H     
51   H        11.6736   -8.5611   13.2568  H     
52   H        13.0776   -9.7031   16.5365  H     
53   H        12.6954  -11.2641   15.7776  H     
54   H        11.4984  -10.4030   16.7811  H     
55   H        13.1161   -7.3610   12.1135  H     
@<TRIPOS>BOND
     1    1    2 1
     2    2    3 1
     3    3    4 2
     4    3    5 1
     5    5    6 1
     6    6    7 ar
     7    7    8 ar
     8    8    9 ar
     9    9   10 1
    10   10   11 1
    11   11   12 ar
    12   12   13 ar
    13   13   14 ar
    14   14   15 1
    15   14   16 ar
    16   16   17 ar
    17   11   17 ar
    18   17   18 1
    19   18   19 2
    20   18   20 1
    21   20   21 1
    22    9   21 ar
    23   21   22 ar
    24    6   22 ar
    25   13   23 1
    26   23   24 ar
    27   24   25 ar
    28   25   26 ar
    29   26   27 ar
    30   27   28 1
    31   28   29 am
    32   29   30 2
    33   29   31 1
    34   27   32 ar
    35   23   32 ar
    36    1   33 1
    37    1   34 1
    38    1   35 1
    39    5   36 1
    40    5   37 1
    41    7   38 1
    42    8   39 1
    43   10   40 1
    44   12   41 1
    45   15   42 1
    46   15   43 1
    47   15   44 1
    48   16   45 1
    49   20   46 1
    50   22   47 1
    51   24   48 1
    52   25   49 1
    53   26   50 1
    54   28   51 1
    55   31   52 1
    56   31   53 1
    57   31   54 1
    58   32   55 1
@<TRIPOS>PROPERTY_DATA
  Total_Score	| 8.0412
  Crash		| -0.9570
  Polar		| 1.2012
  FragIndex	| 1
  FragRMSD	| 0.296

