@<TRIPOS>MOLECULE
BindingDB_91860
 37 39 0 0 0
SMALL
NO_CHARGES


@<TRIPOS>ATOM
1    C        21.6703   -6.0014    4.2056  C     
2    O        21.8668   -5.2291    5.3899  O     
3    C        22.4457   -4.0064    5.4664  C     
4    O        22.9434   -3.4124    4.3646  O     
5    C        22.5304   -3.3386    6.7757  C     
6    C        21.4151   -3.7488    7.6674  C     
7    C        21.5443   -4.8791    8.5007  C     
8    C        20.4637   -5.3129    9.2835  C     
9    C        19.2233   -4.6377    9.2566  C     
10   N        18.2565   -5.2060   10.0076  N     
11   C        16.9281   -4.9512   10.1571  C     
12   C        16.2667   -5.9392   10.9265  C     
13   C        14.8854   -5.8769   11.1743  C     
14   N        14.2779   -6.8344   11.8974  N     
15   C        14.1451   -4.8094   10.6505  C     
16   C        14.7878   -3.8181    9.8940  C     
17   C        16.1885   -3.8545    9.6258  C     
18   C        16.7602   -2.8154    8.8756  C     
19   O        16.0754   -1.8485    8.5689  O     
20   N        17.9855   -2.6893    8.3963  N     
21   C        19.0886   -3.4761    8.4604  C     
22   C        20.1874   -3.0486    7.6744  C     
23   H        21.0025   -5.4819    3.5230  H     
24   H        21.2204   -6.9558    4.4837  H     
25   H        22.6260   -6.1949    3.7048  H     
26   H        22.5117   -2.2547    6.6498  H     
27   H        23.4967   -3.5966    7.2130  H     
28   H        22.4153   -5.4132    8.5229  H     
29   H        20.5874   -6.1500    9.8618  H     
30   H        18.5577   -5.9930   10.4897  H     
31   H        16.7926   -6.7305   11.3112  H     
32   H        14.7942   -7.5727   12.2573  H     
33   H        13.3239   -6.7846   12.0672  H     
34   H        13.1375   -4.7462   10.8182  H     
35   H        14.1991   -3.0640    9.5303  H     
36   H        18.1230   -1.8710    7.8924  H     
37   H        20.0941   -2.2159    7.0837  H     
@<TRIPOS>BOND
     1    1    2 1
     2    2    3 1
     3    3    4 2
     4    3    5 1
     5    5    6 1
     6    6    7 ar
     7    7    8 ar
     8    8    9 ar
     9    9   10 1
    10   10   11 1
    11   11   12 ar
    12   12   13 ar
    13   13   14 1
    14   13   15 ar
    15   15   16 ar
    16   16   17 ar
    17   11   17 ar
    18   17   18 1
    19   18   19 2
    20   18   20 1
    21   20   21 1
    22    9   21 ar
    23   21   22 ar
    24    6   22 ar
    25    1   23 1
    26    1   24 1
    27    1   25 1
    28    5   26 1
    29    5   27 1
    30    7   28 1
    31    8   29 1
    32   10   30 1
    33   12   31 1
    34   14   32 1
    35   14   33 1
    36   15   34 1
    37   16   35 1
    38   20   36 1
    39   22   37 1
@<TRIPOS>PROPERTY_DATA
  Total_Score	| 5.9170
  Crash		| -0.2802
  Polar		| 1.2026
  FragIndex	| 1
  FragRMSD	| 0.222

