@<TRIPOS>MOLECULE
BindingDB_91961
 32 34 0 0 0
SMALL
NO_CHARGES


@<TRIPOS>ATOM
1    O        22.2318   -2.3308    5.9617  O     
2    C        22.4138   -3.5334    6.6931  C     
3    C        22.5721   -4.5960    5.6831  C     
4    O        21.5783   -5.4935    5.4092  O     
5    O        23.5639   -4.4740    4.7639  O     
6    C        21.3110   -3.8389    7.6417  C     
7    C        21.4440   -4.9491    8.5093  C     
8    C        20.3877   -5.3299    9.3567  C     
9    C        19.1614   -4.6288    9.3506  C     
10   N        18.2053   -5.1575   10.1478  N     
11   C        16.8776   -4.8903   10.3064  C     
12   C        16.2147   -5.8428   11.1184  C     
13   C        14.8281   -5.7587   11.3714  C     
14   Cl       14.0519   -6.9203   12.3265  Cl    
15   C        14.0916   -4.7110   10.8095  C     
16   C        14.7414   -3.7508   10.0207  C     
17   C        16.1430   -3.8071    9.7451  C     
18   C        16.7110   -2.7942    8.9574  C     
19   O        16.0470   -1.8103    8.6514  O     
20   N        17.9265   -2.6881    8.4540  N     
21   C        19.0210   -3.4870    8.5213  C     
22   C        20.1047   -3.1030    7.6855  C     
23   H        22.7352   -1.6296    6.4475  H     
24   H        23.3578   -3.4381    7.2474  H     
25   H        22.2995   -5.5074    8.5151  H     
26   H        20.5043   -6.1537    9.9575  H     
27   H        18.5067   -5.9326   10.6578  H     
28   H        16.7284   -6.6270   11.5305  H     
29   H        13.0864   -4.6291   10.9730  H     
30   H        14.1581   -2.9909    9.6366  H     
31   H        18.0765   -1.8825    7.9283  H     
32   H        19.9914   -2.2849    7.0717  H     
@<TRIPOS>BOND
     1    1    2 1
     2    2    3 1
     3    3    4 2
     4    3    5 1
     5    2    6 1
     6    6    7 ar
     7    7    8 ar
     8    8    9 ar
     9    9   10 1
    10   10   11 1
    11   11   12 ar
    12   12   13 ar
    13   13   14 1
    14   13   15 ar
    15   15   16 ar
    16   16   17 ar
    17   11   17 ar
    18   17   18 1
    19   18   19 2
    20   18   20 1
    21   20   21 1
    22    9   21 ar
    23   21   22 ar
    24    6   22 ar
    25    1   23 1
    26    2   24 1
    27    7   25 1
    28    8   26 1
    29   10   27 1
    30   12   28 1
    31   15   29 1
    32   16   30 1
    33   20   31 1
    34   22   32 1
@<TRIPOS>PROPERTY_DATA
  Total_Score	| 4.3402
  Crash		| -0.4565
  Polar		| 2.0400
  FragIndex	| 1
  FragRMSD	| 0.271

