@<TRIPOS>MOLECULE
BindingDB_91933
 44 47 0 0 0
SMALL
NO_CHARGES


@<TRIPOS>ATOM
1    C         9.7690   -5.5018   13.2265  C     
2    O        10.4522   -6.7152   13.5723  O     
3    C        11.7429   -6.9519   13.1239  C     
4    C        12.5716   -6.0357   12.4426  C     
5    C        13.8460   -6.4281   11.9111  C     
6    C        14.2719   -7.7534   12.1941  C     
7    C        13.4558   -8.6105   12.9553  C     
8    N        12.2303   -8.1984   13.3720  N     
9    C        14.6226   -5.5334   11.0883  C     
10   C        13.9888   -4.5148   10.3332  C     
11   C        14.7164   -3.6114    9.5527  C     
12   C        16.1343   -3.7014    9.4281  C     
13   C        16.7804   -2.7272    8.6607  C     
14   O        16.1415   -1.7766    8.2319  O     
15   N        18.0492   -2.6616    8.3028  N     
16   C        19.0991   -3.4965    8.4772  C     
17   C        20.2466   -3.1158    7.7461  C     
18   C        21.4309   -3.8801    7.7842  C     
19   C        22.6223   -3.4937    6.9916  C     
20   C        22.7140   -4.1516    5.6724  C     
21   O        23.7057   -3.7942    4.8264  O     
22   O        21.7359   -4.9522    5.1874  O     
23   C        21.4537   -5.0386    8.5835  C     
24   C        20.3285   -5.4181    9.3321  C     
25   C        19.1346   -4.6569    9.2857  C     
26   N        18.1047   -5.1294   10.0222  N     
27   C        16.7920   -4.7674   10.1101  C     
28   C        16.0324   -5.6283   10.9507  C     
29   H        10.2712   -4.6296   13.6370  H     
30   H         8.7544   -5.5301   13.6611  H     
31   H         9.6694   -5.3987   12.1509  H     
32   H        12.2450   -5.0744   12.3268  H     
33   H        15.1632   -8.1200   11.8364  H     
34   H        13.7697   -9.5555   13.1779  H     
35   H        12.9713   -4.4106   10.3189  H     
36   H        14.1771   -2.8927    9.0567  H     
37   H        18.2674   -1.8704    7.7857  H     
38   H        20.2188   -2.2824    7.1520  H     
39   H        22.6367   -2.4178    6.8117  H     
40   H        23.5244   -3.7309    7.5597  H     
41   H        22.2923   -5.6190    8.6155  H     
42   H        20.3774   -6.2731    9.8922  H     
43   H        18.3171   -5.9197   10.5396  H     
44   H        16.5225   -6.3626   11.4810  H     
@<TRIPOS>BOND
     1    1    2 1
     2    2    3 1
     3    3    4 ar
     4    4    5 ar
     5    5    6 ar
     6    6    7 ar
     7    7    8 ar
     8    3    8 ar
     9    5    9 1
    10    9   10 ar
    11   10   11 ar
    12   11   12 ar
    13   12   13 1
    14   13   14 2
    15   13   15 1
    16   15   16 1
    17   16   17 ar
    18   17   18 ar
    19   18   19 1
    20   19   20 1
    21   20   21 2
    22   20   22 1
    23   18   23 ar
    24   23   24 ar
    25   24   25 ar
    26   16   25 ar
    27   25   26 1
    28   26   27 1
    29   12   27 ar
    30   27   28 ar
    31    9   28 ar
    32    1   29 1
    33    1   30 1
    34    1   31 1
    35    4   32 1
    36    6   33 1
    37    7   34 1
    38   10   35 1
    39   11   36 1
    40   15   37 1
    41   17   38 1
    42   19   39 1
    43   19   40 1
    44   23   41 1
    45   24   42 1
    46   26   43 1
    47   28   44 1
@<TRIPOS>PROPERTY_DATA
  Total_Score	| 7.3777
  Crash		| -0.7225
  Polar		| 2.1984
  FragIndex	| 1
  FragRMSD	| 0.312

