@<TRIPOS>MOLECULE
BindingDB_91851
 45 48 0 0 0
SMALL
NO_CHARGES


@<TRIPOS>ATOM
1    C        21.4886   -5.8456    4.0926  C     
2    O        21.5740   -5.0912    5.3082  O     
3    C        22.4942   -4.1464    5.6566  C     
4    O        23.4987   -3.8078    4.8111  O     
5    C        22.4283   -3.4412    6.9542  C     
6    C        21.2657   -3.8194    7.8039  C     
7    C        21.3383   -4.9549    8.6412  C     
8    C        20.2372   -5.3324    9.4234  C     
9    C        19.0260   -4.6071    9.3759  C     
10   N        18.0402   -5.1006   10.1555  N     
11   C        16.7098   -4.8223   10.2550  C     
12   C        16.0094   -5.7587   11.0529  C     
13   C        14.5980   -5.7419   11.2315  C     
14   C        13.9155   -4.6972   10.5556  C     
15   C        14.5960   -3.7373    9.7994  C     
16   C        16.0038   -3.7618    9.6230  C     
17   C        16.6089   -2.7490    8.8753  C     
18   O        15.9446   -1.7753    8.5543  O     
19   N        17.8500   -2.6588    8.4310  N     
20   C        18.9315   -3.4660    8.5441  C     
21   C        20.0596   -3.0822    7.7777  C     
22   C        13.9001   -6.7255   11.9934  C     
23   C        12.6675   -6.4808   12.5313  C     
24   C        11.9957   -7.4523   13.2258  C     
25   O        10.8485   -7.2811   13.6205  O     
26   N        12.5787   -8.6351   13.4240  N     
27   C        13.8021   -8.9075   12.9499  C     
28   C        14.4545   -7.9913   12.2179  C     
29   H        22.2912   -5.5990    3.3879  H     
30   H        21.5448   -6.9074    4.3282  H     
31   H        20.5323   -5.6394    3.6135  H     
32   H        23.3552   -3.6398    7.5003  H     
33   H        22.4030   -2.3668    6.7515  H     
34   H        22.1989   -5.5081    8.6909  H     
35   H        20.3235   -6.1654   10.0152  H     
36   H        18.3191   -5.8716   10.6869  H     
37   H        16.5637   -6.4726   11.5404  H     
38   H        12.8930   -4.6198   10.5888  H     
39   H        14.0183   -3.0210    9.3437  H     
40   H        18.0197   -1.8482    7.9229  H     
41   H        20.0031   -2.2526    7.1810  H     
42   H        12.2378   -5.5864   12.4740  H     
43   H        12.0987   -9.3234   13.9065  H     
44   H        14.2148   -9.7910   13.1327  H     
45   H        15.3291   -8.2623   11.8218  H     
@<TRIPOS>BOND
     1    1    2 1
     2    2    3 1
     3    3    4 2
     4    3    5 1
     5    5    6 1
     6    6    7 ar
     7    7    8 ar
     8    8    9 ar
     9    9   10 1
    10   10   11 1
    11   11   12 ar
    12   12   13 ar
    13   13   14 ar
    14   14   15 ar
    15   15   16 ar
    16   11   16 ar
    17   16   17 1
    18   17   18 2
    19   17   19 1
    20   19   20 1
    21    9   20 ar
    22   20   21 ar
    23    6   21 ar
    24   13   22 1
    25   22   23 2
    26   23   24 1
    27   24   25 2
    28   24   26 1
    29   26   27 1
    30   27   28 2
    31   22   28 1
    32    1   29 1
    33    1   30 1
    34    1   31 1
    35    5   32 1
    36    5   33 1
    37    7   34 1
    38    8   35 1
    39   10   36 1
    40   12   37 1
    41   14   38 1
    42   15   39 1
    43   19   40 1
    44   21   41 1
    45   23   42 1
    46   26   43 1
    47   27   44 1
    48   28   45 1
@<TRIPOS>PROPERTY_DATA
  Total_Score	| 8.8478
  Crash		| -0.4198
  Polar		| 2.3884
  FragIndex	| 1
  FragRMSD	| 0.282

