@<TRIPOS>MOLECULE
BindingDB_50305062
 60 63 0 0 0
SMALL
NO_CHARGES


@<TRIPOS>ATOM
1    C        18.1853   57.1056   29.9625  C     
2    C        19.3758   57.2303   30.6154  C     
3    C        20.0735   56.1564   31.0611  C     
4    C        17.6706   55.8948   29.6809  C     
5    C        18.3400   54.7117   30.0458  C     
6    C        19.5387   54.8665   30.8080  C     
7    N        20.1721   53.7568   31.2624  N     
8    C        19.7682   52.4993   30.9922  C     
9    C        18.6368   52.2616   30.1834  C     
10   C        17.8927   53.3914   29.7184  C     
11   C        16.7248   53.2092   28.9235  C     
12   C        15.5905   52.5558   29.4601  C     
13   C        14.4254   52.3733   28.6897  C     
14   C        14.3759   52.9077   27.3813  C     
15   C        15.4949   53.5597   26.8343  C     
16   C        16.6670   53.6978   27.5984  C     
17   O        13.3840   51.7057   29.2860  O     
18   C        12.7359   50.7802   28.5084  C     
19   C        13.3623   49.6011   28.0490  C     
20   C        12.6662   48.6999   27.2234  C     
21   C        11.3292   48.9645   26.8714  C     
22   C        10.6801   50.1153   27.3624  C     
23   C        11.3889   51.0186   28.1772  C     
24   S         9.0083   50.4263   26.9919  S     
25   C         7.8256   49.3969   27.9033  C     
26   O         8.6118   51.9406   27.3026  O     
27   O         8.7519   50.2441   25.4298  O     
28   C        21.3573   56.3182   31.7669  C     
29   F        22.3466   55.5464   31.1878  F     
30   F        21.8781   57.6005   31.7810  F     
31   F        21.2080   55.9340   33.0857  F     
32   C         8.4243   48.1243   28.5633  C     
33   C         9.3964   48.3714   29.7519  C     
34   C        18.3400   50.8337   29.8735  C     
35   O         8.8245   48.2289   31.0751  O     
36   C         8.2892   46.9454   31.4209  C     
37   H        17.6885   57.9256   29.7063  H     
38   H        19.7186   58.1524   30.7714  H     
39   H        16.7889   55.8584   29.2308  H     
40   H        20.3226   51.7234   31.3622  H     
41   H        15.6105   52.2040   30.4246  H     
42   H        13.5287   52.8229   26.8192  H     
43   H        15.4622   53.9259   25.8798  H     
44   H        17.4775   54.1738   27.1836  H     
45   H        14.3429   49.4124   28.2890  H     
46   H        13.1271   47.8588   26.8822  H     
47   H        10.8325   48.2953   26.2775  H     
48   H        10.9350   51.8625   28.5359  H     
49   H         7.3411   50.0070   28.6662  H     
50   H         7.0735   49.0966   27.1797  H     
51   H         7.5893   47.4962   28.8998  H     
52   H         8.9493   47.5528   27.7899  H     
53   H        10.2634   47.7064   29.6652  H     
54   H         9.7806   49.3956   29.7097  H     
55   H        19.2120   50.3669   29.4088  H     
56   H        17.4990   50.6993   29.1946  H     
57   H        18.1133   50.2981   30.7985  H     
58   H         7.2647   46.8577   31.0582  H     
59   H         8.2792   46.8707   32.5088  H     
60   H         8.8978   46.1192   31.0273  H     
@<TRIPOS>BOND
     1    1    2 1
     2    1    4 2
     3    2    3 2
     4    3    6 1
     5    3   28 1
     6    4    5 1
     7    5    6 1
     8    5   10 2
     9    6    7 2
    10    7    8 1
    11    8    9 2
    12    9   10 1
    13    9   34 1
    14   10   11 1
    15   11   12 2
    16   11   16 1
    17   12   13 1
    18   13   14 2
    19   13   17 1
    20   14   15 1
    21   15   16 2
    22   17   18 1
    23   18   19 2
    24   18   23 1
    25   19   20 1
    26   20   21 2
    27   21   22 1
    28   22   23 2
    29   22   24 1
    30   24   25 1
    31   24   26 2
    32   24   27 2
    33   25   32 1
    34   28   29 1
    35   28   30 1
    36   28   31 1
    37   32   33 1
    38   33   35 1
    39   35   36 1
    40    1   37 1
    41    2   38 1
    42    4   39 1
    43    8   40 1
    44   12   41 1
    45   14   42 1
    46   15   43 1
    47   16   44 1
    48   19   45 1
    49   20   46 1
    50   21   47 1
    51   23   48 1
    52   25   49 1
    53   25   50 1
    54   32   51 1
    55   32   52 1
    56   33   53 1
    57   33   54 1
    58   34   55 1
    59   34   56 1
    60   34   57 1
    61   36   58 1
    62   36   59 1
    63   36   60 1
@<TRIPOS>PROPERTY_DATA
  Total_Score	| 12.2753
  Crash		| -1.0564
  Polar		| 1.3300
  FragIndex	| 1
  FragRMSD	| 0.727

