@<TRIPOS>MOLECULE
BindingDB_50305069
 56 59 0 0 0
SMALL
NO_CHARGES


@<TRIPOS>ATOM
1    C        18.2056   57.0143   30.0271  C     
2    C        19.3460   57.1135   30.7715  C     
3    C        20.0837   56.0241   31.1157  C     
4    C        17.7451   55.8177   29.6156  C     
5    C        18.3948   54.6291   29.9861  C     
6    C        19.5526   54.7553   30.7961  C     
7    N        20.1222   53.6307   31.2877  N     
8    C        19.7310   52.3858   30.9847  C     
9    C        18.6580   52.1715   30.0927  C     
10   C        17.9355   53.3204   29.6215  C     
11   C        16.7489   53.1243   28.8429  C     
12   C        15.6026   52.4900   29.3889  C     
13   C        14.4454   52.2637   28.6143  C     
14   C        14.4083   52.7270   27.2861  C     
15   C        15.5185   53.3502   26.7153  C     
16   C        16.6911   53.5392   27.4834  C     
17   O        13.3899   51.6301   29.2263  O     
18   C        12.7428   50.6527   28.5111  C     
19   C        13.4089   49.5054   28.0275  C     
20   C        12.7174   48.5663   27.2507  C     
21   C        11.3532   48.7534   26.9509  C     
22   C        10.6521   49.8733   27.4823  C     
23   C        11.3661   50.8097   28.2557  C     
24   S         8.9506   50.0500   27.1095  S     
25   C         7.9564   51.2601   28.0206  C     
26   O         8.7717   50.3158   25.5551  O     
27   O         8.2400   48.6310   27.3126  O     
28   C        21.3787   56.2025   31.7857  C     
29   F        22.2995   55.2048   31.5383  F     
30   F        22.0459   57.3495   31.3936  F     
31   F        21.1872   56.2736   33.1508  F     
32   C         8.5180   52.6965   28.1857  C     
33   C        18.3986   50.7658   29.6871  C     
34   C         9.3317   53.2614   26.9925  C     
35   H        17.7217   57.8420   29.7684  H     
36   H        19.6465   58.0273   31.0396  H     
37   H        16.9231   55.8070   29.0602  H     
38   H        20.2496   51.6026   31.3812  H     
39   H        15.6275   52.1713   30.3659  H     
40   H        13.5820   52.5896   26.7189  H     
41   H        15.5045   53.6565   25.7374  H     
42   H        17.5147   53.9949   27.0437  H     
43   H        14.3953   49.3793   28.2377  H     
44   H        13.2167   47.7499   26.8878  H     
45   H        10.8683   48.0573   26.3815  H     
46   H        10.8799   51.6396   28.6495  H     
47   H         6.9945   51.3223   27.5115  H     
48   H         7.7715   50.8403   29.0244  H     
49   H         7.6813   53.3665   28.3804  H     
50   H         9.1651   52.7159   29.0671  H     
51   H        19.3411   50.2531   29.4601  H     
52   H        17.7732   50.6850   28.7936  H     
53   H        17.9045   50.2318   30.5039  H     
54   H        10.2594   52.7187   26.8421  H     
55   H         9.5724   54.3148   27.1813  H     
56   H         8.7464   53.1872   26.0839  H     
@<TRIPOS>BOND
     1    1    2 1
     2    1    4 2
     3    2    3 2
     4    3    6 1
     5    3   28 1
     6    4    5 1
     7    5    6 1
     8    5   10 2
     9    6    7 2
    10    7    8 1
    11    8    9 2
    12    9   10 1
    13    9   33 1
    14   10   11 1
    15   11   12 2
    16   11   16 1
    17   12   13 1
    18   13   14 2
    19   13   17 1
    20   14   15 1
    21   15   16 2
    22   17   18 1
    23   18   19 2
    24   18   23 1
    25   19   20 1
    26   20   21 2
    27   21   22 1
    28   22   23 2
    29   22   24 1
    30   24   25 1
    31   24   26 2
    32   24   27 2
    33   25   32 1
    34   28   29 1
    35   28   30 1
    36   28   31 1
    37   32   34 1
    38    1   35 1
    39    2   36 1
    40    4   37 1
    41    8   38 1
    42   12   39 1
    43   14   40 1
    44   15   41 1
    45   16   42 1
    46   19   43 1
    47   20   44 1
    48   21   45 1
    49   23   46 1
    50   25   47 1
    51   25   48 1
    52   32   49 1
    53   32   50 1
    54   33   51 1
    55   33   52 1
    56   33   53 1
    57   34   54 1
    58   34   55 1
    59   34   56 1
@<TRIPOS>PROPERTY_DATA
  Total_Score	| 12.7395
  Crash		| -1.7782
  Polar		| 1.9873
  FragIndex	| 1
  FragRMSD	| 0.279

