@<TRIPOS>MOLECULE
BindingDB_50305064
 57 60 0 0 0
SMALL
NO_CHARGES


@<TRIPOS>ATOM
1    C        18.2132   56.9651   30.0032  C     
2    C        19.3702   57.0508   30.7193  C     
3    C        20.0762   55.9552   31.0978  C     
4    C        17.7138   55.7730   29.6323  C     
5    C        18.3724   54.5725   29.9542  C     
6    C        19.5552   54.6826   30.7488  C     
7    N        20.1696   53.5468   31.1548  N     
8    C        19.7593   52.3075   30.8278  C     
9    C        18.6389   52.1147   29.9944  C     
10   C        17.9089   53.2722   29.5807  C     
11   C        16.7218   53.1242   28.8042  C     
12   C        15.5754   52.5339   29.3808  C     
13   C        14.3826   52.3898   28.6421  C     
14   C        14.3107   52.9249   27.3320  C     
15   C        15.4503   53.5011   26.7412  C     
16   C        16.6553   53.5797   27.4668  C     
17   O        13.3219   51.7556   29.2457  O     
18   C        12.7061   50.7831   28.4969  C     
19   C        13.3577   49.5978   28.0908  C     
20   C        12.6816   48.6734   27.2692  C     
21   C        11.3337   48.8954   26.9245  C     
22   C        10.6475   50.0317   27.4055  C     
23   C        11.3490   50.9845   28.1729  C     
24   S         8.9380   50.2360   27.1055  S     
25   C         7.9057   48.9833   27.9177  C     
26   O         8.4449   51.6554   27.6302  O     
27   O         8.6554   50.2819   25.5393  O     
28   C        21.3215   56.1618   31.8729  C     
29   F        22.1184   55.0580   32.0728  F     
30   F        22.1436   57.0757   31.2498  F     
31   F        21.0006   56.6369   33.1235  F     
32   C         8.6690   47.7934   28.5578  C     
33   C         9.5295   48.1410   29.8086  C     
34   C        18.3240   50.7108   29.6209  C     
35   O         8.9832   47.6099   31.0078  O     
36   H        17.7215   57.7966   29.7622  H     
37   H        19.6939   57.9646   30.9556  H     
38   H        16.8558   55.7638   29.1362  H     
39   H        20.3028   51.5161   31.1749  H     
40   H        15.5899   52.1985   30.3457  H     
41   H        13.4395   52.8787   26.7949  H     
42   H        15.4047   53.8665   25.7807  H     
43   H        17.4799   53.9860   27.0207  H     
44   H        14.3244   49.4209   28.3694  H     
45   H        13.1662   47.8323   26.9438  H     
46   H        10.8555   48.2082   26.3450  H     
47   H        10.8775   51.8284   28.5076  H     
48   H         7.2936   49.4749   28.6787  H     
49   H         7.2237   48.5809   27.1632  H     
50   H         7.9333   47.0378   28.8540  H     
51   H         9.3119   47.3387   27.7990  H     
52   H        10.5346   47.7322   29.6929  H     
53   H         9.6179   49.2250   29.9297  H     
54   H        19.1985   50.2471   29.1539  H     
55   H        17.5026   50.6233   28.9137  H     
56   H        18.0654   50.1378   30.5151  H     
57   H         8.1481   48.0999   31.1599  H     
@<TRIPOS>BOND
     1    1    2 1
     2    1    4 2
     3    2    3 2
     4    3    6 1
     5    3   28 1
     6    4    5 1
     7    5    6 1
     8    5   10 2
     9    6    7 2
    10    7    8 1
    11    8    9 2
    12    9   10 1
    13    9   34 1
    14   10   11 1
    15   11   12 2
    16   11   16 1
    17   12   13 1
    18   13   14 2
    19   13   17 1
    20   14   15 1
    21   15   16 2
    22   17   18 1
    23   18   19 2
    24   18   23 1
    25   19   20 1
    26   20   21 2
    27   21   22 1
    28   22   23 2
    29   22   24 1
    30   24   25 1
    31   24   26 2
    32   24   27 2
    33   25   32 1
    34   28   29 1
    35   28   30 1
    36   28   31 1
    37   32   33 1
    38   33   35 1
    39    1   36 1
    40    2   37 1
    41    4   38 1
    42    8   39 1
    43   12   40 1
    44   14   41 1
    45   15   42 1
    46   16   43 1
    47   19   44 1
    48   20   45 1
    49   21   46 1
    50   23   47 1
    51   25   48 1
    52   25   49 1
    53   32   50 1
    54   32   51 1
    55   33   52 1
    56   33   53 1
    57   34   54 1
    58   34   55 1
    59   34   56 1
    60   35   57 1
@<TRIPOS>PROPERTY_DATA
  Total_Score	| 12.3076
  Crash		| -1.4463
  Polar		| 3.0503
  FragIndex	| 1
  FragRMSD	| 0.784

