@<TRIPOS>MOLECULE
BindingDB_50305060
 50 53 0 0 0
SMALL
NO_CHARGES


@<TRIPOS>ATOM
1    C        18.2837   57.0349   30.0849  C     
2    C        19.4662   57.0812   30.7702  C     
3    C        20.1426   55.9593   31.1370  C     
4    C        17.7349   55.8628   29.7150  C     
5    C        18.3597   54.6439   30.0335  C     
6    C        19.5386   54.7156   30.8433  C     
7    N        20.1078   53.5618   31.2718  N     
8    C        19.6424   52.3375   30.9651  C     
9    C        18.5612   52.1851   30.0694  C     
10   C        17.8679   53.3586   29.6367  C     
11   C        16.7349   53.2107   28.7814  C     
12   C        15.5199   52.6543   29.2523  C     
13   C        14.3944   52.4988   28.4196  C     
14   C        14.4392   53.0681   27.1125  C     
15   C        15.6492   53.6185   26.6265  C     
16   C        16.7892   53.6789   27.4500  C     
17   O        13.2508   51.9451   28.9499  O     
18   C        12.6347   50.9675   28.2388  C     
19   C        13.2727   49.7720   27.8018  C     
20   C        12.5325   48.7575   27.1699  C     
21   C        11.1348   48.8985   26.9763  C     
22   C        10.4925   50.0758   27.4266  C     
23   C        11.2476   51.0990   28.0403  C     
24   S         8.7641   50.2032   27.2936  S     
25   C         7.9918   51.4232   28.3821  C     
26   O         8.3875   50.4827   25.7550  O     
27   O         8.0817   48.8075   27.7050  O     
28   C        21.4542   56.1053   31.8184  C     
29   F        22.2282   54.9744   31.9828  F     
30   F        22.2691   56.9798   31.1232  F     
31   F        21.2427   56.5853   33.0983  F     
32   C        18.2801   50.7896   29.6303  C     
33   F        13.1173   47.6424   26.7944  F     
34   H        17.8311   57.8826   29.8378  H     
35   H        19.8455   57.9847   30.9660  H     
36   H        16.8765   55.8617   29.2313  H     
37   H        20.1679   51.5350   31.3135  H     
38   H        15.4741   52.3124   30.2065  H     
39   H        13.6073   53.0636   26.5232  H     
40   H        15.6688   54.0244   25.6872  H     
41   H        17.6500   54.0800   27.0542  H     
42   H        14.2684   49.6176   27.9538  H     
43   H        10.5774   48.1414   26.5659  H     
44   H        10.7954   51.9563   28.3604  H     
45   H         8.3155   51.2271   29.4124  H     
46   H         6.9008   51.3362   28.3196  H     
47   H         8.2715   52.4441   28.0988  H     
48   H        19.1815   50.3914   29.1476  H     
49   H        17.4567   50.7102   28.9151  H     
50   H        18.0394   50.1579   30.4954  H     
@<TRIPOS>BOND
     1    1    2 1
     2    1    4 2
     3    2    3 2
     4    3    6 1
     5    3   28 1
     6    4    5 1
     7    5    6 1
     8    5   10 2
     9    6    7 2
    10    7    8 1
    11    8    9 2
    12    9   10 1
    13    9   32 1
    14   10   11 1
    15   11   12 2
    16   11   16 1
    17   12   13 1
    18   13   14 2
    19   13   17 1
    20   14   15 1
    21   15   16 2
    22   17   18 1
    23   18   19 2
    24   18   23 1
    25   19   20 1
    26   20   21 2
    27   20   33 1
    28   21   22 1
    29   22   23 2
    30   22   24 1
    31   24   25 1
    32   24   26 2
    33   24   27 2
    34   28   29 1
    35   28   30 1
    36   28   31 1
    37    1   34 1
    38    2   35 1
    39    4   36 1
    40    8   37 1
    41   12   38 1
    42   14   39 1
    43   15   40 1
    44   16   41 1
    45   19   42 1
    46   21   43 1
    47   23   44 1
    48   25   45 1
    49   25   46 1
    50   25   47 1
    51   32   48 1
    52   32   49 1
    53   32   50 1
@<TRIPOS>PROPERTY_DATA
  Total_Score	| 11.2461
  Crash		| -1.1476
  Polar		| 2.0130
  FragIndex	| 1
  FragRMSD	| 0.271

