@<TRIPOS>MOLECULE
BindingDB_50305075
 60 64 0 0 0
SMALL
NO_CHARGES


@<TRIPOS>ATOM
1    C        18.2611   57.1554   29.9191  C     
2    C        19.4318   57.2449   30.6134  C     
3    C        20.0766   56.1519   31.0877  C     
4    C        17.6950   55.9636   29.6740  C     
5    C        18.2823   54.7601   30.1047  C     
6    C        19.4866   54.8841   30.8668  C     
7    N        20.0613   53.7688   31.3632  N     
8    C        19.6141   52.5219   31.1196  C     
9    C        18.4788   52.3050   30.3081  C     
10   C        17.7690   53.4525   29.8209  C     
11   C        16.5937   53.2890   29.0195  C     
12   C        15.4439   52.6221   29.5121  C     
13   C        14.3028   52.4166   28.7016  C     
14   C        14.2960   52.9478   27.3916  C     
15   C        15.4256   53.6148   26.8880  C     
16   C        16.5699   53.7696   27.6881  C     
17   O        13.2332   51.7600   29.2605  O     
18   C        12.6236   50.7807   28.5181  C     
19   C        13.2751   49.5757   28.1889  C     
20   C        12.6034   48.5883   27.4523  C     
21   C        11.2517   48.7577   27.1015  C     
22   C        10.5621   49.9280   27.4929  C     
23   C        11.2638   50.9407   28.1749  C     
24   S         8.8582   50.1075   27.1751  S     
25   C         8.0958   51.4023   28.1855  C     
26   O         8.6514   50.5256   25.6473  O     
27   O         8.0673   48.7526   27.4375  O     
28   C        18.1061   50.8801   30.0125  C     
29   C        21.3213   56.2838   31.8622  C     
30   F        22.2925   55.3782   31.4630  F     
31   F        21.9460   57.5139   31.7747  F     
32   F        21.0491   56.0629   33.1993  F     
33   C        17.9288   50.6049   28.5621  C     
34   C        16.6326   50.4508   28.0189  C     
35   C        16.4322   50.2944   26.6401  C     
36   C        17.5388   50.2437   25.7778  C     
37   C        18.8393   50.3586   26.3069  C     
38   C        19.0414   50.5355   27.6872  C     
39   H        17.8165   57.9881   29.6036  H     
40   H        19.7948   58.1530   30.7818  H     
41   H        16.8255   55.9582   29.1895  H     
42   H        20.1406   51.7458   31.5230  H     
43   H        15.4352   52.2687   30.4697  H     
44   H        13.4714   52.8369   26.7971  H     
45   H        15.4144   53.9852   25.9344  H     
46   H        17.3887   54.2358   27.2920  H     
47   H        14.2373   49.4065   28.4975  H     
48   H        13.0974   47.7342   27.1826  H     
49   H        10.7725   48.0213   26.5838  H     
50   H        10.7895   51.8081   28.4467  H     
51   H         8.3260   51.2171   29.2374  H     
52   H         7.0173   51.3896   28.0468  H     
53   H         8.4792   52.3871   27.8980  H     
54   H        18.8565   50.1769   30.3802  H     
55   H        17.2022   50.6481   30.5763  H     
56   H        15.8132   50.5219   28.6268  H     
57   H        15.4789   50.2270   26.2655  H     
58   H        17.3997   50.1356   24.7723  H     
59   H        19.6394   50.3570   25.6777  H     
60   H        19.9971   50.6363   28.0487  H     
@<TRIPOS>BOND
     1    1    2 1
     2    1    4 2
     3    2    3 2
     4    3    6 1
     5    3   29 1
     6    4    5 1
     7    5    6 1
     8    5   10 2
     9    6    7 2
    10    7    8 1
    11    8    9 2
    12    9   10 1
    13    9   28 1
    14   10   11 1
    15   11   12 2
    16   11   16 1
    17   12   13 1
    18   13   14 2
    19   13   17 1
    20   14   15 1
    21   15   16 2
    22   17   18 1
    23   18   19 2
    24   18   23 1
    25   19   20 1
    26   20   21 2
    27   21   22 1
    28   22   23 2
    29   22   24 1
    30   24   25 1
    31   24   26 2
    32   24   27 2
    33   28   33 1
    34   29   30 1
    35   29   31 1
    36   29   32 1
    37   33   34 2
    38   33   38 1
    39   34   35 1
    40   35   36 2
    41   36   37 1
    42   37   38 2
    43    1   39 1
    44    2   40 1
    45    4   41 1
    46    8   42 1
    47   12   43 1
    48   14   44 1
    49   15   45 1
    50   16   46 1
    51   19   47 1
    52   20   48 1
    53   21   49 1
    54   23   50 1
    55   25   51 1
    56   25   52 1
    57   25   53 1
    58   28   54 1
    59   28   55 1
    60   34   56 1
    61   35   57 1
    62   36   58 1
    63   37   59 1
    64   38   60 1
@<TRIPOS>PROPERTY_DATA
  Total_Score	| 11.6924
  Crash		| -3.2101
  Polar		| 2.0743
  FragIndex	| 1
  FragRMSD	| 0.173

