@<TRIPOS>MOLECULE
BindingDB_50305070
 53 56 0 0 0
SMALL
NO_CHARGES


@<TRIPOS>ATOM
1    C        18.4405   56.9496   29.8177  C     
2    C        19.5990   57.0405   30.5264  C     
3    C        20.2888   55.9499   30.9496  C     
4    C        17.9130   55.7504   29.5040  C     
5    C        18.5424   54.5542   29.8882  C     
6    C        19.7448   54.6696   30.6504  C     
7    N        20.3460   53.5391   31.0882  N     
8    C        19.9087   52.2932   30.8140  C     
9    C        18.7454   52.0956   30.0467  C     
10   C        18.0435   53.2455   29.5819  C     
11   C        16.8558   53.0837   28.8086  C     
12   C        15.7357   52.4139   29.3527  C     
13   C        14.5794   52.1724   28.5789  C     
14   C        14.5120   52.7012   27.2654  C     
15   C        15.6138   53.3892   26.7174  C     
16   C        16.7855   53.5646   27.4772  C     
17   O        13.5915   51.4480   29.2076  O     
18   C        12.9050   50.5438   28.4490  C     
19   C        13.4619   49.3297   27.9891  C     
20   C        12.6803   48.4531   27.2185  C     
21   C        11.3272   48.7571   26.9425  C     
22   C        10.7460   49.9504   27.4430  C     
23   C        11.5517   50.8323   28.1989  C     
24   S         9.0464   50.2874   27.1903  S     
25   C         8.4023   51.7127   28.1044  C     
26   O         8.7540   50.4901   25.6391  O     
27   O         8.1951   48.9968   27.6104  O     
28   C        21.5615   56.1617   31.6571  C     
29   F        22.2972   55.0505   31.9978  F     
30   F        22.4194   56.9197   30.8802  F     
31   F        21.3365   56.8275   32.8466  F     
32   C         8.9863   53.0236   27.5300  C     
33   C        18.3668   50.6716   29.7842  C     
34   H        17.9759   57.7806   29.5316  H     
35   H        19.9466   57.9562   30.7182  H     
36   H        17.0630   55.7443   28.9968  H     
37   H        20.4565   51.5047   31.1684  H     
38   H        15.7697   52.0632   30.3139  H     
39   H        13.6761   52.5809   26.6901  H     
40   H        15.5678   53.7563   25.7625  H     
41   H        17.5885   54.0450   27.0595  H     
42   H        14.4434   49.1108   28.1905  H     
43   H        13.0914   47.5836   26.8727  H     
44   H        10.7646   48.0915   26.3948  H     
45   H        11.1725   51.7131   28.5571  H     
46   H         7.3140   51.7127   28.0194  H     
47   H         8.6573   51.6328   29.1685  H     
48   H        10.0780   52.9807   27.4733  H     
49   H         8.7023   53.8650   28.1656  H     
50   H         8.5916   53.1841   26.5269  H     
51   H        19.2128   50.1277   29.3493  H     
52   H        17.5298   50.5570   29.0983  H     
53   H        18.0948   50.1875   30.7349  H     
@<TRIPOS>BOND
     1    1    2 1
     2    1    4 2
     3    2    3 2
     4    3    6 1
     5    3   28 1
     6    4    5 1
     7    5    6 1
     8    5   10 2
     9    6    7 2
    10    7    8 1
    11    8    9 2
    12    9   10 1
    13    9   33 1
    14   10   11 1
    15   11   12 2
    16   11   16 1
    17   12   13 1
    18   13   14 2
    19   13   17 1
    20   14   15 1
    21   15   16 2
    22   17   18 1
    23   18   19 2
    24   18   23 1
    25   19   20 1
    26   20   21 2
    27   21   22 1
    28   22   23 2
    29   22   24 1
    30   24   25 1
    31   24   26 2
    32   24   27 2
    33   25   32 1
    34   28   29 1
    35   28   30 1
    36   28   31 1
    37    1   34 1
    38    2   35 1
    39    4   36 1
    40    8   37 1
    41   12   38 1
    42   14   39 1
    43   15   40 1
    44   16   41 1
    45   19   42 1
    46   20   43 1
    47   21   44 1
    48   23   45 1
    49   25   46 1
    50   25   47 1
    51   32   48 1
    52   32   49 1
    53   32   50 1
    54   33   51 1
    55   33   52 1
    56   33   53 1
@<TRIPOS>PROPERTY_DATA
  Total_Score	| 11.8712
  Crash		| -1.3381
  Polar		| 1.7078
  FragIndex	| 1
  FragRMSD	| 0.554

