@<TRIPOS>MOLECULE
BindingDB_50305499
 48 51 0 0 0
SMALL
NO_CHARGES


@<TRIPOS>ATOM
1    C        18.5544   52.3261   30.2266  C     
2    C        19.7002   52.5519   31.0146  C     
3    N        20.1362   53.8099   31.2268  N     
4    C        17.8711   53.4423   29.6608  C     
5    C        18.3732   54.7553   29.9087  C     
6    C        19.5452   54.9167   30.7097  C     
7    C        20.0988   56.1999   30.9352  C     
8    C        19.4492   57.2685   30.4117  C     
9    C        18.3002   57.1411   29.6841  C     
10   C        17.7780   55.9317   29.4176  C     
11   C        21.3534   56.3590   31.6887  C     
12   F        21.8494   57.6395   31.7744  F     
13   F        21.1917   55.9202   32.9789  F     
14   F        22.3538   55.6166   31.1139  F     
15   C        16.7201   53.2468   28.8360  C     
16   C        15.5505   52.6555   29.3680  C     
17   C        14.4160   52.4525   28.5597  C     
18   C        14.4056   52.9360   27.2289  C     
19   C        15.5787   53.4874   26.6787  C     
20   C        16.7292   53.6346   27.4746  C     
21   O        13.3453   51.8259   29.1391  O     
22   C        12.7356   50.8056   28.4429  C     
23   C        11.3579   50.9580   28.1926  C     
24   C        10.6269   49.9678   27.5031  C     
25   C        11.2982   48.8157   27.0404  C     
26   C        12.6662   48.6300   27.3122  C     
27   C        13.3788   49.6131   28.0237  C     
28   S         8.9157   50.1514   27.1945  S     
29   C         8.0941   51.3836   28.2244  C     
30   O         8.7024   50.5313   25.6641  O     
31   O         8.1920   48.7603   27.4636  O     
32   C        18.1976   51.0828   30.0302  C     
33   N        17.8916   49.9889   29.8639  N     
34   H        20.2223   51.7762   31.4332  H     
35   H        19.8081   58.1896   30.5340  H     
36   H        17.8485   57.9579   29.3323  H     
37   H        16.9496   55.8934   28.8677  H     
38   H        15.5167   52.3698   30.3528  H     
39   H        13.5622   52.8595   26.6514  H     
40   H        15.5937   53.7889   25.7022  H     
41   H        17.5733   54.0453   27.0628  H     
42   H        10.8897   51.8036   28.5231  H     
43   H        10.7916   48.0993   26.5167  H     
44   H        13.1401   47.7760   26.9940  H     
45   H        14.3667   49.4626   28.2275  H     
46   H         8.2915   51.1749   29.2786  H     
47   H         7.0193   51.3377   28.0469  H     
48   H         8.4526   52.3800   27.9704  H     
@<TRIPOS>BOND
     1    1    2 2
     2    1    4 1
     3    1   32 1
     4    2    3 1
     5    3    6 2
     6    4    5 2
     7    4   15 1
     8    5    6 1
     9    5   10 1
    10    6    7 1
    11    7    8 2
    12    7   11 1
    13    8    9 1
    14    9   10 2
    15   11   12 1
    16   11   13 1
    17   11   14 1
    18   15   16 2
    19   15   20 1
    20   16   17 1
    21   17   18 2
    22   17   21 1
    23   18   19 1
    24   19   20 2
    25   21   22 1
    26   22   23 2
    27   22   27 1
    28   23   24 1
    29   24   25 2
    30   24   28 1
    31   25   26 1
    32   26   27 2
    33   28   29 1
    34   28   30 2
    35   28   31 2
    36   32   33 3
    37    2   34 1
    38    8   35 1
    39    9   36 1
    40   10   37 1
    41   16   38 1
    42   18   39 1
    43   19   40 1
    44   20   41 1
    45   23   42 1
    46   25   43 1
    47   26   44 1
    48   27   45 1
    49   29   46 1
    50   29   47 1
    51   29   48 1
@<TRIPOS>PROPERTY_DATA
  Total_Score	| 11.4693
  Crash		| -0.6505
  Polar		| 1.9724
  FragIndex	| 1
  FragRMSD	| 0.154

