@<TRIPOS>MOLECULE
BindingDB_50305061
 54 57 0 0 0
SMALL
NO_CHARGES


@<TRIPOS>ATOM
1    C        18.2500   57.0305   29.9406  C     
2    C        19.3235   57.0807   30.7812  C     
3    C        20.0135   55.9751   31.1508  C     
4    C        17.7975   55.8593   29.4641  C     
5    C        18.3974   54.6420   29.8379  C     
6    C        19.5152   54.7148   30.7248  C     
7    N        20.0690   53.5556   31.1573  N     
8    C        19.6602   52.3299   30.7699  C     
9    C        18.5991   52.1773   29.8574  C     
10   C        17.9404   53.3585   29.3973  C     
11   C        16.8300   53.2624   28.5169  C     
12   C        15.5338   53.0470   29.0337  C     
13   C        14.4176   53.0126   28.1807  C     
14   C        14.5925   53.1671   26.7860  C     
15   C        15.8850   53.3582   26.2595  C     
16   C        16.9950   53.4206   27.1186  C     
17   O        13.1748   52.9129   28.7503  O     
18   C        12.5532   51.7074   28.5720  C     
19   C        13.1341   50.4878   28.9843  C     
20   C        12.4276   49.2872   28.8349  C     
21   C        11.1082   49.2899   28.3237  C     
22   C        10.5190   50.5101   27.9031  C     
23   C        11.2485   51.7113   28.0382  C     
24   S         8.8961   50.6029   27.2816  S     
25   C         7.8742   51.5908   28.3890  C     
26   O         8.9099   51.3023   25.8458  O     
27   O         8.2388   49.1598   27.1277  O     
28   C        21.2073   56.1363   32.0036  C     
29   F        22.0604   55.0576   32.0608  F     
30   F        22.0029   57.1768   31.5830  F     
31   F        20.8014   56.4047   33.2899  F     
32   C        18.2698   50.7901   29.4295  C     
33   O        10.4140   48.1237   28.2312  O     
34   C         9.7795   47.7300   29.4607  C     
35   H        17.8047   57.8789   29.6645  H     
36   H        19.6092   57.9810   31.1032  H     
37   H        17.0216   55.8758   28.8432  H     
38   H        20.1609   51.5172   31.1382  H     
39   H        15.3981   52.9298   30.0415  H     
40   H        13.7866   53.1477   26.1612  H     
41   H        16.0084   53.4667   25.2534  H     
42   H        17.9250   53.5920   26.7219  H     
43   H        14.0676   50.4680   29.3899  H     
44   H        12.8534   48.4050   29.1237  H     
45   H        10.8361   52.6007   27.7671  H     
46   H         7.8545   51.1027   29.3659  H     
47   H         6.8596   51.6796   28.0092  H     
48   H         8.3040   52.5909   28.4943  H     
49   H        19.1428   50.3422   28.9506  H     
50   H        17.4437   50.7372   28.7222  H     
51   H        18.0025   50.1854   30.2998  H     
52   H        10.5279   47.5495   30.2459  H     
53   H         9.2512   46.7955   29.2827  H     
54   H         9.0633   48.4685   29.8090  H     
@<TRIPOS>BOND
     1    1    2 1
     2    1    4 2
     3    2    3 2
     4    3    6 1
     5    3   28 1
     6    4    5 1
     7    5    6 1
     8    5   10 2
     9    6    7 2
    10    7    8 1
    11    8    9 2
    12    9   10 1
    13    9   32 1
    14   10   11 1
    15   11   12 2
    16   11   16 1
    17   12   13 1
    18   13   14 2
    19   13   17 1
    20   14   15 1
    21   15   16 2
    22   17   18 1
    23   18   19 2
    24   18   23 1
    25   19   20 1
    26   20   21 2
    27   21   22 1
    28   21   33 1
    29   22   23 2
    30   22   24 1
    31   24   25 1
    32   24   26 2
    33   24   27 2
    34   28   29 1
    35   28   30 1
    36   28   31 1
    37   33   34 1
    38    1   35 1
    39    2   36 1
    40    4   37 1
    41    8   38 1
    42   12   39 1
    43   14   40 1
    44   15   41 1
    45   16   42 1
    46   19   43 1
    47   20   44 1
    48   23   45 1
    49   25   46 1
    50   25   47 1
    51   25   48 1
    52   32   49 1
    53   32   50 1
    54   32   51 1
    55   34   52 1
    56   34   53 1
    57   34   54 1
@<TRIPOS>PROPERTY_DATA
  Total_Score	| 11.0907
  Crash		| -1.4695
  Polar		| 1.7616
  FragIndex	| 1
  FragRMSD	| 0.556

