@<TRIPOS>MOLECULE
BindingDB_50305059
 50 53 0 0 0
SMALL
NO_CHARGES


@<TRIPOS>ATOM
1    C        18.2258   57.1141   29.9977  C     
2    C        19.3588   57.1340   30.7598  C     
3    C        20.0304   56.0035   31.0963  C     
4    C        17.7061   55.9544   29.5596  C     
5    C        18.2901   54.7189   29.8984  C     
6    C        19.4552   54.7630   30.7245  C     
7    N        19.9828   53.5895   31.1667  N     
8    C        19.5106   52.3746   30.8132  C     
9    C        18.4106   52.2537   29.9387  C     
10   C        17.7809   53.4512   29.4878  C     
11   C        16.6488   53.3873   28.6283  C     
12   C        15.3926   52.9709   29.1309  C     
13   C        14.2547   52.9287   28.2883  C     
14   C        14.3881   53.3103   26.9278  C     
15   C        15.6351   53.6971   26.4142  C     
16   C        16.7626   53.7385   27.2585  C     
17   O        13.0696   52.5060   28.8387  O     
18   C        12.4731   51.3858   28.3001  C     
19   C        13.1784   50.1962   27.9885  C     
20   C        12.5107   49.1165   27.3923  C     
21   C        11.1230   49.1717   27.1634  C     
22   C        10.3919   50.3214   27.5400  C     
23   C        11.0837   51.4300   28.0841  C     
24   S         8.6663   50.3634   27.3058  S     
25   C         7.8272   51.5766   28.3445  C     
26   O         8.3600   50.6675   25.7769  O     
27   O         8.0303   48.9307   27.6154  O     
28   C        21.2859   56.0958   31.8611  C     
29   F        22.1954   55.0958   31.5668  F     
30   F        21.9877   57.2648   31.6327  F     
31   F        21.0050   56.0277   33.2081  F     
32   C        18.0159   50.8654   29.5575  C     
33   Cl       13.3738   47.7436   26.9221  Cl    
34   H        17.7780   57.9707   29.7669  H     
35   H        19.6912   58.0236   31.0589  H     
36   H        16.8767   55.9932   29.0136  H     
37   H        19.9805   51.5515   31.1890  H     
38   H        15.2962   52.7008   30.1107  H     
39   H        13.5721   53.2856   26.3133  H     
40   H        15.7256   53.9348   25.4190  H     
41   H        17.6573   54.0427   26.8746  H     
42   H        14.1795   50.1384   28.1660  H     
43   H        10.6461   48.3696   26.7425  H     
44   H        10.5700   52.2788   28.3221  H     
45   H         8.1414   51.4245   29.3761  H     
46   H         6.7429   51.4455   28.2634  H     
47   H         8.0903   52.5846   28.0256  H     
48   H        18.8579   50.3641   29.0774  H     
49   H        17.1736   50.8328   28.8691  H     
50   H        17.7379   50.3035   30.4481  H     
@<TRIPOS>BOND
     1    1    2 1
     2    1    4 2
     3    2    3 2
     4    3    6 1
     5    3   28 1
     6    4    5 1
     7    5    6 1
     8    5   10 2
     9    6    7 2
    10    7    8 1
    11    8    9 2
    12    9   10 1
    13    9   32 1
    14   10   11 1
    15   11   12 2
    16   11   16 1
    17   12   13 1
    18   13   14 2
    19   13   17 1
    20   14   15 1
    21   15   16 2
    22   17   18 1
    23   18   19 2
    24   18   23 1
    25   19   20 1
    26   20   21 2
    27   20   33 1
    28   21   22 1
    29   22   23 2
    30   22   24 1
    31   24   25 1
    32   24   26 2
    33   24   27 2
    34   28   29 1
    35   28   30 1
    36   28   31 1
    37    1   34 1
    38    2   35 1
    39    4   36 1
    40    8   37 1
    41   12   38 1
    42   14   39 1
    43   15   40 1
    44   16   41 1
    45   19   42 1
    46   21   43 1
    47   23   44 1
    48   25   45 1
    49   25   46 1
    50   25   47 1
    51   32   48 1
    52   32   49 1
    53   32   50 1
@<TRIPOS>PROPERTY_DATA
  Total_Score	| 9.4513
  Crash		| -2.7029
  Polar		| 1.8692
  FragIndex	| 1
  FragRMSD	| 0.466

