@<TRIPOS>MOLECULE
BindingDB_50305497
 53 56 0 0 0
SMALL
NO_CHARGES


@<TRIPOS>ATOM
1    C        18.4355   52.3340   29.7390  C     
2    C        19.5886   52.4686   30.5453  C     
3    N        20.0382   53.6925   30.9069  N     
4    C        17.7640   53.5328   29.3340  C     
5    C        18.2720   54.8060   29.7395  C     
6    C        19.4541   54.8602   30.5409  C     
7    C        20.0334   56.1054   30.9003  C     
8    C        19.4094   57.2330   30.4801  C     
9    C        18.2590   57.2050   29.7490  C     
10   C        17.6949   56.0399   29.3839  C     
11   C        21.2836   56.1659   31.6799  C     
12   F        21.7991   57.4268   31.8918  F     
13   F        21.0828   55.6080   32.9205  F     
14   F        22.2838   55.4611   31.0517  F     
15   C        16.6225   53.4677   28.4864  C     
16   C        15.3751   53.0278   28.9922  C     
17   C        14.2385   52.9615   28.1600  C     
18   C        14.3398   53.3710   26.8102  C     
19   C        15.5767   53.7993   26.2938  C     
20   C        16.7120   53.8474   27.1261  C     
21   O        13.0624   52.5140   28.7070  O     
22   C        12.5181   51.3788   28.1574  C     
23   C        11.1177   51.3549   28.0002  C     
24   C        10.4640   50.2200   27.4764  C     
25   C        11.2303   49.0987   27.0906  C     
26   C        12.6245   49.0995   27.2671  C     
27   C        13.2666   50.2285   27.8119  C     
28   S         8.7298   50.2059   27.2997  S     
29   C         8.0378   48.6489   27.8873  C     
30   O         8.0385   51.3781   28.1255  O     
31   O         8.3629   50.4032   25.7636  O     
32   C        18.0562   50.9727   29.2458  C     
33   N        18.4341   49.8824   30.1473  N     
34   H        20.1251   51.6465   30.8437  H     
35   H        19.7849   58.1234   30.6910  H     
36   H        17.8371   58.0603   29.4706  H     
37   H        16.8596   56.0751   28.8466  H     
38   H        15.2927   52.7406   29.9713  H     
39   H        13.5226   53.3303   26.1948  H     
40   H        15.6487   54.0860   25.3140  H     
41   H        17.6031   54.1604   26.7342  H     
42   H        10.5772   52.1847   28.2679  H     
43   H        10.7784   48.2729   26.6945  H     
44   H        13.1730   48.2755   26.9997  H     
45   H        14.2819   50.2146   27.9323  H     
46   H         8.4160   47.8216   27.2875  H     
47   H         6.9499   48.6778   27.8098  H     
48   H         8.3250   48.4955   28.9293  H     
49   H        16.9748   50.8779   29.0915  H     
50   H        18.5480   50.7924   28.2887  H     
51   H        19.4525   49.7942   30.1546  H     
52   H        18.0176   49.0049   29.8149  H     
53   H        18.0855   50.0688   31.0930  H     
@<TRIPOS>BOND
     1    1    2 2
     2    1    4 1
     3    1   32 1
     4    2    3 1
     5    3    6 2
     6    4    5 2
     7    4   15 1
     8    5    6 1
     9    5   10 1
    10    6    7 1
    11    7    8 2
    12    7   11 1
    13    8    9 1
    14    9   10 2
    15   11   12 1
    16   11   13 1
    17   11   14 1
    18   15   16 2
    19   15   20 1
    20   16   17 1
    21   17   18 2
    22   17   21 1
    23   18   19 1
    24   19   20 2
    25   21   22 1
    26   22   23 2
    27   22   27 1
    28   23   24 1
    29   24   25 2
    30   24   28 1
    31   25   26 1
    32   26   27 2
    33   28   29 1
    34   28   30 2
    35   28   31 2
    36   32   33 1
    37    2   34 1
    38    8   35 1
    39    9   36 1
    40   10   37 1
    41   16   38 1
    42   18   39 1
    43   19   40 1
    44   20   41 1
    45   23   42 1
    46   25   43 1
    47   26   44 1
    48   27   45 1
    49   29   46 1
    50   29   47 1
    51   29   48 1
    52   32   49 1
    53   32   50 1
    54   33   51 1
    55   33   52 1
    56   33   53 1
@<TRIPOS>PROPERTY_DATA
  Total_Score	| 11.8672
  Crash		| -1.2736
  Polar		| 2.1589
  FragIndex	| 1
  FragRMSD	| 0.323

