@<TRIPOS>MOLECULE
BindingDB_50305065
 62 65 0 0 0
SMALL
NO_CHARGES


@<TRIPOS>ATOM
1    C        18.1835   56.9754   29.9841  C     
2    C        19.3645   57.0751   30.6542  C     
3    C        20.1004   55.9829   31.0047  C     
4    C        17.6890   55.7765   29.6204  C     
5    C        18.3422   54.5814   29.9783  C     
6    C        19.5399   54.7069   30.7497  C     
7    N        20.1242   53.5821   31.2344  N     
8    C        19.6878   52.3346   30.9762  C     
9    C        18.6017   52.1291   30.0941  C     
10   C        17.8909   53.2750   29.6162  C     
11   C        16.7211   53.1088   28.8258  C     
12   C        15.5580   52.5173   29.3797  C     
13   C        14.3961   52.3255   28.6043  C     
14   C        14.3781   52.7778   27.2625  C     
15   C        15.5337   53.3545   26.7032  C     
16   C        16.7032   53.5046   27.4724  C     
17   O        13.3254   51.7361   29.2415  O     
18   C        12.6617   50.7643   28.5136  C     
19   C        13.2576   49.5397   28.1254  C     
20   C        12.5183   48.5815   27.4032  C     
21   C        11.1783   48.8474   27.0557  C     
22   C        10.5517   50.0381   27.4826  C     
23   C        11.2997   50.9823   28.2199  C     
24   S         8.8543   50.3200   27.1590  S     
25   C         7.6844   49.1692   27.9200  C     
26   O         8.4224   51.7986   27.5650  O     
27   O         8.6398   50.2996   25.5836  O     
28   C        21.4350   56.1726   31.6169  C     
29   F        22.2839   55.0742   31.5556  F     
30   F        22.1441   57.1901   30.9856  F     
31   F        21.2697   56.4968   32.9566  F     
32   C         8.3393   48.0201   28.7555  C     
33   C         7.3897   46.8663   29.2353  C     
34   C        18.3178   50.7137   29.7153  C     
35   C         7.6978   46.4641   30.7125  C     
36   C         5.8634   47.1102   29.0430  C     
37   H        17.6923   57.8036   29.7453  H     
38   H        19.7012   57.9885   30.8681  H     
39   H        16.8236   55.7546   29.1477  H     
40   H        20.2170   51.5527   31.3729  H     
41   H        15.5439   52.2261   30.3651  H     
42   H        13.5358   52.6755   26.6851  H     
43   H        15.5236   53.6709   25.7249  H     
44   H        17.5337   53.9200   27.0398  H     
45   H        14.2303   49.3389   28.3736  H     
46   H        12.9707   47.7156   27.0824  H     
47   H        10.6534   48.1408   26.5216  H     
48   H        10.8774   51.8694   28.4926  H     
49   H         7.0511   49.7603   28.5861  H     
50   H         7.0787   48.7343   27.1251  H     
51   H         9.1300   47.5493   28.1589  H     
52   H         8.8379   48.4894   29.6158  H     
53   H         7.6026   45.9807   28.6155  H     
54   H        19.2364   50.2400   29.3384  H     
55   H        17.5622   50.6291   28.9273  H     
56   H        17.9697   50.1598   30.5969  H     
57   H         8.7333   46.1185   30.7971  H     
58   H         7.0365   45.6554   31.0469  H     
59   H         7.5616   47.3246   31.3709  H     
60   H         5.5338   47.9710   29.6252  H     
61   H         5.2986   46.2344   29.3573  H     
62   H         5.6347   47.2919   27.9888  H     
@<TRIPOS>BOND
     1    1    2 1
     2    1    4 2
     3    2    3 2
     4    3    6 1
     5    3   28 1
     6    4    5 1
     7    5    6 1
     8    5   10 2
     9    6    7 2
    10    7    8 1
    11    8    9 2
    12    9   10 1
    13    9   34 1
    14   10   11 1
    15   11   12 2
    16   11   16 1
    17   12   13 1
    18   13   14 2
    19   13   17 1
    20   14   15 1
    21   15   16 2
    22   17   18 1
    23   18   19 2
    24   18   23 1
    25   19   20 1
    26   20   21 2
    27   21   22 1
    28   22   23 2
    29   22   24 1
    30   24   25 1
    31   24   26 2
    32   24   27 2
    33   25   32 1
    34   28   29 1
    35   28   30 1
    36   28   31 1
    37   32   33 1
    38   33   35 1
    39   33   36 1
    40    1   37 1
    41    2   38 1
    42    4   39 1
    43    8   40 1
    44   12   41 1
    45   14   42 1
    46   15   43 1
    47   16   44 1
    48   19   45 1
    49   20   46 1
    50   21   47 1
    51   23   48 1
    52   25   49 1
    53   25   50 1
    54   32   51 1
    55   32   52 1
    56   33   53 1
    57   34   54 1
    58   34   55 1
    59   34   56 1
    60   35   57 1
    61   35   58 1
    62   35   59 1
    63   36   60 1
    64   36   61 1
    65   36   62 1
@<TRIPOS>PROPERTY_DATA
  Total_Score	| 11.6179
  Crash		| -2.3495
  Polar		| 1.7206
  FragIndex	| 1
  FragRMSD	| 0.755

