@<TRIPOS>MOLECULE
BindingDB_50305067
 53 56 0 0 0
SMALL
NO_CHARGES


@<TRIPOS>ATOM
1    C        18.3741   57.3079   29.8948  C     
2    C        19.5196   57.3887   30.6328  C     
3    C        20.1485   56.2897   31.1225  C     
4    C        17.8264   56.1181   29.5874  C     
5    C        18.3993   54.9199   30.0456  C     
6    C        19.5662   55.0232   30.8647  C     
7    N        20.1012   53.8850   31.3887  N     
8    C        19.6082   52.6472   31.1621  C     
9    C        18.4811   52.4899   30.3434  C     
10   C        17.8673   53.6266   29.7687  C     
11   C        16.7290   53.4209   28.9472  C     
12   C        15.7064   52.5450   29.3720  C     
13   C        14.5506   52.3611   28.5911  C     
14   C        14.4047   53.0634   27.3759  C     
15   C        15.4292   53.9165   26.9310  C     
16   C        16.5843   54.1003   27.7147  C     
17   O        13.5518   51.5952   29.1092  O     
18   C        13.0382   50.6510   28.2668  C     
19   C        13.6043   49.3664   28.1248  C     
20   C        12.9039   48.3622   27.4314  C     
21   C        11.6018   48.6124   26.9602  C     
22   C        11.0231   49.8874   27.1213  C     
23   C        11.7815   50.9229   27.7000  C     
24   S         9.3217   50.1389   26.8596  S     
25   C         8.7206   51.4046   28.0210  C     
26   O         9.0216   50.5938   25.3663  O     
27   O         8.5160   48.7952   27.1303  O     
28   C        21.4119   56.3945   31.8706  C     
29   F        22.3952   55.6687   31.2428  F     
30   F        21.9300   57.6619   31.9966  F     
31   F        21.2500   55.9115   33.1479  F     
32   C         8.9548   52.8507   27.5120  C     
33   C         7.2292   51.1611   28.3247  C     
34   H        17.9363   58.1444   29.5778  H     
35   H        19.8896   58.2969   30.7965  H     
36   H        16.9899   56.1088   29.0512  H     
37   H        20.0628   51.8356   31.5847  H     
38   H        18.1196   51.5473   30.1706  H     
39   H        15.7860   52.0537   30.2674  H     
40   H        13.5528   52.9590   26.8191  H     
41   H        15.3267   54.4134   26.0426  H     
42   H        17.3149   54.7372   27.3836  H     
43   H        14.5082   49.1514   28.5517  H     
44   H        13.3082   47.4281   27.3378  H     
45   H        11.0677   47.8457   26.5472  H     
46   H        11.3808   51.8593   27.8098  H     
47   H         9.2740   51.2824   28.9572  H     
48   H        10.0110   53.1049   27.5992  H     
49   H         8.4042   53.5721   28.1084  H     
50   H         8.6343   52.9604   26.4739  H     
51   H         6.6338   51.2505   27.4152  H     
52   H         6.8665   51.8855   29.0589  H     
53   H         7.0987   50.1588   28.7362  H     
@<TRIPOS>BOND
     1    1    2 1
     2    1    4 2
     3    2    3 2
     4    3    6 1
     5    3   28 1
     6    4    5 1
     7    5    6 1
     8    5   10 2
     9    6    7 2
    10    7    8 1
    11    8    9 2
    12    9   10 1
    13   10   11 1
    14   11   12 2
    15   11   16 1
    16   12   13 1
    17   13   14 2
    18   13   17 1
    19   14   15 1
    20   15   16 2
    21   17   18 1
    22   18   19 2
    23   18   23 1
    24   19   20 1
    25   20   21 2
    26   21   22 1
    27   22   23 2
    28   22   24 1
    29   24   25 1
    30   24   26 2
    31   24   27 2
    32   25   32 1
    33   25   33 1
    34   28   29 1
    35   28   30 1
    36   28   31 1
    37    1   34 1
    38    2   35 1
    39    4   36 1
    40    8   37 1
    41    9   38 1
    42   12   39 1
    43   14   40 1
    44   15   41 1
    45   16   42 1
    46   19   43 1
    47   20   44 1
    48   21   45 1
    49   23   46 1
    50   25   47 1
    51   32   48 1
    52   32   49 1
    53   32   50 1
    54   33   51 1
    55   33   52 1
    56   33   53 1
@<TRIPOS>PROPERTY_DATA
  Total_Score	| 10.8115
  Crash		| -3.1648
  Polar		| 1.9695
  FragIndex	| 1
  FragRMSD	| 0.469

