@<TRIPOS>MOLECULE
BindingDB_50305066
 59 62 0 0 0
SMALL
NO_CHARGES


@<TRIPOS>ATOM
1    C        18.2039   57.0086   30.1385  C     
2    C        19.3428   57.0866   30.8769  C     
3    C        20.0754   55.9909   31.2054  C     
4    C        17.7258   55.8240   29.7196  C     
5    C        18.3869   54.6210   30.0330  C     
6    C        19.5703   54.7230   30.8284  C     
7    N        20.1710   53.5761   31.2344  N     
8    C        19.7621   52.3391   30.8864  C     
9    C        18.6376   52.1619   30.0567  C     
10   C        17.9263   53.3232   29.6382  C     
11   C        16.7502   53.1900   28.8444  C     
12   C        15.5945   52.5769   29.3875  C     
13   C        14.4312   52.4279   28.6073  C     
14   C        14.3916   52.9715   27.3043  C     
15   C        15.5424   53.5733   26.7548  C     
16   C        16.7188   53.6736   27.5186  C     
17   O        13.3667   51.7832   29.1877  O     
18   C        12.7613   50.8098   28.4337  C     
19   C        13.4126   49.6212   28.0155  C     
20   C        12.7160   48.6635   27.2583  C     
21   C        11.3588   48.8707   26.9348  C     
22   C        10.6866   50.0264   27.3823  C     
23   C        11.4065   51.0035   28.1020  C     
24   S         8.9787   50.2484   27.0887  S     
25   C         7.9086   49.0284   27.9160  C     
26   O         8.5094   51.6728   27.6349  O     
27   O         8.6492   50.2855   25.5337  O     
28   C        21.3346   56.1744   31.9509  C     
29   F        22.1959   55.1047   31.9761  F     
30   F        22.1005   57.1943   31.4130  F     
31   F        21.0494   56.4871   33.2639  F     
32   C         8.5795   47.8011   28.6229  C     
33   C         9.5222   48.1505   29.8179  C     
34   C         7.4783   46.7827   29.0589  C     
35   C        18.2977   50.7552   29.6866  C     
36   H        17.7239   57.8427   29.8899  H     
37   H        19.6465   57.9912   31.1636  H     
38   H        16.8898   55.8204   29.1918  H     
39   H        20.2929   51.5366   31.2359  H     
40   H        15.6091   52.2191   30.3485  H     
41   H        13.5382   52.9081   26.7462  H     
42   H        15.5169   53.9429   25.8018  H     
43   H        17.5493   54.1058   27.1001  H     
44   H        14.3961   49.4645   28.2587  H     
45   H        13.1946   47.8164   26.9398  H     
46   H        10.8624   48.1556   26.3993  H     
47   H        10.9464   51.8617   28.4101  H     
48   H         7.3041   49.6055   28.6236  H     
49   H         7.2255   48.6416   27.1560  H     
50   H         9.2014   47.2838   27.8806  H     
51   H        10.4437   48.6015   29.4492  H     
52   H         9.8009   47.2598   30.3818  H     
53   H         9.0442   48.8695   30.4819  H     
54   H         6.7931   47.2536   29.7707  H     
55   H         7.9341   45.8977   29.5291  H     
56   H         6.8983   46.4462   28.1837  H     
57   H        19.1656   50.2725   29.2372  H     
58   H        17.4760   50.6826   28.9701  H     
59   H        18.0126   50.2081   30.5851  H     
@<TRIPOS>BOND
     1    1    2 1
     2    1    4 2
     3    2    3 2
     4    3    6 1
     5    3   28 1
     6    4    5 1
     7    5    6 1
     8    5   10 2
     9    6    7 2
    10    7    8 1
    11    8    9 2
    12    9   10 1
    13    9   35 1
    14   10   11 1
    15   11   12 2
    16   11   16 1
    17   12   13 1
    18   13   14 2
    19   13   17 1
    20   14   15 1
    21   15   16 2
    22   17   18 1
    23   18   19 2
    24   18   23 1
    25   19   20 1
    26   20   21 2
    27   21   22 1
    28   22   23 2
    29   22   24 1
    30   24   25 1
    31   24   26 2
    32   24   27 2
    33   25   32 1
    34   28   29 1
    35   28   30 1
    36   28   31 1
    37   32   33 1
    38   32   34 1
    39    1   36 1
    40    2   37 1
    41    4   38 1
    42    8   39 1
    43   12   40 1
    44   14   41 1
    45   15   42 1
    46   16   43 1
    47   19   44 1
    48   20   45 1
    49   21   46 1
    50   23   47 1
    51   25   48 1
    52   25   49 1
    53   32   50 1
    54   33   51 1
    55   33   52 1
    56   33   53 1
    57   34   54 1
    58   34   55 1
    59   34   56 1
    60   35   57 1
    61   35   58 1
    62   35   59 1
@<TRIPOS>PROPERTY_DATA
  Total_Score	| 11.4855
  Crash		| -1.5585
  Polar		| 1.7697
  FragIndex	| 1
  FragRMSD	| 0.776

