@<TRIPOS>MOLECULE
BindingDB_50305074
 47 50 0 0 0
SMALL
NO_CHARGES


@<TRIPOS>ATOM
1    C        18.1762   57.2070   29.8178  C     
2    C        19.4213   57.3068   30.3764  C     
3    C        20.0779   56.2267   30.8712  C     
4    C        17.5824   56.0052   29.6952  C     
5    C        18.2586   54.8388   29.9794  C     
6    C        19.4582   54.9562   30.7330  C     
7    N        19.9363   53.8266   31.3236  N     
8    C        19.3589   52.6094   31.1723  C     
9    C        18.2746   52.4450   30.2956  C     
10   C        17.7161   53.5707   29.6427  C     
11   C        16.6438   53.4198   28.6944  C     
12   C        15.5143   52.6415   29.0586  C     
13   C        14.3919   52.5233   28.2170  C     
14   C        14.4329   53.1309   26.9488  C     
15   C        15.5322   53.9250   26.5770  C     
16   C        16.6012   54.1455   27.4608  C     
17   O        13.2233   52.0770   28.7814  O     
18   C        12.5617   51.0745   28.1376  C     
19   C        13.2549   49.9023   27.7743  C     
20   C        12.5559   48.8103   27.2351  C     
21   C        11.1612   48.8797   27.0726  C     
22   C        10.4502   50.0431   27.4512  C     
23   C        11.1576   51.1233   28.0119  C     
24   S         8.7167   50.1206   27.2902  S     
25   C         7.9437   48.5791   27.8130  C     
26   O         8.1007   51.3211   28.1328  O     
27   O         8.3164   50.3697   25.7723  O     
28   C        21.3651   56.3630   31.5696  C     
29   F        22.2951   55.4804   31.0726  F     
30   F        21.9506   57.6057   31.4915  F     
31   F        21.1939   56.1051   32.9072  F     
32   H        17.6770   58.0293   29.5696  H     
33   H        19.8107   58.2205   30.4589  H     
34   H        16.6197   55.9070   29.5131  H     
35   H        19.7390   51.8027   31.6619  H     
36   H        17.9133   51.5021   30.1270  H     
37   H        15.4583   52.2137   29.9895  H     
38   H        13.6275   53.0608   26.3289  H     
39   H        15.5245   54.4061   25.6760  H     
40   H        17.2761   54.9054   27.2053  H     
41   H        14.2630   49.8356   27.9186  H     
42   H        13.0604   47.9587   26.9807  H     
43   H        10.6681   48.0731   26.6844  H     
44   H        10.6520   51.9529   28.3458  H     
45   H         8.4700   47.7331   27.3707  H     
46   H         6.9068   48.5646   27.4832  H     
47   H         7.9793   48.5036   28.8977  H     
@<TRIPOS>BOND
     1    1    2 1
     2    1    4 2
     3    2    3 2
     4    3    6 1
     5    3   28 1
     6    4    5 1
     7    5    6 1
     8    5   10 2
     9    6    7 2
    10    7    8 1
    11    8    9 2
    12    9   10 1
    13   10   11 1
    14   11   12 2
    15   11   16 1
    16   12   13 1
    17   13   14 2
    18   13   17 1
    19   14   15 1
    20   15   16 2
    21   17   18 1
    22   18   19 2
    23   18   23 1
    24   19   20 1
    25   20   21 2
    26   21   22 1
    27   22   23 2
    28   22   24 1
    29   24   25 1
    30   24   26 2
    31   24   27 2
    32   28   29 1
    33   28   30 1
    34   28   31 1
    35    1   32 1
    36    2   33 1
    37    4   34 1
    38    8   35 1
    39    9   36 1
    40   12   37 1
    41   14   38 1
    42   15   39 1
    43   16   40 1
    44   19   41 1
    45   20   42 1
    46   21   43 1
    47   23   44 1
    48   25   45 1
    49   25   46 1
    50   25   47 1
@<TRIPOS>PROPERTY_DATA
  Total_Score	| 10.3892
  Crash		| -0.8527
  Polar		| 2.0555
  FragIndex	| 1
  FragRMSD	| 0.314

