@<TRIPOS>MOLECULE
BindingDB_50305068
 56 59 0 0 0
SMALL
NO_CHARGES


@<TRIPOS>ATOM
1    C        18.2790   57.1602   30.0232  C     
2    C        19.4378   57.2495   30.7387  C     
3    C        20.1195   56.1552   31.1608  C     
4    C        17.7832   55.9642   29.6609  C     
5    C        18.4183   54.7624   30.0265  C     
6    C        19.5749   54.8816   30.8550  C     
7    N        20.1467   53.7516   31.3395  N     
8    C        19.7290   52.5076   31.0310  C     
9    C        18.6454   52.3045   30.1525  C     
10   C        17.9523   53.4567   29.6683  C     
11   C        16.7887   53.2882   28.8589  C     
12   C        15.6652   52.5975   29.3722  C     
13   C        14.5405   52.3218   28.5707  C     
14   C        14.5015   52.8462   27.2541  C     
15   C        15.6020   53.5510   26.7330  C     
16   C        16.7501   53.7532   27.5235  C     
17   O        13.5577   51.5719   29.1761  O     
18   C        12.9561   50.5760   28.4500  C     
19   C        13.5851   49.3653   28.0790  C     
20   C        12.8701   48.4142   27.3197  C     
21   C        11.5270   48.6470   26.9414  C     
22   C        10.8856   49.8461   27.3293  C     
23   C        11.6170   50.7557   28.0858  C     
24   S         9.2329   50.2984   26.9848  S     
25   C         8.4986   51.9302   27.4722  C     
26   O         9.1358   50.2874   25.3983  O     
27   O         8.3246   49.0486   27.3659  O     
28   C        21.3906   56.2902   31.8954  C     
29   F        22.3661   55.4512   31.3953  F     
30   F        21.9786   57.5386   31.8477  F     
31   F        21.1920   55.9689   33.2273  F     
32   C         7.1575   51.5833   28.1778  C     
33   C        18.3355   50.8913   29.7788  C     
34   C         9.2308   53.0392   28.3441  C     
35   H        17.7941   57.9931   29.7689  H     
36   H        19.7708   58.1615   30.9546  H     
37   H        16.9309   55.9489   29.1584  H     
38   H        20.2448   51.7201   31.4213  H     
39   H        15.6697   52.2590   30.3389  H     
40   H        13.6797   52.6982   26.6636  H     
41   H        15.5731   53.9100   25.7751  H     
42   H        17.5537   54.2497   27.1211  H     
43   H        14.5599   49.1966   28.3384  H     
44   H        13.3384   47.5525   27.0308  H     
45   H        11.0126   47.9530   26.3959  H     
46   H        11.0973   51.5932   28.3194  H     
47   H         8.2414   52.4249   26.5241  H     
48   H         6.5399   50.9535   27.5393  H     
49   H         6.5891   52.4803   28.4083  H     
50   H         7.3502   51.0569   29.1172  H     
51   H        19.2534   50.3461   29.5424  H     
52   H        17.6886   50.8112   28.9071  H     
53   H        17.8495   50.3904   30.6151  H     
54   H         9.1816   52.7376   29.4027  H     
55   H         8.6150   53.9510   28.2840  H     
56   H        10.2716   53.3734   28.0972  H     
@<TRIPOS>BOND
     1    1    2 1
     2    1    4 2
     3    2    3 2
     4    3    6 1
     5    3   28 1
     6    4    5 1
     7    5    6 1
     8    5   10 2
     9    6    7 2
    10    7    8 1
    11    8    9 2
    12    9   10 1
    13    9   33 1
    14   10   11 1
    15   11   12 2
    16   11   16 1
    17   12   13 1
    18   13   14 2
    19   13   17 1
    20   14   15 1
    21   15   16 2
    22   17   18 1
    23   18   19 2
    24   18   23 1
    25   19   20 1
    26   20   21 2
    27   21   22 1
    28   22   23 2
    29   22   24 1
    30   24   25 1
    31   24   26 2
    32   24   27 2
    33   25   32 1
    34   25   34 1
    35   28   29 1
    36   28   30 1
    37   28   31 1
    38    1   35 1
    39    2   36 1
    40    4   37 1
    41    8   38 1
    42   12   39 1
    43   14   40 1
    44   15   41 1
    45   16   42 1
    46   19   43 1
    47   20   44 1
    48   21   45 1
    49   23   46 1
    50   25   47 1
    51   32   48 1
    52   32   49 1
    53   32   50 1
    54   33   51 1
    55   33   52 1
    56   33   53 1
    57   34   54 1
    58   34   55 1
    59   34   56 1
@<TRIPOS>PROPERTY_DATA
  Total_Score	| 11.1430
  Crash		| -3.1649
  Polar		| 1.4066
  FragIndex	| 1
  FragRMSD	| 0.386

