@<TRIPOS>MOLECULE
BindingDB_5630
 62 66 0 0 0
SMALL
NO_CHARGES


@<TRIPOS>ATOM
1    C        28.1048   12.1531   15.5563  C     
2    C        28.2622   13.2906   16.3903  C     
3    C        27.6505   14.5211   16.0639  C     
4    C        26.8576   14.6461   14.9082  C     
5    N        28.7129   10.9498   15.8079  N     
6    C        29.6109   10.6495   16.7400  C     
7    O        30.0198   11.5086   17.5150  O     
8    C        26.6904   13.5192   14.0921  C     
9    C        27.2853   12.2892   14.4108  C     
10   C        26.9490   11.3872   13.4257  C     
11   O        27.2562   10.2083   13.3615  O     
12   C        26.0351   13.3519   12.8800  C     
13   C        26.2093   12.0497   12.4891  C     
14   C        25.5864   11.9192   11.2544  C     
15   N        25.3363   13.9984   11.9252  N     
16   N        25.0787   13.1404   10.9779  N     
17   C        30.1195    9.2840   16.8870  C     
18   C        31.2411    8.0963   13.3479  C     
19   C        30.0235    7.2160   12.9193  C     
20   C        29.4347    6.5517   14.2053  C     
21   C        29.0922    7.5969   15.3067  C     
22   C        30.8810    9.1067   14.4698  C     
23   N        30.2878    8.4234   15.6636  N     
24   C        29.0402    7.9300   12.0975  C     
25   O        27.8516    7.9818   12.3894  O     
26   N        29.3706    8.5148   10.9621  N     
27   C        25.5307   10.7145   10.3932  C     
28   C        24.0665   10.4003    9.9679  C     
29   C        23.9855    9.2280    8.9525  C     
30   C        24.9084    9.4628    7.7316  C     
31   C        26.3706    9.6903    8.1835  C     
32   C        26.4821   10.8804    9.1731  C     
33   H        28.8288   13.2226   17.2480  H     
34   H        27.7925   15.3365   16.6618  H     
35   H        26.4226   15.5422   14.6570  H     
36   H        28.5019   10.2345   15.1939  H     
37   H        24.6005   13.3566   10.1593  H     
38   H        31.1056    9.3299   17.3578  H     
39   H        29.4849    8.7835   17.6209  H     
40   H        32.0335    7.4398   13.7244  H     
41   H        31.6583    8.6325   12.4909  H     
42   H        30.4144    6.4117   12.2880  H     
43   H        28.5437    5.9639   13.9592  H     
44   H        30.1763    5.8545   14.6093  H     
45   H        28.2754    8.2400   14.9681  H     
46   H        28.7433    7.0463   16.1864  H     
47   H        31.7949    9.6356   14.7592  H     
48   H        30.1813    9.8426   14.0613  H     
49   H        30.9899    7.7400   15.9425  H     
50   H        28.6931    8.9776   10.4388  H     
51   H        30.2936    8.5276   10.6611  H     
52   H        25.8928    9.8593   10.9707  H     
53   H        23.4790   10.1312   10.8524  H     
54   H        23.6001   11.2823    9.5174  H     
55   H        24.2718    8.2942    9.4473  H     
56   H        22.9518    9.1181    8.6085  H     
57   H        24.8669    8.5943    7.0713  H     
58   H        24.5590   10.3334    7.1692  H     
59   H        26.7476    8.7820    8.6653  H     
60   H        26.9976    9.8840    7.3079  H     
61   H        26.2665   11.8090    8.6352  H     
62   H        27.5168   10.9303    9.5294  H     
@<TRIPOS>BOND
     1    1    2 1
     2    1    5 1
     3    1    9 2
     4    2    3 2
     5    3    4 1
     6    4    8 2
     7    5    6 am
     8    6    7 2
     9    6   17 1
    10    8    9 1
    11    8   12 1
    12    9   10 1
    13   10   11 2
    14   10   13 1
    15   12   13 1
    16   12   15 2
    17   13   14 2
    18   14   16 1
    19   14   27 1
    20   15   16 1
    21   17   23 1
    22   18   19 1
    23   18   22 1
    24   19   20 1
    25   19   24 1
    26   20   21 1
    27   21   23 1
    28   22   23 1
    29   24   25 2
    30   24   26 am
    31   27   28 1
    32   27   32 1
    33   28   29 1
    34   29   30 1
    35   30   31 1
    36   31   32 1
    37    2   33 1
    38    3   34 1
    39    4   35 1
    40    5   36 1
    41   16   37 1
    42   17   38 1
    43   17   39 1
    44   18   40 1
    45   18   41 1
    46   19   42 1
    47   20   43 1
    48   20   44 1
    49   21   45 1
    50   21   46 1
    51   22   47 1
    52   22   48 1
    53   23   49 1
    54   26   50 1
    55   26   51 1
    56   27   52 1
    57   28   53 1
    58   28   54 1
    59   29   55 1
    60   29   56 1
    61   30   57 1
    62   30   58 1
    63   31   59 1
    64   31   60 1
    65   32   61 1
    66   32   62 1
@<TRIPOS>PROPERTY_DATA
  Total_Score	| 10.9980
  Crash		| -1.3276
  Polar		| 3.7963
  FragIndex	| 1
  FragRMSD	| 0.841

