@<TRIPOS>MOLECULE
BindingDB_5625
 38 40 0 0 0
SMALL
NO_CHARGES


@<TRIPOS>ATOM
1    C        28.3358   12.2580   15.4045  C     
2    C        28.5028   13.4317   16.1831  C     
3    C        27.7883   14.6051   15.8864  C     
4    C        26.9276   14.6604   14.7758  C     
5    N        29.0168   11.0838   15.6274  N     
6    C        29.7262   10.6819   16.6769  C     
7    O        29.8435   11.3353   17.7142  O     
8    C        26.8234   13.5300   13.9646  C     
9    C        27.4851   12.3349   14.2684  C     
10   C        27.1694   11.4515   13.2419  C     
11   O        27.4870   10.2723   13.1458  O     
12   C        26.1904   13.3860   12.7449  C     
13   C        26.4328   12.1172   12.2865  C     
14   C        25.8290   12.0939   11.0204  C     
15   N        25.5126   14.1170   11.8407  N     
16   N        25.3221   13.3343   10.8302  N     
17   C        30.4164    9.4171   16.6394  C     
18   C        26.0716   11.5900    8.5477  C     
19   C        26.4894    9.7468   10.2567  C     
20   C        25.6490   11.0315    9.9711  C     
21   C        24.1383   10.6171    9.9104  C     
22   H        29.1614   13.4628   16.9559  H     
23   H        27.9290   15.4403   16.4741  H     
24   H        26.4356   15.5210   14.5647  H     
25   H        28.9725   10.4294   14.9004  H     
26   H        24.8524   13.5857   10.0047  H     
27   H        29.6765    8.6171   16.6026  H     
28   H        31.0597    9.2469   17.5135  H     
29   H        31.0460    9.3824   15.7487  H     
30   H        25.6357   12.5798    8.3632  H     
31   H        25.7300   10.9224    7.7434  H     
32   H        27.1654   11.6696    8.4565  H     
33   H        27.5709    9.9815   10.2306  H     
34   H        26.2888    8.9475    9.5204  H     
35   H        26.2579    9.3576   11.2656  H     
36   H        23.7667   10.3465   10.9136  H     
37   H        23.9819    9.7613    9.2409  H     
38   H        23.5181   11.4466    9.5347  H     
@<TRIPOS>BOND
     1    1    2 1
     2    1    5 1
     3    1    9 2
     4    2    3 2
     5    3    4 1
     6    4    8 2
     7    5    6 am
     8    6    7 2
     9    6   17 1
    10    8    9 1
    11    8   12 1
    12    9   10 1
    13   10   11 2
    14   10   13 1
    15   12   13 1
    16   12   15 2
    17   13   14 2
    18   14   16 1
    19   14   20 1
    20   15   16 1
    21   18   20 1
    22   19   20 1
    23   20   21 1
    24    2   22 1
    25    3   23 1
    26    4   24 1
    27    5   25 1
    28   16   26 1
    29   17   27 1
    30   17   28 1
    31   17   29 1
    32   18   30 1
    33   18   31 1
    34   18   32 1
    35   19   33 1
    36   19   34 1
    37   19   35 1
    38   21   36 1
    39   21   37 1
    40   21   38 1
@<TRIPOS>PROPERTY_DATA
  Total_Score	| 7.7731
  Crash		| -0.9799
  Polar		| 2.8828
  FragIndex	| 1
  FragRMSD	| 0.802

