@<TRIPOS>MOLECULE
BindingDB_5628
 55 58 0 0 0
SMALL
NO_CHARGES


@<TRIPOS>ATOM
1    C        26.3643    9.9668    9.8600  C     
2    C        25.4380    9.7267    8.8160  C     
3    C        24.3354   10.5985    8.6276  C     
4    C        24.1618   11.7387    9.4431  C     
5    N        27.5341    9.2835    9.9921  N     
6    C        27.6952    7.9871   10.2447  C     
7    O        26.7363    7.2202   10.2625  O     
8    C        25.0891   11.9676   10.4742  C     
9    C        26.1523   11.0855   10.6839  C     
10   C        26.8584   11.5018   11.7724  C     
11   O        27.7063   10.8300   12.3140  O     
12   C        25.2227   12.9719   11.4256  C     
13   C        26.2926   12.6569   12.2235  C     
14   C        26.3821   13.6594   13.1790  C     
15   N        24.7107   14.1428   11.8242  N     
16   N        25.3983   14.5350   12.8559  N     
17   C        27.3956   13.8004   14.2579  C     
18   C        26.8987   14.7017   15.4278  C     
19   C        29.0475    7.4394   10.2792  C     
20   C        29.1652    6.1019   13.3138  C     
21   C        28.9767    7.3016   14.2842  C     
22   C        28.6905    8.5896   13.4657  C     
23   C        29.7600    8.8615   12.3688  C     
24   C        30.2632    6.4343   12.2726  C     
25   N        29.9580    7.6743   11.4668  N     
26   C        27.9150    7.0569   15.2546  C     
27   O        26.7588    6.8996   14.8894  O     
28   N        28.1482    7.0299   16.5498  N     
29   C        27.8648   12.4242   14.8427  C     
30   H        25.5698    8.9297    8.1808  H     
31   H        23.6693   10.4103    7.8708  H     
32   H        23.3648   12.3701    9.2932  H     
33   H        28.3430    9.8295   10.0363  H     
34   H        25.2200   15.3737   13.3230  H     
35   H        28.2721   14.3020   13.8223  H     
36   H        26.4583   15.6283   15.0494  H     
37   H        27.7349   14.9595   16.0899  H     
38   H        26.1557   14.1573   16.0176  H     
39   H        28.9581    6.3528   10.0866  H     
40   H        29.5970    7.8110    9.3967  H     
41   H        29.4613    5.2075   13.8819  H     
42   H        28.2215    5.8821   12.7911  H     
43   H        29.9226    7.4516   14.8186  H     
44   H        27.7133    8.4916   12.9932  H     
45   H        28.6631    9.4387   14.1448  H     
46   H        29.5231    9.7993   11.8166  H     
47   H        30.7094    9.0580   12.8757  H     
48   H        31.2018    6.5982   12.8071  H     
49   H        30.4288    5.5655   11.6369  H     
50   H        30.8511    7.8825   11.0157  H     
51   H        27.4195    6.8667   17.1670  H     
52   H        29.0386    7.1961   16.8930  H     
53   H        27.0001   11.8500   15.2126  H     
54   H        28.5582   12.5835   15.6638  H     
55   H        28.3877   11.8364   14.0801  H     
@<TRIPOS>BOND
     1    1    2 1
     2    1    5 1
     3    1    9 2
     4    2    3 2
     5    3    4 1
     6    4    8 2
     7    5    6 am
     8    6    7 2
     9    6   19 1
    10    8    9 1
    11    8   12 1
    12    9   10 1
    13   10   11 2
    14   10   13 1
    15   12   13 1
    16   12   15 2
    17   13   14 2
    18   14   16 1
    19   14   17 1
    20   15   16 1
    21   17   18 1
    22   17   29 1
    23   19   25 1
    24   20   21 1
    25   20   24 1
    26   21   22 1
    27   21   26 1
    28   22   23 1
    29   23   25 1
    30   24   25 1
    31   26   27 2
    32   26   28 am
    33    2   30 1
    34    3   31 1
    35    4   32 1
    36    5   33 1
    37   16   34 1
    38   17   35 1
    39   18   36 1
    40   18   37 1
    41   18   38 1
    42   19   39 1
    43   19   40 1
    44   20   41 1
    45   20   42 1
    46   21   43 1
    47   22   44 1
    48   22   45 1
    49   23   46 1
    50   23   47 1
    51   24   48 1
    52   24   49 1
    53   25   50 1
    54   28   51 1
    55   28   52 1
    56   29   53 1
    57   29   54 1
    58   29   55 1
@<TRIPOS>PROPERTY_DATA
  Total_Score	| 6.9622
  Crash		| -2.4656
  Polar		| 2.6509
  FragIndex	| 1
  FragRMSD	| 0.558

