@<TRIPOS>MOLECULE
BindingDB_5627
 52 55 0 0 0
SMALL
NO_CHARGES


@<TRIPOS>ATOM
1    C        28.1745   12.2798   15.5497  C     
2    C        28.3768   13.4640   16.3140  C     
3    C        27.7659   14.6860   15.9552  C     
4    C        26.9409   14.7702   14.8260  C     
5    N        28.7537   11.0644   15.8474  N     
6    C        29.6180   10.7251   16.7927  C     
7    O        30.0074   11.5482   17.6259  O     
8    C        26.7405   13.6100   14.0629  C     
9    C        27.3311   12.3797   14.4146  C     
10   C        26.9514   11.4563   13.4615  C     
11   O        27.3180   10.2870   13.3674  O     
12   C        26.0552   13.4149   12.8761  C     
13   C        26.2048   12.0987   12.5189  C     
14   C        25.5552   11.9610   11.3006  C     
15   N        25.3463   14.0541   11.9269  N     
16   N        25.0602   13.1796   11.0035  N     
17   C        25.4422   10.7582   10.4496  C     
18   C        23.9824   10.4934   10.0245  C     
19   C        30.1315    9.3692   16.9456  C     
20   C        31.2332    8.0137   13.4645  C     
21   C        29.9900    7.1408   13.0948  C     
22   C        29.4331    6.5241   14.4191  C     
23   C        29.0885    7.6244   15.4601  C     
24   C        30.9037    9.0839   14.5419  C     
25   N        30.2920    8.4604   15.7592  N     
26   C        28.9823    7.8353   12.2830  C     
27   O        27.7839    7.6553   12.4378  O     
28   N        29.3185    8.5896   11.2565  N     
29   H        28.9696   13.4620   17.1438  H     
30   H        27.9315   15.5219   16.5177  H     
31   H        26.5027   15.6549   14.5488  H     
32   H        28.5239   10.3470   15.2390  H     
33   H        24.5571   13.3782   10.1957  H     
34   H        26.0535   10.9064    9.5575  H     
35   H        25.8231    9.8835   10.9823  H     
36   H        23.5695   11.3582    9.4968  H     
37   H        23.3645   10.2847   10.9019  H     
38   H        23.9418    9.6318    9.3570  H     
39   H        31.1237    9.4227   17.3991  H     
40   H        29.5076    8.8817   17.7001  H     
41   H        32.0168    7.3591   13.8588  H     
42   H        31.6476    8.4975   12.5758  H     
43   H        30.3470    6.3136   12.4754  H     
44   H        28.5514    5.9072   14.2251  H     
45   H        30.1936    5.8650   14.8508  H     
46   H        28.2701    8.2477   15.0965  H     
47   H        28.7496    7.1187   16.3693  H     
48   H        31.8359    9.5868   14.8176  H     
49   H        30.2352    9.8264   14.1033  H     
50   H        30.9896    7.7765   16.0632  H     
51   H        28.6269    8.9927   10.7069  H     
52   H        30.2503    8.7513   11.0486  H     
@<TRIPOS>BOND
     1    1    2 1
     2    1    5 1
     3    1    9 2
     4    2    3 2
     5    3    4 1
     6    4    8 2
     7    5    6 am
     8    6    7 2
     9    6   19 1
    10    8    9 1
    11    8   12 1
    12    9   10 1
    13   10   11 2
    14   10   13 1
    15   12   13 1
    16   12   15 2
    17   13   14 2
    18   14   16 1
    19   14   17 1
    20   15   16 1
    21   17   18 1
    22   19   25 1
    23   20   21 1
    24   20   24 1
    25   21   22 1
    26   21   26 1
    27   22   23 1
    28   23   25 1
    29   24   25 1
    30   26   27 2
    31   26   28 am
    32    2   29 1
    33    3   30 1
    34    4   31 1
    35    5   32 1
    36   16   33 1
    37   17   34 1
    38   17   35 1
    39   18   36 1
    40   18   37 1
    41   18   38 1
    42   19   39 1
    43   19   40 1
    44   20   41 1
    45   20   42 1
    46   21   43 1
    47   22   44 1
    48   22   45 1
    49   23   46 1
    50   23   47 1
    51   24   48 1
    52   24   49 1
    53   25   50 1
    54   28   51 1
    55   28   52 1
@<TRIPOS>PROPERTY_DATA
  Total_Score	| 9.3285
  Crash		| -1.0078
  Polar		| 3.9731
  FragIndex	| 1
  FragRMSD	| 0.722

