@<TRIPOS>MOLECULE
BindingDB_5624
 38 40 0 0 0
SMALL
NO_CHARGES


@<TRIPOS>ATOM
1    C        28.3667   12.3510   15.5361  C     
2    C        28.5819   13.5498   16.2699  C     
3    C        27.9108   14.7482   15.9397  C     
4    C        27.0194   14.7969   14.8495  C     
5    N        28.9888   11.1472   15.7863  N     
6    C        29.7436   10.7376   16.7973  C     
7    O        29.9901   11.4304   17.7786  O     
8    C        26.8326   13.6256   14.0922  C     
9    C        27.4825   12.4247   14.4286  C     
10   C        27.1142   11.4771   13.4875  C     
11   O        27.4782   10.3145   13.4151  O     
12   C        26.1086   13.4022   12.9330  C     
13   C        26.3003   12.0884   12.5815  C     
14   C        25.6220   11.9004   11.3852  C     
15   N        25.3374   13.9919   11.9964  N     
16   N        25.0569   13.0950   11.0941  N     
17   C        30.2989    9.4048   16.7565  C     
18   C        25.5456   10.6722   10.5687  C     
19   C        26.4130   10.7707    9.2826  C     
20   C        26.3051    9.5407    8.3374  C     
21   C        24.9066    9.3506    7.7115  C     
22   H        29.2472   13.5865   17.0440  H     
23   H        28.0898   15.5955   16.4846  H     
24   H        26.5423   15.6646   14.6038  H     
25   H        28.8379   10.4702   15.1113  H     
26   H        24.5178   13.2613   10.2957  H     
27   H        29.4970    8.6649   16.7466  H     
28   H        30.9367    9.2011   17.6225  H     
29   H        30.9049    9.2806   15.8569  H     
30   H        25.8877    9.8167   11.1553  H     
31   H        24.5007   10.5009   10.3134  H     
32   H        26.1670   11.6842    8.7222  H     
33   H        27.4610   10.8505    9.5993  H     
34   H        27.0169    9.6824    7.5136  H     
35   H        26.6025    8.6315    8.8743  H     
36   H        24.1499    9.2146    8.4754  H     
37   H        24.9163    8.4642    7.0733  H     
38   H        24.6455   10.2130    7.1001  H     
@<TRIPOS>BOND
     1    1    2 1
     2    1    5 1
     3    1    9 2
     4    2    3 2
     5    3    4 1
     6    4    8 2
     7    5    6 am
     8    6    7 2
     9    6   17 1
    10    8    9 1
    11    8   12 1
    12    9   10 1
    13   10   11 2
    14   10   13 1
    15   12   13 1
    16   12   15 2
    17   13   14 2
    18   14   16 1
    19   14   18 1
    20   15   16 1
    21   18   19 1
    22   19   20 1
    23   20   21 1
    24    2   22 1
    25    3   23 1
    26    4   24 1
    27    5   25 1
    28   16   26 1
    29   17   27 1
    30   17   28 1
    31   17   29 1
    32   18   30 1
    33   18   31 1
    34   19   32 1
    35   19   33 1
    36   20   34 1
    37   20   35 1
    38   21   36 1
    39   21   37 1
    40   21   38 1
@<TRIPOS>PROPERTY_DATA
  Total_Score	| 7.8189
  Crash		| -0.3358
  Polar		| 2.6352
  FragIndex	| 1
  FragRMSD	| 0.724

