@<TRIPOS>MOLECULE
BindingDB_5612
 66 70 0 0 0
SMALL
NO_CHARGES


@<TRIPOS>ATOM
1    C        28.2591   12.3219   15.5341  C     
2    C        28.6208   13.5133   16.2159  C     
3    C        28.0364   14.7597   15.8926  C     
4    C        27.1227   14.8539   14.8291  C     
5    N        28.7836   11.0841   15.7947  N     
6    C        29.5637   10.6295   16.7651  C     
7    O        29.9030   11.3722   17.6924  O     
8    C        26.8336   13.6976   14.0884  C     
9    C        27.3584   12.4479   14.4441  C     
10   C        26.8766   11.5238   13.5314  C     
11   O        27.0217   10.3117   13.5828  O     
12   C        26.1001   13.5204   12.9252  C     
13   C        26.1671   12.1935   12.5710  C     
14   C        25.4923   12.0949   11.3569  C     
15   N        25.4151   14.2060   11.9992  N     
16   N        25.0616   13.3489   11.0877  N     
17   C        25.2416   10.9730   10.5272  C     
18   C        25.7416    8.6992    9.7461  C     
19   C        26.0824    9.8373   10.4944  C     
20   C        24.1111   10.9590    9.6816  C     
21   C        23.7793    9.8297    8.9198  C     
22   C        24.5556    8.6338    8.9637  C     
23   C        23.4483    7.5128    7.0500  C     
24   N        24.1512    7.4757    8.3225  N     
25   C        24.3620    6.1749    8.9398  C     
26   C        30.1125    9.2772   16.7675  C     
27   C        30.9733    8.1174   13.1454  C     
28   C        28.9160    6.8675   13.9241  C     
29   C        28.8338    7.7880   15.1738  C     
30   C        30.8557    9.0625   14.3638  C     
31   N        30.1500    8.4265   15.5213  N     
32   C        29.5762    7.5894   12.7095  C     
33   C        29.6553    6.6656   11.4573  C     
34   N        29.8079    7.4159   10.1971  N     
35   H        29.3423   13.4954   16.9455  H     
36   H        28.3044   15.5999   16.4072  H     
37   H        26.7099   15.7486   14.5680  H     
38   H        28.5356   10.4133   15.1472  H     
39   H        24.5729   13.5792   10.2750  H     
40   H        26.3944    7.9117    9.7770  H     
41   H        26.9620    9.8218   11.0066  H     
42   H        23.4826   11.7635    9.6375  H     
43   H        22.9244    9.8741    8.3768  H     
44   H        22.4712    7.9949    7.1600  H     
45   H        23.2689    6.5272    6.6113  H     
46   H        24.0439    8.0778    6.3239  H     
47   H        25.4278    5.9557    9.0058  H     
48   H        23.8957    5.3464    8.4000  H     
49   H        23.9384    6.1805    9.9453  H     
50   H        31.1549    9.3482   17.1055  H     
51   H        29.5889    8.7346   17.5535  H     
52   H        31.4432    8.6639   12.3242  H     
53   H        31.6214    7.2785   13.4099  H     
54   H        29.4952    5.9762   14.1841  H     
55   H        27.9039    6.5437   13.6567  H     
56   H        28.0615    8.5380   14.9979  H     
57   H        28.5021    7.1748   16.0145  H     
58   H        31.8619    9.3571   14.6750  H     
59   H        30.3431    9.9622   14.0231  H     
60   H        30.7464    7.6306   15.7714  H     
61   H        28.9472    8.4469   12.4425  H     
62   H        30.4892    5.9687   11.5487  H     
63   H        28.7389    6.0832   11.3647  H     
64   H        28.9500    7.9456   10.0088  H     
65   H        29.9698    6.7593    9.4299  H     
66   H        30.5972    8.0663   10.2546  H     
@<TRIPOS>BOND
     1    1    2 1
     2    1    5 1
     3    1    9 2
     4    2    3 2
     5    3    4 1
     6    4    8 2
     7    5    6 am
     8    6    7 2
     9    6   26 1
    10    8    9 1
    11    8   12 1
    12    9   10 1
    13   10   11 2
    14   10   13 1
    15   12   13 1
    16   12   15 2
    17   13   14 2
    18   14   16 1
    19   14   17 1
    20   15   16 1
    21   17   19 1
    22   17   20 2
    23   18   19 2
    24   18   22 1
    25   20   21 1
    26   21   22 2
    27   22   24 1
    28   23   24 1
    29   24   25 1
    30   26   31 1
    31   27   30 1
    32   27   32 1
    33   28   29 1
    34   28   32 1
    35   29   31 1
    36   30   31 1
    37   32   33 1
    38   33   34 1
    39    2   35 1
    40    3   36 1
    41    4   37 1
    42    5   38 1
    43   16   39 1
    44   18   40 1
    45   19   41 1
    46   20   42 1
    47   21   43 1
    48   23   44 1
    49   23   45 1
    50   23   46 1
    51   25   47 1
    52   25   48 1
    53   25   49 1
    54   26   50 1
    55   26   51 1
    56   27   52 1
    57   27   53 1
    58   28   54 1
    59   28   55 1
    60   29   56 1
    61   29   57 1
    62   30   58 1
    63   30   59 1
    64   31   60 1
    65   32   61 1
    66   33   62 1
    67   33   63 1
    68   34   64 1
    69   34   65 1
    70   34   66 1
@<TRIPOS>PROPERTY_DATA
  Total_Score	| 9.1512
  Crash		| -1.7758
  Polar		| 4.0674
  FragIndex	| 1
  FragRMSD	| 0.755

