@<TRIPOS>MOLECULE
BindingDB_5644
 41 44 0 0 0
SMALL
NO_CHARGES


@<TRIPOS>ATOM
1    C        28.3421   12.3691   15.4156  C     
2    C        28.5522   13.5571   16.1682  C     
3    C        27.8512   14.7513   15.8868  C     
4    C        26.9463   14.8098   14.8128  C     
5    N        29.0358   11.1961   15.5978  N     
6    C        29.7072   10.7589   16.6554  C     
7    O        29.7198   11.2819   17.7647  O     
8    C        26.7699   13.6616   14.0239  C     
9    C        27.4358   12.4583   14.3265  C     
10   C        27.0494   11.5273   13.3776  C     
11   O        27.4400   10.3719   13.2808  O     
12   C        26.0210   13.4532   12.8651  C     
13   C        26.2140   12.1467   12.4908  C     
14   C        25.5223   11.9772   11.3011  C     
15   N        25.2477   14.0633   11.9444  N     
16   N        24.9600   13.1768   11.0355  N     
17   N        30.3634    9.6251   16.5359  N     
18   C        25.4994   10.7701   10.4494  C     
19   C        24.0381    9.1793    9.0565  C     
20   C        24.0522   10.3973   10.0217  C     
21   C        26.4290   10.9676    9.2197  C     
22   C        26.3823    9.7607    8.2465  C     
23   C        24.9317    9.4376    7.8203  C     
24   H        29.2701   13.6105   16.8867  H     
25   H        28.0375   15.5804   16.4465  H     
26   H        26.4517   15.6725   14.5923  H     
27   H        28.9986   10.5734   14.8519  H     
28   H        24.4462   13.3773   10.2360  H     
29   H        30.3605    9.1535   15.6794  H     
30   H        30.8566    9.2671   17.2956  H     
31   H        25.8948    9.9268   11.0267  H     
32   H        24.3905    8.2855    9.5788  H     
33   H        23.0095    8.9884    8.7328  H     
34   H        23.4530   10.1583   10.9012  H     
35   H        23.5755   11.2474    9.5188  H     
36   H        26.1583   11.8728    8.6717  H     
37   H        27.4566   11.0758    9.5714  H     
38   H        26.9812    9.9793    7.3583  H     
39   H        26.8237    8.8815    8.7296  H     
40   H        24.9294    8.5513    7.1761  H     
41   H        24.5278   10.2752    7.2390  H     
@<TRIPOS>BOND
     1    1    2 1
     2    1    5 1
     3    1    9 2
     4    2    3 2
     5    3    4 1
     6    4    8 2
     7    5    6 am
     8    6    7 2
     9    6   17 am
    10    8    9 1
    11    8   12 1
    12    9   10 1
    13   10   11 2
    14   10   13 1
    15   12   13 1
    16   12   15 2
    17   13   14 2
    18   14   16 1
    19   14   18 1
    20   15   16 1
    21   18   20 1
    22   18   21 1
    23   19   20 1
    24   19   23 1
    25   21   22 1
    26   22   23 1
    27    2   24 1
    28    3   25 1
    29    4   26 1
    30    5   27 1
    31   16   28 1
    32   17   29 1
    33   17   30 1
    34   18   31 1
    35   19   32 1
    36   19   33 1
    37   20   34 1
    38   20   35 1
    39   21   36 1
    40   21   37 1
    41   22   38 1
    42   22   39 1
    43   23   40 1
    44   23   41 1
@<TRIPOS>PROPERTY_DATA
  Total_Score	| 8.3781
  Crash		| -0.6969
  Polar		| 2.9516
  FragIndex	| 1
  FragRMSD	| 0.927

