@<TRIPOS>MOLECULE
BindingDB_5629
 53 57 0 0 0
SMALL
NO_CHARGES


@<TRIPOS>ATOM
1    C        26.7755    9.4782   11.1790  C     
2    C        26.3645    9.1732    9.8559  C     
3    C        25.6669   10.0959    9.0448  C     
4    C        25.3702   11.3859    9.5202  C     
5    N        27.5685    8.4972   11.7806  N     
6    C        28.1328    8.2237   12.9763  C     
7    O        27.9311    8.7946   14.0418  O     
8    C        25.7666   11.7222   10.8187  C     
9    C        26.4314   10.7863   11.6309  C     
10   C        26.6580   11.4105   12.8153  C     
11   O        26.8350   10.8007   13.8361  O     
12   C        25.6579   12.9128   11.5434  C     
13   C        26.2453   12.7110   12.7678  C     
14   C        26.1611   13.9118   13.4648  C     
15   N        25.1984   14.1733   11.4923  N     
16   N        25.4986   14.7424   12.6262  N     
17   C        28.9919    7.0372   13.0994  C     
18   C        31.7866    8.1753   15.5674  C     
19   C        32.8979    7.1415   15.2290  C     
20   C        32.8130    6.7357   13.7260  C     
21   C        31.3792    6.2985   13.3242  C     
22   C        30.3899    7.6867   15.1065  C     
23   N        30.3654    7.3591   13.6387  N     
24   C        34.2186    7.6549   15.5838  C     
25   O        34.7086    8.5863   14.9632  O     
26   N        34.9276    7.1652   16.5767  N     
27   C        26.6092   14.3110   14.8290  C     
28   C        27.4081   13.6371   15.9723  C     
29   C        28.1496   14.2419   14.7984  C     
30   H        26.5919    8.2604    9.4515  H     
31   H        25.4042    9.8365    8.0909  H     
32   H        24.8939   12.0681    8.9285  H     
33   H        27.8041    7.8215   11.1229  H     
34   H        25.2705   15.6630   12.8448  H     
35   H        28.4902    6.2959   13.7394  H     
36   H        29.0789    6.5634   12.1156  H     
37   H        31.7594    8.3478   16.6470  H     
38   H        31.9984    9.1312   15.0787  H     
39   H        32.6992    6.2418   15.8219  H     
40   H        33.0995    7.5806   13.0919  H     
41   H        33.5050    5.9132   13.5281  H     
42   H        31.3883    6.1004   12.2502  H     
43   H        31.1206    5.3635   13.8319  H     
44   H        30.0955    6.8072   15.6881  H     
45   H        29.6895    8.4865   15.3485  H     
46   H        30.6800    8.1988   13.1443  H     
47   H        35.8212    7.5071   16.7551  H     
48   H        34.5805    6.4289   17.1029  H     
49   H        26.3025   15.3236   15.0898  H     
50   H        27.5124   14.2161   16.8946  H     
51   H        27.3376   12.5475   16.0494  H     
52   H        28.6483   13.4741   14.2027  H     
53   H        28.7188   15.1269   15.0945  H     
@<TRIPOS>BOND
     1    1    2 1
     2    1    5 1
     3    1    9 2
     4    2    3 2
     5    3    4 1
     6    4    8 2
     7    5    6 am
     8    6    7 2
     9    6   17 1
    10    8    9 1
    11    8   12 1
    12    9   10 1
    13   10   11 2
    14   10   13 1
    15   12   13 1
    16   12   15 2
    17   13   14 2
    18   14   16 1
    19   14   27 1
    20   15   16 1
    21   17   23 1
    22   18   19 1
    23   18   22 1
    24   19   20 1
    25   19   24 1
    26   20   21 1
    27   21   23 1
    28   22   23 1
    29   24   25 2
    30   24   26 am
    31   27   28 1
    32   27   29 1
    33   28   29 1
    34    2   30 1
    35    3   31 1
    36    4   32 1
    37    5   33 1
    38   16   34 1
    39   17   35 1
    40   17   36 1
    41   18   37 1
    42   18   38 1
    43   19   39 1
    44   20   40 1
    45   20   41 1
    46   21   42 1
    47   21   43 1
    48   22   44 1
    49   22   45 1
    50   23   46 1
    51   26   47 1
    52   26   48 1
    53   27   49 1
    54   28   50 1
    55   28   51 1
    56   29   52 1
    57   29   53 1
@<TRIPOS>PROPERTY_DATA
  Total_Score	| 8.1106
  Crash		| -1.2051
  Polar		| 3.8280
  FragIndex	| 1
  FragRMSD	| 1.118

