@<TRIPOS>MOLECULE
BindingDB_5632
 57 60 0 0 0
SMALL
NO_CHARGES


@<TRIPOS>ATOM
1    C        26.0939    9.6109   10.2553  C     
2    C        25.2146    9.4987    9.1418  C     
3    C        24.3002   10.5254    8.8271  C     
4    C        24.2616   11.6994    9.6015  C     
5    N        26.9983    8.6412   10.6098  N     
6    C        26.8978    7.3210   10.4826  C     
7    O        25.8716    6.7771   10.0723  O     
8    C        25.1605   11.8337   10.6664  C     
9    C        26.0685   10.8191   10.9951  C     
10   C        26.7949   11.2511   12.0919  C     
11   O        27.6724   10.6197   12.6615  O     
12   C        25.3700   12.8727   11.5547  C     
13   C        26.3727   12.5170   12.4286  C     
14   C        26.5418   13.6212   13.2672  C     
15   N        24.9420   14.1111   11.8265  N     
16   N        25.6362   14.5322   12.8428  N     
17   C        28.0087    6.4503   10.8117  C     
18   C        29.7654    6.2245   13.5619  C     
19   C        30.2232    4.7376   13.4909  C     
20   C        29.7095    4.0675   12.1848  C     
21   C        28.1759    4.2443   12.0443  C     
22   C        28.2344    6.3628   13.3217  C     
23   N        27.7486    5.6813   12.0776  N     
24   C        31.7672    4.5828   13.6293  C     
25   N        32.2550    5.0094   14.9454  N     
26   C        27.4932   13.8927   14.3782  C     
27   C        26.7530   13.9777   15.7402  C     
28   C        28.6826   12.9021   14.4658  C     
29   H        25.2445    8.6753    8.5415  H     
30   H        23.6603   10.4206    8.0335  H     
31   H        23.5912   12.4392    9.3993  H     
32   H        27.8037    8.9586   11.0508  H     
33   H        25.5274   15.4145   13.2371  H     
34   H        28.1544    5.7831    9.9555  H     
35   H        28.9303    7.0361   10.8864  H     
36   H        30.0055    6.6360   14.5465  H     
37   H        30.3097    6.8076   12.8158  H     
38   H        29.7677    4.2052   14.3373  H     
39   H        30.2040    4.5064   11.3147  H     
40   H        29.9413    2.9973   12.2006  H     
41   H        27.8324    3.7668   11.1249  H     
42   H        27.6843    3.7186   12.8672  H     
43   H        27.7217    5.9319   14.1836  H     
44   H        27.9682    7.4222   13.2994  H     
45   H        26.7296    5.6424   12.1686  H     
46   H        32.0446    3.5322   13.5018  H     
47   H        32.2779    5.1691   12.8600  H     
48   H        32.1499    6.0236   15.0398  H     
49   H        33.2436    4.7621   15.0417  H     
50   H        31.7141    4.5427   15.6808  H     
51   H        27.9269   14.8798   14.1811  H     
52   H        25.9664   14.7304   15.6971  H     
53   H        27.4451   14.2683   16.5336  H     
54   H        26.3089   13.0158   15.9928  H     
55   H        28.3382   11.9022   14.7468  H     
56   H        29.4066   13.2458   15.2121  H     
57   H        29.1994   12.8398   13.5061  H     
@<TRIPOS>BOND
     1    1    2 1
     2    1    5 1
     3    1    9 2
     4    2    3 2
     5    3    4 1
     6    4    8 2
     7    5    6 am
     8    6    7 2
     9    6   17 1
    10    8    9 1
    11    8   12 1
    12    9   10 1
    13   10   11 2
    14   10   13 1
    15   12   13 1
    16   12   15 2
    17   13   14 2
    18   14   16 1
    19   14   26 1
    20   15   16 1
    21   17   23 1
    22   18   19 1
    23   18   22 1
    24   19   20 1
    25   19   24 1
    26   20   21 1
    27   21   23 1
    28   22   23 1
    29   24   25 1
    30   26   27 1
    31   26   28 1
    32    2   29 1
    33    3   30 1
    34    4   31 1
    35    5   32 1
    36   16   33 1
    37   17   34 1
    38   17   35 1
    39   18   36 1
    40   18   37 1
    41   19   38 1
    42   20   39 1
    43   20   40 1
    44   21   41 1
    45   21   42 1
    46   22   43 1
    47   22   44 1
    48   23   45 1
    49   24   46 1
    50   24   47 1
    51   25   48 1
    52   25   49 1
    53   25   50 1
    54   26   51 1
    55   27   52 1
    56   27   53 1
    57   27   54 1
    58   28   55 1
    59   28   56 1
    60   28   57 1
@<TRIPOS>PROPERTY_DATA
  Total_Score	| 7.5671
  Crash		| -1.4182
  Polar		| 4.6158
  FragIndex	| 1
  FragRMSD	| 0.640

