@<TRIPOS>MOLECULE
BindingDB_5626
 42 45 0 0 0
SMALL
NO_CHARGES


@<TRIPOS>ATOM
1    C        28.2659   12.2300   15.4898  C     
2    C        28.3969   13.3823   16.3103  C     
3    C        27.7423   14.5937   15.9950  C     
4    C        26.9245   14.6960   14.8527  C     
5    N        28.9115   11.0299   15.6898  N     
6    C        29.7483   10.6176   16.6377  C     
7    O        30.0745   11.2975   17.5998  O     
8    C        26.7826   13.5654   14.0420  C     
9    C        27.4266   12.3510   14.3454  C     
10   C        27.0894   11.4454   13.3586  C     
11   O        27.4353   10.2793   13.2649  O     
12   C        26.0927   13.3872   12.8487  C     
13   C        26.2877   12.0909   12.4579  C     
14   C        25.6189   11.9425   11.2504  C     
15   N        25.3519   14.0195   11.9128  N     
16   N        25.0836   13.1511   10.9808  N     
17   C        30.3144    9.2892   16.5247  C     
18   C        25.5430   10.7422   10.3837  C     
19   C        23.9905    9.1829    9.0537  C     
20   C        24.0737   10.4156    9.9988  C     
21   C        26.4249   10.9249    9.1161  C     
22   C        26.3430    9.6830    8.1891  C     
23   C        24.8826    9.3517    7.8007  C     
24   H        28.9768   13.3748   17.1491  H     
25   H        27.8691   15.4084   16.5945  H     
26   H        26.4508   15.5754   14.6253  H     
27   H        28.7408   10.3666   15.0063  H     
28   H        24.5647   13.3432   10.1761  H     
29   H        29.5170    8.5431   16.5417  H     
30   H        31.0061    9.0716   17.3424  H     
31   H        30.8613    9.2043   15.5830  H     
32   H        25.9411    9.8830   10.9364  H     
33   H        24.2964    8.2868    9.5964  H     
34   H        22.9534    9.0466    8.7403  H     
35   H        23.4893   10.2091   10.8965  H     
36   H        23.6185   11.2749    9.4917  H     
37   H        26.1149   11.8124    8.5554  H     
38   H        27.4674   11.0560    9.4191  H     
39   H        26.9249    9.8688    7.2867  H     
40   H        26.7898    8.8216    8.6969  H     
41   H        24.8710    8.4237    7.2212  H     
42   H        24.4811   10.1483    7.1652  H     
@<TRIPOS>BOND
     1    1    2 1
     2    1    5 1
     3    1    9 2
     4    2    3 2
     5    3    4 1
     6    4    8 2
     7    5    6 am
     8    6    7 2
     9    6   17 1
    10    8    9 1
    11    8   12 1
    12    9   10 1
    13   10   11 2
    14   10   13 1
    15   12   13 1
    16   12   15 2
    17   13   14 2
    18   14   16 1
    19   14   18 1
    20   15   16 1
    21   18   20 1
    22   18   21 1
    23   19   20 1
    24   19   23 1
    25   21   22 1
    26   22   23 1
    27    2   24 1
    28    3   25 1
    29    4   26 1
    30    5   27 1
    31   16   28 1
    32   17   29 1
    33   17   30 1
    34   17   31 1
    35   18   32 1
    36   19   33 1
    37   19   34 1
    38   20   35 1
    39   20   36 1
    40   21   37 1
    41   21   38 1
    42   22   39 1
    43   22   40 1
    44   23   41 1
    45   23   42 1
@<TRIPOS>PROPERTY_DATA
  Total_Score	| 8.8543
  Crash		| -0.6954
  Polar		| 2.9206
  FragIndex	| 1
  FragRMSD	| 0.924

