@<TRIPOS>MOLECULE
BindingDB_5621
 35 37 0 0 0
SMALL
NO_CHARGES


@<TRIPOS>ATOM
1    C        28.3513   12.2474   15.4557  C     
2    C        28.4837   13.3963   16.2833  C     
3    C        27.8200   14.6049   15.9736  C     
4    C        26.9985   14.7098   14.8383  C     
5    N        28.9578   11.0348   15.6784  N     
6    C        29.7509   10.5971   16.6505  C     
7    O        30.0968   11.2676   17.6133  O     
8    C        26.8647   13.5854   14.0116  C     
9    C        27.5236   12.3744   14.3051  C     
10   C        27.1867   11.4823   13.3065  C     
11   O        27.5446   10.3218   13.1933  O     
12   C        26.1411   13.4108   12.8369  C     
13   C        26.3576   12.1202   12.4262  C     
14   C        25.6384   11.9650   11.2473  C     
15   N        25.3358   14.0210   11.9493  N     
16   N        25.0476   13.1540   11.0201  N     
17   C        30.2178    9.2314   16.5612  C     
18   C        25.5154   10.7642   10.3811  C     
19   C        24.0267   10.4406   10.0963  C     
20   C        26.2995   10.9432    9.0528  C     
21   H        29.0536   13.3816   17.1268  H     
22   H        27.9304   15.4152   16.5796  H     
23   H        26.5063   15.5748   14.6175  H     
24   H        28.7649   10.3659   15.0014  H     
25   H        24.4888   13.3379   10.2447  H     
26   H        29.3660    8.5482   16.5728  H     
27   H        30.8784    8.9715   17.3942  H     
28   H        30.7697    9.0869   15.6299  H     
29   H        25.9389    9.9020   10.9055  H     
30   H        23.4831   10.2915   11.0284  H     
31   H        23.9560    9.5160    9.5183  H     
32   H        23.5507   11.2443    9.5372  H     
33   H        25.9121   11.7806    8.4623  H     
34   H        26.2442   10.0373    8.4466  H     
35   H        27.3502   11.1138    9.2655  H     
@<TRIPOS>BOND
     1    1    2 1
     2    1    5 1
     3    1    9 2
     4    2    3 2
     5    3    4 1
     6    4    8 2
     7    5    6 am
     8    6    7 2
     9    6   17 1
    10    8    9 1
    11    8   12 1
    12    9   10 1
    13   10   11 2
    14   10   13 1
    15   12   13 1
    16   12   15 2
    17   13   14 2
    18   14   16 1
    19   14   18 1
    20   15   16 1
    21   18   19 1
    22   18   20 1
    23    2   21 1
    24    3   22 1
    25    4   23 1
    26    5   24 1
    27   16   25 1
    28   17   26 1
    29   17   27 1
    30   17   28 1
    31   18   29 1
    32   19   30 1
    33   19   31 1
    34   19   32 1
    35   20   33 1
    36   20   34 1
    37   20   35 1
@<TRIPOS>PROPERTY_DATA
  Total_Score	| 6.9556
  Crash		| -0.6383
  Polar		| 2.8156
  FragIndex	| 1
  FragRMSD	| 0.817

