@<TRIPOS>MOLECULE
BindingDB_5634
 64 68 0 0 0
SMALL
NO_CHARGES


@<TRIPOS>ATOM
1    C        28.0341   12.4922   15.5851  C     
2    C        28.2242   13.6968   16.3076  C     
3    C        27.6572   14.9084   15.8569  C     
4    C        26.8554   14.9411   14.6955  C     
5    N        28.6364   11.3619   16.0495  N     
6    C        29.3917   10.5122   15.3471  C     
7    O        29.6460   10.7485   14.1654  O     
8    C        26.6315   13.7386   14.0031  C     
9    C        27.2125   12.5291   14.4272  C     
10   C        26.8251   11.5446   13.5451  C     
11   O        27.2160   10.3731   13.5198  O     
12   C        25.9623   13.4760   12.8168  C     
13   C        26.1305   12.1417   12.5370  C     
14   C        25.5592   11.9431   11.2838  C     
15   N        25.2850   14.0682   11.8127  N     
16   N        25.0525   13.1448   10.9271  N     
17   C        29.5665    9.1632   15.8770  C     
18   C        29.6960    6.6114   13.7218  C     
19   C        29.7997    7.8451   12.7724  C     
20   C        31.1779    8.5578   12.9277  C     
21   C        31.6721    8.6972   14.4005  C     
22   C        30.2689    6.8421   15.1574  C     
23   N        30.6978    8.2490   15.4484  N     
24   C        29.4796    7.4530   11.2954  C     
25   N        29.2336    8.6265   10.4454  N     
26   C        25.5436   10.7121   10.4559  C     
27   C        24.0635    9.1479    9.0280  C     
28   C        24.0965   10.3674    9.9882  C     
29   C        26.5153   10.8647    9.2400  C     
30   C        26.4459    9.6569    8.2686  C     
31   C        24.9979    9.3715    7.8100  C     
32   H        28.8033   13.7010   17.1538  H     
33   H        27.8560   15.7825   16.3571  H     
34   H        26.4677   15.8228   14.3508  H     
35   H        28.4938   11.1463   16.9907  H     
36   H        24.5903   13.3026   10.0877  H     
37   H        29.6471    9.2265   16.9692  H     
38   H        28.6047    8.6666   15.6909  H     
39   H        28.6424    6.3176   13.8003  H     
40   H        30.2311    5.7674   13.2687  H     
41   H        29.0277    8.5582   13.0749  H     
42   H        31.9322    8.0046   12.3558  H     
43   H        31.1095    9.5550   12.4805  H     
44   H        32.5724    8.0758   14.5051  H     
45   H        31.9807    9.7286   14.5980  H     
46   H        29.5428    6.4932   15.9037  H     
47   H        31.1438    6.1895   15.2819  H     
48   H        31.2789    8.1677   16.2915  H     
49   H        30.3077    6.8828   10.8698  H     
50   H        28.5838    6.8277   11.2646  H     
51   H        28.3902    9.1079   10.7637  H     
52   H        29.1168    8.3389    9.4717  H     
53   H        30.0277    9.2662   10.5004  H     
54   H        25.9061    9.8758   11.0679  H     
55   H        24.3763    8.2458    9.5614  H     
56   H        23.0416    8.9917    8.6753  H     
57   H        23.4735   10.1464   10.8605  H     
58   H        23.6491   11.2252    9.4730  H     
59   H        26.2827   11.7762    8.6787  H     
60   H        27.5367   10.9487    9.6140  H     
61   H        27.0699    9.8659    7.3948  H     
62   H        26.8550    8.7682    8.7611  H     
63   H        24.9888    8.4812    7.1743  H     
64   H        24.6278   10.2152    7.2174  H     
@<TRIPOS>BOND
     1    1    2 1
     2    1    5 1
     3    1    9 2
     4    2    3 2
     5    3    4 1
     6    4    8 2
     7    5    6 am
     8    6    7 2
     9    6   17 1
    10    8    9 1
    11    8   12 1
    12    9   10 1
    13   10   11 2
    14   10   13 1
    15   12   13 1
    16   12   15 2
    17   13   14 2
    18   14   16 1
    19   14   26 1
    20   15   16 1
    21   17   23 1
    22   18   19 1
    23   18   22 1
    24   19   20 1
    25   19   24 1
    26   20   21 1
    27   21   23 1
    28   22   23 1
    29   24   25 1
    30   26   28 1
    31   26   29 1
    32   27   28 1
    33   27   31 1
    34   29   30 1
    35   30   31 1
    36    2   32 1
    37    3   33 1
    38    4   34 1
    39    5   35 1
    40   16   36 1
    41   17   37 1
    42   17   38 1
    43   18   39 1
    44   18   40 1
    45   19   41 1
    46   20   42 1
    47   20   43 1
    48   21   44 1
    49   21   45 1
    50   22   46 1
    51   22   47 1
    52   23   48 1
    53   24   49 1
    54   24   50 1
    55   25   51 1
    56   25   52 1
    57   25   53 1
    58   26   54 1
    59   27   55 1
    60   27   56 1
    61   28   57 1
    62   28   58 1
    63   29   59 1
    64   29   60 1
    65   30   61 1
    66   30   62 1
    67   31   63 1
    68   31   64 1
@<TRIPOS>PROPERTY_DATA
  Total_Score	| 11.4197
  Crash		| -1.5683
  Polar		| 4.4631
  FragIndex	| 1
  FragRMSD	| 1.201

