@<TRIPOS>MOLECULE
BindingDB_5633
 55 59 0 0 0
SMALL
NO_CHARGES


@<TRIPOS>ATOM
1    C        28.2144   12.3013   15.5414  C     
2    C        28.3950   13.4968   16.2968  C     
3    C        27.8043   14.7162   15.9181  C     
4    C        26.9772   14.7882   14.7803  C     
5    N        28.8004   11.0846   15.8206  N     
6    C        29.6588   10.7093   16.7720  C     
7    O        30.0661   11.4819   17.6296  O     
8    C        26.7661   13.6179   14.0446  C     
9    C        27.3586   12.3927   14.4093  C     
10   C        26.9619   11.4502   13.4737  C     
11   O        27.1936   10.2591   13.4719  O     
12   C        26.0438   13.4027   12.8788  C     
13   C        26.1883   12.0841   12.5452  C     
14   C        25.4946   11.9031   11.3571  C     
15   N        25.2872   14.0122   11.9422  N     
16   N        24.9743   13.1104   11.0600  N     
17   C        30.1242    9.3308   16.9020  C     
18   C        31.3972    8.1100   13.4197  C     
19   C        30.1651    7.2783   12.9373  C     
20   C        29.4636    6.6511   14.1798  C     
21   C        29.1047    7.7100   15.2547  C     
22   C        31.0491    9.1190   14.5552  C     
23   N        30.3241    8.4634   15.6870  N     
24   C        29.1883    8.0680   12.0094  C     
25   N        29.4870    7.8829   10.5813  N     
26   C        25.4014   10.6591   10.5716  C     
27   C        24.1718   10.4634    9.6644  C     
28   C        25.5434   10.7795    9.0408  C     
29   H        28.9451   13.5189   17.1452  H     
30   H        27.9789   15.5577   16.4662  H     
31   H        26.5508   15.6724   14.4995  H     
32   H        28.5877   10.3780   15.1915  H     
33   H        24.4422   13.2875   10.2603  H     
34   H        31.1007    9.3423   17.4049  H     
35   H        29.4499    8.8346   17.6063  H     
36   H        32.1578    7.4211   13.8025  H     
37   H        31.8456    8.6476   12.5778  H     
38   H        30.5531    6.4390   12.3516  H     
39   H        28.5577    6.1166   13.8767  H     
40   H        30.1321    5.9140   14.6345  H     
41   H        28.3365    8.3809   14.8678  H     
42   H        28.6772    7.1727   16.1111  H     
43   H        31.9844    9.5430   14.9289  H     
44   H        30.4578    9.9339   14.1424  H     
45   H        30.9577    7.7309   16.0077  H     
46   H        28.1618    7.7289   12.1585  H     
47   H        29.2179    9.1363   12.2218  H     
48   H        30.4333    8.2057   10.3785  H     
49   H        28.8235    8.4164   10.0183  H     
50   H        29.4093    6.8927   10.3409  H     
51   H        25.8214    9.7381   10.9815  H     
52   H        23.8326    9.4353    9.5219  H     
53   H        23.4471   11.2760    9.6208  H     
54   H        25.6258   11.7810    8.6134  H     
55   H        26.0051    9.9403    8.5199  H     
@<TRIPOS>BOND
     1    1    2 1
     2    1    5 1
     3    1    9 2
     4    2    3 2
     5    3    4 1
     6    4    8 2
     7    5    6 am
     8    6    7 2
     9    6   17 1
    10    8    9 1
    11    8   12 1
    12    9   10 1
    13   10   11 2
    14   10   13 1
    15   12   13 1
    16   12   15 2
    17   13   14 2
    18   14   16 1
    19   14   26 1
    20   15   16 1
    21   17   23 1
    22   18   19 1
    23   18   22 1
    24   19   20 1
    25   19   24 1
    26   20   21 1
    27   21   23 1
    28   22   23 1
    29   24   25 1
    30   26   27 1
    31   26   28 1
    32   27   28 1
    33    2   29 1
    34    3   30 1
    35    4   31 1
    36    5   32 1
    37   16   33 1
    38   17   34 1
    39   17   35 1
    40   18   36 1
    41   18   37 1
    42   19   38 1
    43   20   39 1
    44   20   40 1
    45   21   41 1
    46   21   42 1
    47   22   43 1
    48   22   44 1
    49   23   45 1
    50   24   46 1
    51   24   47 1
    52   25   48 1
    53   25   49 1
    54   25   50 1
    55   26   51 1
    56   27   52 1
    57   27   53 1
    58   28   54 1
    59   28   55 1
@<TRIPOS>PROPERTY_DATA
  Total_Score	| 9.7446
  Crash		| -0.8707
  Polar		| 4.2194
  FragIndex	| 1
  FragRMSD	| 0.697

