@<TRIPOS>MOLECULE
BindingDB_5622
 33 36 0 0 0
SMALL
NO_CHARGES


@<TRIPOS>ATOM
1    C        28.3685   12.3573   15.4784  C     
2    C        28.5571   13.5358   16.2566  C     
3    C        27.8852   14.7371   15.9453  C     
4    C        27.0237   14.8145   14.8387  C     
5    N        28.9948   11.1552   15.7045  N     
6    C        29.7049   10.7127   16.7279  C     
7    O        29.9212   11.3745   17.7420  O     
8    C        26.8566   13.6642   14.0516  C     
9    C        27.5027   12.4523   14.3613  C     
10   C        27.1300   11.5290   13.4000  C     
11   O        27.4668   10.3574   13.3180  O     
12   C        26.1196   13.4608   12.8944  C     
13   C        26.3103   12.1590   12.5118  C     
14   C        25.5810   11.9923   11.3423  C     
15   N        25.3131   14.0729   12.0066  N     
16   N        25.0081   13.1906   11.0996  N     
17   C        30.2721    9.3862   16.6555  C     
18   C        25.4719   10.7506   10.5568  C     
19   C        24.3220   10.5623    9.5599  C     
20   C        25.7276   10.8922    9.0448  C     
21   H        29.2009   13.5462   17.0458  H     
22   H        28.0307   15.5652   16.5267  H     
23   H        26.5407   15.6821   14.6002  H     
24   H        28.8984   10.5104   14.9841  H     
25   H        24.4369   13.3744   10.3351  H     
26   H        29.4746    8.6454   16.5713  H     
27   H        30.8667    9.1533   17.5407  H     
28   H        30.9212    9.3111   15.7816  H     
29   H        25.8922    9.8310   10.9685  H     
30   H        23.9968    9.5249    9.4312  H     
31   H        23.5783   11.3623    9.5214  H     
32   H        25.8184   11.8920    8.6192  H     
33   H        26.2302   10.0541    8.5549  H     
@<TRIPOS>BOND
     1    1    2 1
     2    1    5 1
     3    1    9 2
     4    2    3 2
     5    3    4 1
     6    4    8 2
     7    5    6 am
     8    6    7 2
     9    6   17 1
    10    8    9 1
    11    8   12 1
    12    9   10 1
    13   10   11 2
    14   10   13 1
    15   12   13 1
    16   12   15 2
    17   13   14 2
    18   14   16 1
    19   14   18 1
    20   15   16 1
    21   18   19 1
    22   18   20 1
    23   19   20 1
    24    2   21 1
    25    3   22 1
    26    4   23 1
    27    5   24 1
    28   16   25 1
    29   17   26 1
    30   17   27 1
    31   17   28 1
    32   18   29 1
    33   19   30 1
    34   19   31 1
    35   20   32 1
    36   20   33 1
@<TRIPOS>PROPERTY_DATA
  Total_Score	| 6.6366
  Crash		| -0.3379
  Polar		| 2.6897
  FragIndex	| 1
  FragRMSD	| 0.705

