@<TRIPOS>MOLECULE
BindingDB_5631
 54 57 0 0 0
SMALL
NO_CHARGES


@<TRIPOS>ATOM
1    C        28.0961   12.3563   15.4000  C     
2    C        28.3488   13.5771   16.0937  C     
3    C        27.7743   14.8056   15.6946  C     
4    C        26.9157   14.8602   14.5795  C     
5    N        28.6774   11.1338   15.6697  N     
6    C        29.4863   10.7454   16.6430  C     
7    O        29.7064   11.4536   17.6202  O     
8    C        26.6600   13.6702   13.8829  C     
9    C        27.2202   12.4425   14.2828  C     
10   C        26.7751   11.4761   13.4011  C     
11   O        26.9421   10.2699   13.4775  O     
12   C        25.8933   13.4327   12.7522  C     
13   C        25.9905   12.0949   12.4698  C     
14   C        25.2521   11.8874   11.3134  C     
15   N        25.1196   14.0247   11.8225  N     
16   N        24.7430   13.0983   10.9897  N     
17   C        30.0932    9.4191   16.7141  C     
18   C        31.2464    7.8868   13.3800  C     
19   C        30.0371    6.9911   12.9515  C     
20   C        29.2305    6.5605   14.2271  C     
21   C        28.9190    7.7406   15.1980  C     
22   C        30.8354    9.0481   14.3163  C     
23   N        30.1698    8.4912   15.5372  N     
24   C        29.1053    7.5800   11.8507  C     
25   N        29.7207    7.6853   10.5063  N     
26   C        25.0683   10.6296   10.5642  C     
27   C        25.2876   10.8227    9.0464  C     
28   H        28.9836   13.6005   16.8891  H     
29   H        27.9963   15.6655   16.2019  H     
30   H        26.4881   15.7398   14.2816  H     
31   H        28.4761   10.4451   15.0211  H     
32   H        24.1901   13.2668   10.2067  H     
33   H        31.1327    9.5673   17.0406  H     
34   H        29.6022    8.8781   17.5314  H     
35   H        31.9761    7.2691   13.9110  H     
36   H        31.7633    8.2842   12.5054  H     
37   H        30.4645    6.0816   12.5193  H     
38   H        28.2934    6.0746   13.9379  H     
39   H        29.8141    5.8131   14.7762  H     
40   H        28.1660    8.3972   14.7554  H     
41   H        28.4830    7.3188   16.1090  H     
42   H        31.7320    9.6144   14.5942  H     
43   H        30.1697    9.7216   13.7700  H     
44   H        30.8099    7.7597   15.8623  H     
45   H        28.2316    6.9333   11.7340  H     
46   H        28.7466    8.5769   12.1362  H     
47   H        30.4777    8.3680   10.5191  H     
48   H        29.0283    7.9903    9.8184  H     
49   H        30.1091    6.7792   10.2154  H     
50   H        25.7727    9.8716   10.9231  H     
51   H        24.0553   10.2580   10.7465  H     
52   H        24.5614   11.5375    8.6467  H     
53   H        25.1549    9.8704    8.5301  H     
54   H        26.3066   11.1787    8.8549  H     
@<TRIPOS>BOND
     1    1    2 1
     2    1    5 1
     3    1    9 2
     4    2    3 2
     5    3    4 1
     6    4    8 2
     7    5    6 am
     8    6    7 2
     9    6   17 1
    10    8    9 1
    11    8   12 1
    12    9   10 1
    13   10   11 2
    14   10   13 1
    15   12   13 1
    16   12   15 2
    17   13   14 2
    18   14   16 1
    19   14   26 1
    20   15   16 1
    21   17   23 1
    22   18   19 1
    23   18   22 1
    24   19   20 1
    25   19   24 1
    26   20   21 1
    27   21   23 1
    28   22   23 1
    29   24   25 1
    30   26   27 1
    31    2   28 1
    32    3   29 1
    33    4   30 1
    34    5   31 1
    35   16   32 1
    36   17   33 1
    37   17   34 1
    38   18   35 1
    39   18   36 1
    40   19   37 1
    41   20   38 1
    42   20   39 1
    43   21   40 1
    44   21   41 1
    45   22   42 1
    46   22   43 1
    47   23   44 1
    48   24   45 1
    49   24   46 1
    50   25   47 1
    51   25   48 1
    52   25   49 1
    53   26   50 1
    54   26   51 1
    55   27   52 1
    56   27   53 1
    57   27   54 1
@<TRIPOS>PROPERTY_DATA
  Total_Score	| 10.3861
  Crash		| -0.6200
  Polar		| 4.6556
  FragIndex	| 1
  FragRMSD	| 1.280

