@<TRIPOS>MOLECULE
BindingDB_11043
 28 28 0 0 0
SMALL
NO_CHARGES


@<TRIPOS>ATOM
1    C        15.0584    3.2743   15.3041  C     
2    C        15.8634    2.2612   15.8691  C     
3    C        17.2623    2.3506   15.7601  C     
4    C        17.8537    3.4395   15.1081  C     
5    C        17.0571    4.4534   14.5116  C     
6    C        15.6528    4.3687   14.6417  C     
7    N        13.5166    0.9418   17.0027  N     
8    S        15.1747    0.9253   16.7351  S     
9    O        15.3666   -0.3382   15.7900  O     
10   O        15.9949    0.6090   18.0600  O     
11   N        17.5701    5.5650   13.9040  N     
12   C        18.8077    5.7996   13.4802  C     
13   O        19.6918    4.9525   13.4810  O     
14   C        19.1645    7.0902   12.9078  C     
15   C        20.3115    7.7942   13.6947  C     
16   S        19.8358    8.2033   15.4090  S     
17   F        14.8715    5.2683   14.1211  F     
18   H        14.0431    3.2284   15.3891  H     
19   H        17.8589    1.6457   16.1863  H     
20   H        18.8762    3.4882   15.0916  H     
21   H        12.9997    0.1295   16.8449  H     
22   H        13.0572    1.7897   17.1606  H     
23   H        16.9387    6.2847   13.7321  H     
24   H        19.4993    6.9316   11.8647  H     
25   H        18.2974    7.7546   12.8567  H     
26   H        21.2033    7.1666   13.7319  H     
27   H        20.5846    8.7287   13.1849  H     
28   H        19.1348    9.3110   14.9695  H     
@<TRIPOS>BOND
     1    1    2 2
     2    1    6 1
     3    2    3 1
     4    2    8 1
     5    3    4 2
     6    4    5 1
     7    5    6 2
     8    5   11 1
     9    6   17 1
    10    7    8 am
    11    8    9 2
    12    8   10 2
    13   11   12 am
    14   12   13 2
    15   12   14 1
    16   14   15 1
    17   15   16 1
    18    1   18 1
    19    3   19 1
    20    4   20 1
    21    7   21 1
    22    7   22 1
    23   11   23 1
    24   14   24 1
    25   14   25 1
    26   15   26 1
    27   15   27 1
    28   16   28 1
@<TRIPOS>PROPERTY_DATA
  Total_Score	| 4.6476
  Crash		| -0.6296
  Polar		| 2.5980
  FragIndex	| 1
  FragRMSD	| 0.935

