@<TRIPOS>MOLECULE
BindingDB_35728
 31 32 0 0 0
SMALL
NO_CHARGES


@<TRIPOS>ATOM
1    C        19.0549    7.0900   12.6577  C     
2    C        19.8909    7.9189   13.5661  C     
3    C        21.0796    8.5798   13.2208  C     
4    C        21.6973    9.2751   14.2717  C     
5    C        21.0011    9.2336   15.4807  C     
6    S        19.5912    8.2798   15.2249  S     
7    C        18.7773    5.7393   13.1235  C     
8    O        19.5914    4.8234   12.9160  O     
9    N        17.6740    5.5207   13.8240  N     
10   C        17.1718    4.4307   14.4828  C     
11   C        15.1819    3.1793   15.2476  C     
12   C        15.7603    4.2788   14.5756  C     
13   C        17.9713    3.4349   15.0950  C     
14   C        17.3987    2.3004   15.7183  C     
15   C        15.9956    2.1746   15.8106  C     
16   S        15.2579    0.8584   16.7078  S     
17   O        15.3542   -0.4386   15.7933  O     
18   O        16.0440    0.5671   18.0620  O     
19   N        13.6069    0.8818   17.0353  N     
20   Cl       14.6830    5.4328   13.9417  Cl    
21   H        18.1174    7.6394   12.5068  H     
22   H        19.5508    6.9971   11.6844  H     
23   H        21.4674    8.5647   12.2740  H     
24   H        22.5852    9.7667   14.1616  H     
25   H        21.2866    9.6683   16.3546  H     
26   H        17.0805    6.2906   13.8642  H     
27   H        14.1570    3.1185   15.3523  H     
28   H        18.9939    3.5534   15.1185  H     
29   H        18.0281    1.6039   16.1414  H     
30   H        13.1732    0.0234   17.1848  H     
31   H        13.0634    1.6581   16.8108  H     
@<TRIPOS>BOND
     1    1    2 1
     2    1    7 1
     3    2    3 2
     4    2    6 1
     5    3    4 1
     6    4    5 2
     7    5    6 1
     8    7    8 2
     9    7    9 am
    10    9   10 1
    11   10   12 2
    12   10   13 1
    13   11   12 1
    14   11   15 2
    15   12   20 1
    16   13   14 2
    17   14   15 1
    18   15   16 1
    19   16   17 2
    20   16   18 2
    21   16   19 am
    22    1   21 1
    23    1   22 1
    24    3   23 1
    25    4   24 1
    26    5   25 1
    27    9   26 1
    28   11   27 1
    29   13   28 1
    30   14   29 1
    31   19   30 1
    32   19   31 1
@<TRIPOS>PROPERTY_DATA
  Total_Score	| 4.4621
  Crash		| -0.9657
  Polar		| 2.4644
  FragIndex	| 1
  FragRMSD	| 0.874

