@<TRIPOS>MOLECULE
BindingDB_35736
 34 35 0 0 0
SMALL
NO_CHARGES


@<TRIPOS>ATOM
1    C        19.0081    7.0012   12.5651  C     
2    C        17.9495    6.0727   12.9363  C     
3    O        16.9144    6.0732   12.2814  O     
4    N        18.1670    5.2047   13.9225  N     
5    C        17.3742    4.2478   14.5067  C     
6    C        17.4034    2.1984   15.8696  C     
7    C        18.0790    3.2360   15.2024  C     
8    C        15.9567    4.2147   14.5426  C     
9    C        15.2768    3.1738   15.2144  C     
10   C        15.9992    2.1577   15.8723  C     
11   S        15.1629    0.8936   16.7186  S     
12   O        15.2712   -0.3810   15.7813  O     
13   O        15.9112    0.5049   18.0681  O     
14   N        13.5084    1.1090   16.9224  N     
15   C        19.6733    7.7895   13.6469  C     
16   C        21.5791    9.2126   14.3027  C     
17   C        21.0713    9.3012   15.6131  C     
18   C        19.8755    8.6422   15.9508  C     
19   C        19.1774    7.9046   14.9802  C     
20   C        20.8884    8.4609   13.3318  C     
21   F        15.2195    5.1613   14.0359  F     
22   H        19.7758    6.4155   12.0489  H     
23   H        18.6257    7.7240   11.8355  H     
24   H        19.0743    5.2412   14.2765  H     
25   H        17.9484    1.4809   16.3541  H     
26   H        19.1052    3.2439   15.2263  H     
27   H        14.2536    3.1721   15.2338  H     
28   H        12.9006    0.4676   16.5246  H     
29   H        13.1721    1.9906   17.1445  H     
30   H        22.4461    9.7001   14.0555  H     
31   H        21.5688    9.8485   16.3219  H     
32   H        19.4884    8.7182   16.8990  H     
33   H        18.2943    7.4646   15.2658  H     
34   H        21.2779    8.4116   12.3787  H     
@<TRIPOS>BOND
     1    1    2 1
     2    1   15 1
     3    2    3 2
     4    2    4 am
     5    4    5 1
     6    5    7 2
     7    5    8 1
     8    6    7 1
     9    6   10 2
    10    8    9 2
    11    8   21 1
    12    9   10 1
    13   10   11 1
    14   11   12 2
    15   11   13 2
    16   11   14 am
    17   15   19 2
    18   15   20 1
    19   16   17 1
    20   16   20 2
    21   17   18 2
    22   18   19 1
    23    1   22 1
    24    1   23 1
    25    4   24 1
    26    6   25 1
    27    7   26 1
    28    9   27 1
    29   14   28 1
    30   14   29 1
    31   16   30 1
    32   17   31 1
    33   18   32 1
    34   19   33 1
    35   20   34 1
@<TRIPOS>PROPERTY_DATA
  Total_Score	| 5.6079
  Crash		| -0.8554
  Polar		| 2.4522
  FragIndex	| 1
  FragRMSD	| 1.165

