@<TRIPOS>MOLECULE
BindingDB_35729
 31 32 0 0 0
SMALL
NO_CHARGES


@<TRIPOS>ATOM
1    C        18.7714    7.1880   12.5453  C     
2    C        19.7004    7.8784   13.4671  C     
3    C        20.9380    8.4616   13.1539  C     
4    C        21.5896    9.0807   14.2351  C     
5    C        20.8961    9.0089   15.4440  C     
6    S        19.4329    8.1558   15.1468  S     
7    C        18.4819    5.8479   13.0180  C     
8    O        19.3663    4.9909   12.9546  O     
9    N        17.3023    5.6084   13.5872  N     
10   C        16.8891    4.4903   14.2468  C     
11   C        17.2120    2.4167   15.5065  C     
12   C        17.7524    3.5184   14.8083  C     
13   C        15.5034    4.3766   14.4625  C     
14   C        14.9704    3.2885   15.1748  C     
15   C        15.8204    2.3007   15.6960  C     
16   S        15.1771    0.9852   16.6364  S     
17   O        15.3469   -0.3325   15.7645  O     
18   O        16.0038    0.6904   17.9636  O     
19   N        13.5306    1.0467   16.9420  N     
20   Br       19.6112    3.7001   14.8210  Br    
21   H        17.8534    7.7788   12.4718  H     
22   H        19.2046    7.1355   11.5429  H     
23   H        21.3405    8.4420   12.2148  H     
24   H        22.5002    9.5356   14.1509  H     
25   H        21.1964    9.3960   16.3401  H     
26   H        16.6214    6.3024   13.4812  H     
27   H        17.8467    1.7213   15.9119  H     
28   H        14.8664    5.0842   14.0967  H     
29   H        13.9615    3.2388   15.3221  H     
30   H        12.9463    0.4061   16.5137  H     
31   H        13.1525    1.8343   17.3594  H     
@<TRIPOS>BOND
     1    1    2 1
     2    1    7 1
     3    2    3 2
     4    2    6 1
     5    3    4 1
     6    4    5 2
     7    5    6 1
     8    7    8 2
     9    7    9 am
    10    9   10 1
    11   10   12 2
    12   10   13 1
    13   11   12 1
    14   11   15 2
    15   12   20 1
    16   13   14 2
    17   14   15 1
    18   15   16 1
    19   16   17 2
    20   16   18 2
    21   16   19 am
    22    1   21 1
    23    1   22 1
    24    3   23 1
    25    4   24 1
    26    5   25 1
    27    9   26 1
    28   11   27 1
    29   13   28 1
    30   14   29 1
    31   19   30 1
    32   19   31 1
@<TRIPOS>PROPERTY_DATA
  Total_Score	| 4.0526
  Crash		| -1.6667
  Polar		| 2.7723
  FragIndex	| 1
  FragRMSD	| 0.900

