@<TRIPOS>MOLECULE
BindingDB_35727
 31 32 0 0 0
SMALL
NO_CHARGES


@<TRIPOS>ATOM
1    C        18.9743    7.0419   12.6654  C     
2    C        19.8523    7.8247   13.5554  C     
3    C        21.0835    8.4059   13.2316  C     
4    C        21.6923    9.1123   14.2830  C     
5    C        20.9639    9.1185   15.4742  C     
6    S        19.5313    8.2085   15.2042  S     
7    C        18.7026    5.7377   13.2293  C     
8    O        19.5948    4.8987   13.1760  O     
9    N        17.5177    5.5077   13.7809  N     
10   C        17.0295    4.4071   14.4351  C     
11   C        15.0474    3.2348   15.2875  C     
12   C        15.6239    4.3019   14.5742  C     
13   C        17.8401    3.4149   15.0418  C     
14   C        17.2682    2.3456   15.7495  C     
15   C        15.8689    2.2535   15.8757  C     
16   S        15.1778    0.9266   16.7528  S     
17   O        15.3524   -0.3162   15.7809  O     
18   O        16.0032    0.5217   18.0482  O     
19   N        13.5167    0.9683   16.9865  N     
20   F        14.8231    5.1877   14.0395  F     
21   H        18.0538    7.6131   12.5237  H     
22   H        19.4317    6.9178   11.6797  H     
23   H        21.5148    8.3168   12.3083  H     
24   H        22.5990    9.5743   14.1878  H     
25   H        21.2335    9.5680   16.3476  H     
26   H        16.8868    6.2426   13.7063  H     
27   H        14.0289    3.1758   15.3698  H     
28   H        18.8580    3.4678   15.0082  H     
29   H        17.8819    1.6433   16.1742  H     
30   H        12.9648    0.3256   16.5112  H     
31   H        13.1103    1.7855   17.3158  H     
@<TRIPOS>BOND
     1    1    2 1
     2    1    7 1
     3    2    3 2
     4    2    6 1
     5    3    4 1
     6    4    5 2
     7    5    6 1
     8    7    8 2
     9    7    9 am
    10    9   10 1
    11   10   12 2
    12   10   13 1
    13   11   12 1
    14   11   15 2
    15   12   20 1
    16   13   14 2
    17   14   15 1
    18   15   16 1
    19   16   17 2
    20   16   18 2
    21   16   19 am
    22    1   21 1
    23    1   22 1
    24    3   23 1
    25    4   24 1
    26    5   25 1
    27    9   26 1
    28   11   27 1
    29   13   28 1
    30   14   29 1
    31   19   30 1
    32   19   31 1
@<TRIPOS>PROPERTY_DATA
  Total_Score	| 4.8111
  Crash		| -0.8552
  Polar		| 2.6491
  FragIndex	| 1
  FragRMSD	| 0.844

