@<TRIPOS>MOLECULE
BindingDB_35726
 31 32 0 0 0
SMALL
NO_CHARGES


@<TRIPOS>ATOM
1    C        19.2898    6.9068   12.5633  C     
2    C        20.0033    7.7424   13.5568  C     
3    C        21.1737    8.4641   13.2847  C     
4    C        21.6788    9.2111   14.3642  C     
5    C        20.9251    9.1096   15.5359  C     
6    S        19.6007    8.0673   15.2043  S     
7    C        18.1648    6.1432   13.0787  C     
8    O        17.0413    6.4360   12.6909  O     
9    N        18.4032    5.1274   13.9014  N     
10   C        17.5692    4.2155   14.4947  C     
11   C        15.4122    3.1821   15.0711  C     
12   C        16.1531    4.1748   14.4036  C     
13   C        18.2117    3.2167   15.2599  C     
14   C        17.4767    2.2179   15.9197  C     
15   C        16.0699    2.2017   15.8417  C     
16   S        15.1796    0.9868   16.7092  S     
17   O        15.2292   -0.3024   15.7855  O     
18   O        15.9009    0.5493   18.0565  O     
19   N        13.5445    1.2881   16.9295  N     
20   H        18.9580    7.5724   11.7583  H     
21   H        20.0066    6.2035   12.1272  H     
22   H        21.6284    8.4577   12.3675  H     
23   H        22.5235    9.7812   14.2960  H     
24   H        21.1163    9.5755   16.4226  H     
25   H        19.3440    5.0005   14.1115  H     
26   H        14.3903    3.1822   14.9894  H     
27   H        15.6352    4.8659   13.8599  H     
28   H        19.2354    3.2061   15.3460  H     
29   H        17.9768    1.5034   16.4596  H     
30   H        12.9014    0.7047   16.5017  H     
31   H        13.2610    2.1656   17.2358  H     
@<TRIPOS>BOND
     1    1    2 1
     2    1    7 1
     3    2    3 2
     4    2    6 1
     5    3    4 1
     6    4    5 2
     7    5    6 1
     8    7    8 2
     9    7    9 am
    10    9   10 1
    11   10   12 2
    12   10   13 1
    13   11   12 1
    14   11   15 2
    15   13   14 2
    16   14   15 1
    17   15   16 1
    18   16   17 2
    19   16   18 2
    20   16   19 am
    21    1   20 1
    22    1   21 1
    23    3   22 1
    24    4   23 1
    25    5   24 1
    26    9   25 1
    27   11   26 1
    28   12   27 1
    29   13   28 1
    30   14   29 1
    31   19   30 1
    32   19   31 1
@<TRIPOS>PROPERTY_DATA
  Total_Score	| 4.9657
  Crash		| -0.6878
  Polar		| 2.6350
  FragIndex	| 1
  FragRMSD	| 1.185

