@<TRIPOS>MOLECULE
BindingDB_50415865
 33 33 0 0 0
SMALL
NO_CHARGES


@<TRIPOS>ATOM
1    C        17.3269    2.3244   15.7698  C     
2    C        17.9028    3.4360   15.1430  C     
3    C        17.1061    4.4508   14.5568  C     
4    C        15.7000    4.3285   14.6605  C     
5    C        15.1137    3.2156   15.2939  C     
6    C        15.9257    2.2130   15.8599  C     
7    S        15.2360    0.8599   16.7171  S     
8    N        13.5778    0.9391   17.0294  N     
9    O        15.3896   -0.3940   15.7437  O     
10   O        16.0326    0.5276   18.0504  O     
11   N        17.5976    5.5866   13.9633  N     
12   C        18.7719    5.8179   13.3979  C     
13   C        19.0577    7.1006   12.7739  C     
14   O        19.6318    4.9495   13.2814  O     
15   C        20.2198    7.8979   13.4375  C     
16   C        19.8248    8.7589   14.6591  C     
17   N        19.4379    7.9678   15.8348  N     
18   F        14.8973    5.2222   14.1400  F     
19   H        17.9430    1.6092   16.1790  H     
20   H        18.9211    3.4997   15.1370  H     
21   H        14.0906    3.1385   15.3501  H     
22   H        13.0334    0.1251   16.9651  H     
23   H        13.1418    1.8040   17.1435  H     
24   H        16.9753    6.3277   13.9158  H     
25   H        19.3345    6.9199   11.7254  H     
26   H        18.1715    7.7292   12.7483  H     
27   H        21.0174    7.2132   13.7472  H     
28   H        20.6418    8.5876   12.6989  H     
29   H        20.6885    9.3876   14.9458  H     
30   H        18.9917    9.4387   14.4167  H     
31   H        18.5223    7.5398   15.6527  H     
32   H        19.3731    8.5842   16.6558  H     
33   H        20.1435    7.2521   16.0089  H     
@<TRIPOS>BOND
     1    1    2 2
     2    1    6 1
     3    2    3 1
     4    3    4 2
     5    3   11 1
     6    4    5 1
     7    4   18 1
     8    5    6 2
     9    6    7 1
    10    7    8 am
    11    7    9 2
    12    7   10 2
    13   11   12 am
    14   12   13 1
    15   12   14 2
    16   13   15 1
    17   15   16 1
    18   16   17 1
    19    1   19 1
    20    2   20 1
    21    5   21 1
    22    8   22 1
    23    8   23 1
    24   11   24 1
    25   13   25 1
    26   13   26 1
    27   15   27 1
    28   15   28 1
    29   16   29 1
    30   16   30 1
    31   17   31 1
    32   17   32 1
    33   17   33 1
@<TRIPOS>PROPERTY_DATA
  Total_Score	| 5.3144
  Crash		| -0.6610
  Polar		| 2.4308
  FragIndex	| 1
  FragRMSD	| 0.958

