@<TRIPOS>MOLECULE
BindingDB_11596
 24 24 0 0 0
SMALL
NO_CHARGES


@<TRIPOS>ATOM
1    C        17.3925    4.3304   14.6045  C     
2    C        18.1087    3.2935   15.2438  C     
3    C        17.4333    2.2283   15.8628  C     
4    C        16.0252    2.1913   15.8574  C     
5    C        15.2870    3.2095   15.2080  C     
6    C        15.9643    4.3073   14.6147  C     
7    N        18.2228    5.2788   14.1043  N     
8    C        18.0290    6.1521   13.1218  C     
9    C        19.0946    7.0818   12.8379  C     
10   O        16.9389    6.1579   12.5148  O     
11   N        13.6259    1.1167   17.0342  N     
12   S        15.2478    0.8853   16.7162  S     
13   O        15.3349   -0.3904   15.7732  O     
14   O        16.0064    0.4979   18.0621  O     
15   F        15.2746    5.3439   14.1101  F     
16   H        19.1363    3.3074   15.2689  H     
17   H        17.9909    1.4906   16.3307  H     
18   H        14.2590    3.1789   15.1972  H     
19   H        19.1176    5.2653   14.4777  H     
20   H        19.4441    7.5382   13.7793  H     
21   H        18.7158    7.8719   12.1869  H     
22   H        19.9212    6.5522   12.3391  H     
23   H        13.0137    0.3662   16.8948  H     
24   H        13.2833    2.0255   16.9766  H     
@<TRIPOS>BOND
     1    1    2 2
     2    1    6 1
     3    1    7 1
     4    2    3 1
     5    3    4 2
     6    4    5 1
     7    4   12 1
     8    5    6 2
     9    6   15 1
    10    7    8 am
    11    8    9 1
    12    8   10 2
    13   11   12 am
    14   12   13 2
    15   12   14 2
    16    2   16 1
    17    3   17 1
    18    5   18 1
    19    7   19 1
    20    9   20 1
    21    9   21 1
    22    9   22 1
    23   11   23 1
    24   11   24 1
@<TRIPOS>PROPERTY_DATA
  Total_Score	| 3.9955
  Crash		| -0.3551
  Polar		| 2.4988
  FragIndex	| 1
  FragRMSD	| 1.302

