@<TRIPOS>MOLECULE
BindingDB_16648
 33 33 0 0 0
SMALL
NO_CHARGES


@<TRIPOS>ATOM
1    C        -5.3476    2.4613   16.0210  C     
2    C        -6.1019    3.4836   15.4171  C     
3    C        -5.4677    4.5038   14.6806  C     
4    C        -4.0552    4.5291   14.5530  C     
5    C        -3.3124    3.4975   15.1659  C     
6    C        -3.9435    2.4739   15.8919  C     
7    S        -6.1232    1.2026   16.9411  S     
8    O        -5.8593   -0.1483   16.1504  O     
9    O        -5.5038    0.9657   18.3866  O     
10   N        -7.8009    1.2520   16.9759  N     
11   N        -3.3148    5.4751   13.8920  N     
12   C        -3.6440    6.6191   13.3031  C     
13   O        -4.8019    7.0047   13.2232  O     
14   C        -2.5895    7.4624   12.7487  C     
15   C        -1.5151    7.9047   13.7812  C     
16   C        -2.0791    8.6921   14.9927  C     
17   C        -1.0107    8.9404   16.0795  C     
18   H        -7.1201    3.4936   15.5018  H     
19   H        -6.0513    5.2153   14.2408  H     
20   H        -2.2927    3.4852   15.0946  H     
21   H        -3.3757    1.7408   16.3213  H     
22   H        -8.2975    0.5893   16.4715  H     
23   H        -8.2466    2.0745   17.2240  H     
24   H        -2.3609    5.3002   13.8919  H     
25   H        -2.0888    6.9038   11.9503  H     
26   H        -3.0097    8.3636   12.2868  H     
27   H        -0.9853    7.0223   14.1420  H     
28   H        -0.7867    8.5367   13.2708  H     
29   H        -2.4681    9.6577   14.6528  H     
30   H        -2.9063    8.1392   15.4509  H     
31   H        -0.6434    7.9889   16.4706  H     
32   H        -1.4508    9.5095   16.9004  H     
33   H        -0.1733    9.5055   15.6669  H     
@<TRIPOS>BOND
     1    1    2 1
     2    1    6 2
     3    1    7 1
     4    2    3 2
     5    3    4 1
     6    4    5 2
     7    4   11 1
     8    5    6 1
     9    7    8 2
    10    7    9 2
    11    7   10 am
    12   11   12 am
    13   12   13 2
    14   12   14 1
    15   14   15 1
    16   15   16 1
    17   16   17 1
    18    2   18 1
    19    3   19 1
    20    5   20 1
    21    6   21 1
    22   10   22 1
    23   10   23 1
    24   11   24 1
    25   14   25 1
    26   14   26 1
    27   15   27 1
    28   15   28 1
    29   16   29 1
    30   16   30 1
    31   17   31 1
    32   17   32 1
    33   17   33 1
@<TRIPOS>PROPERTY_DATA
  Total_Score	| 5.4268
  Crash		| -1.0152
  Polar		| 2.0956
  FragIndex	| 1
  FragRMSD	| 0.989

