@<TRIPOS>MOLECULE
BindingDB_35739
 33 34 0 0 0
SMALL
NO_CHARGES


@<TRIPOS>ATOM
1    C        -2.6623    7.5720   12.7876  C     
2    C        -3.6998    6.6746   13.2745  C     
3    O        -4.8684    7.0337   13.1878  O     
4    N        -3.3401    5.5286   13.8405  N     
5    C        -4.0595    4.5430   14.4730  C     
6    C        -6.0757    3.4023   15.3248  C     
7    C        -5.4737    4.4535   14.5956  C     
8    C        -3.2825    3.5479   15.1029  C     
9    C        -3.8786    2.5032   15.8290  C     
10   C        -5.2787    2.4142   15.9410  C     
11   S        -5.9613    1.0966   16.8600  S     
12   O        -5.6912   -0.2064   15.9941  O     
13   O        -5.1904    0.8973   18.2364  O     
14   N        -7.6245    1.0864   17.0848  N     
15   C        -1.9950    8.3453   13.8673  C     
16   C        -0.8595    8.5165   16.0234  C     
17   C        -0.7506    9.9083   15.8505  C     
18   C        -1.2582   10.4819   14.6690  C     
19   C        -1.4683    7.7259   15.0255  C     
20   N        -1.8660    9.6986   13.7349  N     
21   H        -1.9065    7.0077   12.2336  H     
22   H        -3.1034    8.2768   12.0720  H     
23   H        -2.3897    5.3628   13.8287  H     
24   H        -7.0986    3.3490   15.4031  H     
25   H        -6.0888    5.1346   14.1592  H     
26   H        -2.2639    3.5797   15.0445  H     
27   H        -3.2734    1.7998   16.2718  H     
28   H        -8.0714    0.2279   17.2180  H     
29   H        -8.1402    1.8955   16.9511  H     
30   H        -0.5011    8.0817   16.8811  H     
31   H        -0.3127   10.4922   16.5722  H     
32   H        -1.1827   11.4863   14.5163  H     
33   H        -1.5270    6.7068   15.1443  H     
@<TRIPOS>BOND
     1    1    2 1
     2    1   15 1
     3    2    3 2
     4    2    4 am
     5    4    5 1
     6    5    7 2
     7    5    8 1
     8    6    7 1
     9    6   10 2
    10    8    9 2
    11    9   10 1
    12   10   11 1
    13   11   12 2
    14   11   13 2
    15   11   14 am
    16   15   19 1
    17   15   20 2
    18   16   17 1
    19   16   19 2
    20   17   18 2
    21   18   20 1
    22    1   21 1
    23    1   22 1
    24    4   23 1
    25    6   24 1
    26    7   25 1
    27    8   26 1
    28    9   27 1
    29   14   28 1
    30   14   29 1
    31   16   30 1
    32   17   31 1
    33   18   32 1
    34   19   33 1
@<TRIPOS>PROPERTY_DATA
  Total_Score	| 6.0353
  Crash		| -1.0317
  Polar		| 2.0261
  FragIndex	| 1
  FragRMSD	| 0.879

