@<TRIPOS>MOLECULE
BindingDB_16645
 27 27 0 0 0
SMALL
NO_CHARGES


@<TRIPOS>ATOM
1    C        -5.2522    2.5028   15.8929  C     
2    C        -6.0523    3.5090   15.3205  C     
3    C        -5.4503    4.6053   14.6729  C     
4    C        -4.0401    4.7019   14.5696  C     
5    C        -3.2529    3.6786   15.1396  C     
6    C        -3.8538    2.5827   15.7904  C     
7    S        -5.9629    1.1592   16.7497  S     
8    O        -5.9143   -0.0700   15.7485  O     
9    O        -5.1048    0.7986   18.0395  O     
10   N        -7.5775    1.3330   17.1762  N     
11   N        -3.3405    5.7207   13.9758  N     
12   C        -3.7427    6.7770   13.2828  C     
13   O        -4.9149    6.9873   13.0031  O     
14   C        -2.7433    7.7032   12.7649  C     
15   C        -1.8192    8.2762   13.8637  C     
16   H        -7.0688    3.4640   15.3766  H     
17   H        -6.0683    5.3193   14.3020  H     
18   H        -2.2313    3.7219   15.0880  H     
19   H        -3.2478    1.8595   16.1929  H     
20   H        -8.1201    0.5350   17.3178  H     
21   H        -8.0023    2.2070   17.1391  H     
22   H        -2.3764    5.6593   14.0870  H     
23   H        -2.1324    7.1791   12.0265  H     
24   H        -3.2195    8.5486   12.2502  H     
25   H        -2.4035    8.7628   14.6495  H     
26   H        -1.1475    9.0192   13.4240  H     
27   H        -1.2119    7.4818   14.3091  H     
@<TRIPOS>BOND
     1    1    2 1
     2    1    6 2
     3    1    7 1
     4    2    3 2
     5    3    4 1
     6    4    5 2
     7    4   11 1
     8    5    6 1
     9    7    8 2
    10    7    9 2
    11    7   10 am
    12   11   12 am
    13   12   13 2
    14   12   14 1
    15   14   15 1
    16    2   16 1
    17    3   17 1
    18    5   18 1
    19    6   19 1
    20   10   20 1
    21   10   21 1
    22   11   22 1
    23   14   23 1
    24   14   24 1
    25   15   25 1
    26   15   26 1
    27   15   27 1
@<TRIPOS>PROPERTY_DATA
  Total_Score	| 3.5403
  Crash		| -0.7651
  Polar		| 2.4907
  FragIndex	| 1
  FragRMSD	| 1.015

