@<TRIPOS>MOLECULE
BindingDB_35740
 33 34 0 0 0
SMALL
NO_CHARGES


@<TRIPOS>ATOM
1    C        -2.6632    7.6041   12.7822  C     
2    C        -3.6723    6.6742   13.2787  C     
3    O        -4.8494    7.0041   13.2513  O     
4    N        -3.2666    5.5371   13.8277  N     
5    C        -3.9647    4.5559   14.4648  C     
6    C        -6.0012    3.4319   15.2417  C     
7    C        -5.3760    4.4776   14.5319  C     
8    C        -3.2006    3.5520   15.0991  C     
9    C        -3.8181    2.5112   15.8114  C     
10   C        -5.2242    2.4538   15.8966  C     
11   S        -5.9663    1.1726   16.8102  S     
12   O        -5.9150   -0.0921   15.8523  O     
13   O        -5.1620    0.8078   18.1328  O     
14   N        -7.5980    1.4299   17.0984  N     
15   C        -2.0345    8.4242   13.8609  C     
16   C        -1.2565   10.5708   14.7354  C     
17   C        -0.8753    8.5990   16.0052  C     
18   C        -1.9017    9.8288   13.7304  C     
19   C        -1.4904    7.8090   15.0171  C     
20   N        -0.7726    9.9416   15.8369  N     
21   H        -1.8667    7.0505   12.2766  H     
22   H        -3.1167    8.2475   12.0157  H     
23   H        -2.3045    5.4126   13.8360  H     
24   H        -7.0211    3.3904   15.2868  H     
25   H        -5.9620    5.1731   14.0623  H     
26   H        -2.1783    3.5763   15.0582  H     
27   H        -3.2350    1.8058   16.2782  H     
28   H        -8.2160    0.7128   16.8907  H     
29   H        -7.9219    2.3424   17.1488  H     
30   H        -1.1457   11.5818   14.6401  H     
31   H        -0.4947    8.1654   16.8466  H     
32   H        -2.2471   10.3124   12.8982  H     
33   H        -1.5381    6.7941   15.1454  H     
@<TRIPOS>BOND
     1    1    2 1
     2    1   15 1
     3    2    3 2
     4    2    4 am
     5    4    5 1
     6    5    7 2
     7    5    8 1
     8    6    7 1
     9    6   10 2
    10    8    9 2
    11    9   10 1
    12   10   11 1
    13   11   12 2
    14   11   13 2
    15   11   14 am
    16   15   18 1
    17   15   19 2
    18   16   18 2
    19   16   20 1
    20   17   19 1
    21   17   20 2
    22    1   21 1
    23    1   22 1
    24    4   23 1
    25    6   24 1
    26    7   25 1
    27    8   26 1
    28    9   27 1
    29   14   28 1
    30   14   29 1
    31   16   30 1
    32   17   31 1
    33   18   32 1
    34   19   33 1
@<TRIPOS>PROPERTY_DATA
  Total_Score	| 5.8352
  Crash		| -0.9762
  Polar		| 2.4065
  FragIndex	| 1
  FragRMSD	| 0.898

