@<TRIPOS>MOLECULE
BindingDB_11041
 28 28 0 0 0
SMALL
NO_CHARGES


@<TRIPOS>ATOM
1    C        -3.8758    2.5545   15.8006  C     
2    C        -5.2732    2.4843   15.9671  C     
3    C        -6.0778    3.5307   15.4832  C     
4    C        -5.4930    4.6374   14.8461  C     
5    C        -4.0921    4.7291   14.6626  C     
6    C        -3.2938    3.6678   15.1610  C     
7    N        -7.6204    1.2447   17.1374  N     
8    S        -5.9774    1.1307   16.8052  S     
9    O        -5.8495   -0.0957   15.8061  O     
10   O        -5.1629    0.7524   18.1132  O     
11   N        -3.3941    5.7653   14.0981  N     
12   C        -3.8015    6.7688   13.3164  C     
13   O        -4.9503    6.8857   12.9186  O     
14   C        -2.8205    7.7347   12.8415  C     
15   C        -2.1637    8.5871   13.9695  C     
16   S        -0.3991    8.2294   14.1723  S     
17   H        -3.2624    1.8050   16.1479  H     
18   H        -7.0912    3.4983   15.6144  H     
19   H        -6.1285    5.3756   14.5621  H     
20   H        -2.2732    3.7018   15.0618  H     
21   H        -8.1942    0.4981   16.8991  H     
22   H        -8.0072    2.1243   17.2956  H     
23   H        -2.4440    5.7600   14.2857  H     
24   H        -2.0538    7.2018   12.2694  H     
25   H        -3.2990    8.4270   12.1388  H     
26   H        -2.2396    9.6470   13.7016  H     
27   H        -2.6834    8.4568   14.9271  H     
28   H        -0.5261    7.7984   15.4568  H     
@<TRIPOS>BOND
     1    1    2 2
     2    1    6 1
     3    2    3 1
     4    2    8 1
     5    3    4 2
     6    4    5 1
     7    5    6 2
     8    5   11 1
     9    7    8 am
    10    8    9 2
    11    8   10 2
    12   11   12 am
    13   12   13 2
    14   12   14 1
    15   14   15 1
    16   15   16 1
    17    1   17 1
    18    3   18 1
    19    4   19 1
    20    6   20 1
    21    7   21 1
    22    7   22 1
    23   11   23 1
    24   14   24 1
    25   14   25 1
    26   15   26 1
    27   15   27 1
    28   16   28 1
@<TRIPOS>PROPERTY_DATA
  Total_Score	| 4.0829
  Crash		| -0.9016
  Polar		| 2.3297
  FragIndex	| 1
  FragRMSD	| 1.017

