@<TRIPOS>MOLECULE
BindingDB_35733
 34 35 0 0 0
SMALL
NO_CHARGES


@<TRIPOS>ATOM
1    C        -2.6704    7.6007   12.7524  C     
2    C        -3.6989    6.7071   13.2562  C     
3    O        -4.8727    7.0459   13.1679  O     
4    N        -3.3229    5.5577   13.8073  N     
5    C        -4.0347    4.5756   14.4446  C     
6    C        -3.8355    2.5318   15.7824  C     
7    C        -3.2472    3.5881   15.0731  C     
8    C        -5.4480    4.4609   14.5309  C     
9    C        -6.0380    3.4027   15.2431  C     
10   C        -5.2356    2.4377   15.8807  C     
11   S        -5.9473    1.1322   16.7876  S     
12   O        -5.8680   -0.1202   15.8167  O     
13   O        -5.0961    0.7884   18.0848  O     
14   N        -7.5792    1.3266   17.1421  N     
15   C        -2.0180    8.4099   13.8176  C     
16   C        -0.8653    8.5675   15.9825  C     
17   C        -0.7309    9.9594   15.8183  C     
18   C        -1.2325   10.5772   14.6560  C     
19   C        -1.8808    9.8112   13.6703  C     
20   C        -1.4858    7.7985   14.9809  C     
21   H        -1.8923    7.0258   12.2400  H     
22   H        -3.1232    8.2444   11.9902  H     
23   H        -2.3675    5.4038   13.7919  H     
24   H        -3.2358    1.8412   16.2304  H     
25   H        -2.2274    3.6453   15.0319  H     
26   H        -6.0624    5.1358   14.0709  H     
27   H        -7.0612    3.3440   15.2931  H     
28   H        -8.1713    0.5582   17.0629  H     
29   H        -7.9597    2.2194   17.1319  H     
30   H        -0.5073    8.1134   16.8304  H     
31   H        -0.2700   10.5179   16.5458  H     
32   H        -1.1262   11.5875   14.5386  H     
33   H        -2.2456   10.2853   12.8454  H     
34   H        -1.5469    6.7869   15.1166  H     
@<TRIPOS>BOND
     1    1    2 1
     2    1   15 1
     3    2    3 2
     4    2    4 am
     5    4    5 1
     6    5    7 2
     7    5    8 1
     8    6    7 1
     9    6   10 2
    10    8    9 2
    11    9   10 1
    12   10   11 1
    13   11   12 2
    14   11   13 2
    15   11   14 am
    16   15   19 2
    17   15   20 1
    18   16   17 1
    19   16   20 2
    20   17   18 2
    21   18   19 1
    22    1   21 1
    23    1   22 1
    24    4   23 1
    25    6   24 1
    26    7   25 1
    27    8   26 1
    28    9   27 1
    29   14   28 1
    30   14   29 1
    31   16   30 1
    32   17   31 1
    33   18   32 1
    34   19   33 1
    35   20   34 1
@<TRIPOS>PROPERTY_DATA
  Total_Score	| 6.2134
  Crash		| -0.9797
  Polar		| 2.4279
  FragIndex	| 1
  FragRMSD	| 0.879

