@<TRIPOS>MOLECULE
BindingDB_16647
 30 30 0 0 0
SMALL
NO_CHARGES


@<TRIPOS>ATOM
1    C        -5.2380    2.4350   16.0275  C     
2    C        -5.9472    3.5188   15.4671  C     
3    C        -5.2504    4.5874   14.8714  C     
4    C        -3.8292    4.6021   14.8329  C     
5    C        -3.1446    3.4964   15.3755  C     
6    C        -3.8335    2.4301   15.9725  C     
7    S        -6.0513    1.1218   16.8268  S     
8    O        -5.8565   -0.1301   15.8680  O     
9    O        -5.3387    0.6979   18.1803  O     
10   N        -7.7188    1.2345   16.9677  N     
11   N        -3.0321    5.5988   14.3246  N     
12   C        -3.3195    6.7383   13.6997  C     
13   O        -4.4727    7.0367   13.4194  O     
14   C        -2.2607    7.6319   13.2307  C     
15   C        -0.8843    7.4524   13.9297  C     
16   C        -2.1019    7.5047   11.6914  C     
17   H        -6.9650    3.5404   15.4901  H     
18   H        -5.7892    5.3612   14.4891  H     
19   H        -2.1278    3.4617   15.3618  H     
20   H        -3.3006    1.6525   16.3761  H     
21   H        -8.2663    0.6004   16.4820  H     
22   H        -8.1071    2.0672   17.2697  H     
23   H        -2.0840    5.4432   14.4606  H     
24   H        -2.5684    8.6585   13.4445  H     
25   H        -0.9909    7.5068   15.0166  H     
26   H        -0.1984    8.2516   13.6199  H     
27   H        -0.4313    6.4969   13.6633  H     
28   H        -1.7816    6.4952   11.4214  H     
29   H        -1.3548    8.2132   11.3289  H     
30   H        -3.0447    7.7183   11.1826  H     
@<TRIPOS>BOND
     1    1    2 1
     2    1    6 2
     3    1    7 1
     4    2    3 2
     5    3    4 1
     6    4    5 2
     7    4   11 1
     8    5    6 1
     9    7    8 2
    10    7    9 2
    11    7   10 am
    12   11   12 am
    13   12   13 2
    14   12   14 1
    15   14   15 1
    16   14   16 1
    17    2   17 1
    18    3   18 1
    19    5   19 1
    20    6   20 1
    21   10   21 1
    22   10   22 1
    23   11   23 1
    24   14   24 1
    25   15   25 1
    26   15   26 1
    27   15   27 1
    28   16   28 1
    29   16   29 1
    30   16   30 1
@<TRIPOS>PROPERTY_DATA
  Total_Score	| 3.7674
  Crash		| -0.9363
  Polar		| 2.0422
  FragIndex	| 1
  FragRMSD	| 1.100

