@<TRIPOS>MOLECULE
BindingDB_16650
 36 36 0 0 0
SMALL
NO_CHARGES


@<TRIPOS>ATOM
1    C        -5.2300    2.5132   15.9661  C     
2    C        -6.0070    3.5400   15.3916  C     
3    C        -5.3885    4.5773   14.6710  C     
4    C        -3.9743    4.6136   14.5008  C     
5    C        -3.2203    3.5706   15.0826  C     
6    C        -3.8351    2.5313   15.8015  C     
7    S        -5.9599    1.1963   16.8487  S     
8    O        -5.8507   -0.0401   15.8617  O     
9    O        -5.1391    0.8028   18.1467  O     
10   N        -7.6079    1.2968   17.1285  N     
11   N        -3.2429    5.5765   13.8727  N     
12   C        -3.5902    6.7443   13.3017  C     
13   O        -4.7487    7.0758   13.1662  O     
14   C        -2.5531    7.6793   12.8709  C     
15   C        -1.2623    7.7930   13.7490  C     
16   C        -1.4568    8.0278   15.2796  C     
17   C        -1.4927    9.5058   15.7540  C     
18   C        -0.1960   10.3160   15.4859  C     
19   H        -7.0268    3.5453   15.5076  H     
20   H        -5.9846    5.2932   14.2628  H     
21   H        -2.2035    3.5507   14.9772  H     
22   H        -3.2519    1.7989   16.2184  H     
23   H        -8.1606    0.5015   16.9983  H     
24   H        -8.0326    2.1714   17.1738  H     
25   H        -2.2872    5.4168   13.8851  H     
26   H        -2.2501    7.3652   11.8743  H     
27   H        -2.9661    8.6858   12.7761  H     
28   H        -0.6805    6.8716   13.6206  H     
29   H        -0.6467    8.5952   13.3399  H     
30   H        -2.3814    7.5545   15.5995  H     
31   H        -0.6539    7.5228   15.8203  H     
32   H        -2.3521   10.0265   15.3114  H     
33   H        -1.6337    9.4892   16.8400  H     
34   H         0.6804    9.7628   15.8317  H     
35   H        -0.2448   11.2634   16.0293  H     
36   H        -0.0942   10.5309   14.4232  H     
@<TRIPOS>BOND
     1    1    2 1
     2    1    6 2
     3    1    7 1
     4    2    3 2
     5    3    4 1
     6    4    5 2
     7    4   11 1
     8    5    6 1
     9    7    8 2
    10    7    9 2
    11    7   10 am
    12   11   12 am
    13   12   13 2
    14   12   14 1
    15   14   15 1
    16   15   16 1
    17   16   17 1
    18   17   18 1
    19    2   19 1
    20    3   20 1
    21    5   21 1
    22    6   22 1
    23   10   23 1
    24   10   24 1
    25   11   25 1
    26   14   26 1
    27   14   27 1
    28   15   28 1
    29   15   29 1
    30   16   30 1
    31   16   31 1
    32   17   32 1
    33   17   33 1
    34   18   34 1
    35   18   35 1
    36   18   36 1
@<TRIPOS>PROPERTY_DATA
  Total_Score	| 5.6285
  Crash		| -1.0815
  Polar		| 2.5049
  FragIndex	| 1
  FragRMSD	| 0.999

