@<TRIPOS>MOLECULE
BindingDB_50345221
 36 36 0 0 0
SMALL
NO_CHARGES


@<TRIPOS>ATOM
1    C        -5.9846    3.5218   15.2322  C     
2    C        -5.3711    4.5501   14.4856  C     
3    C        -3.9597    4.6236   14.3665  C     
4    C        -3.1914    3.6111   14.9799  C     
5    C        -3.7987    2.5820   15.7242  C     
6    C        -5.2026    2.5446   15.8638  C     
7    S        -5.9387    1.2540   16.7740  S     
8    N        -7.5240    1.5441   17.2427  N     
9    O        -5.9731   -0.0075   15.8076  O     
10   O        -5.0591    0.9120   18.0484  O     
11   N        -3.2408    5.6090   13.7395  N     
12   C        -3.6249    6.7633   13.2121  C     
13   O        -4.7977    7.1040   13.1325  O     
14   C        -2.6167    7.6814   12.7088  C     
15   C        -1.5458    8.2236   13.7487  C     
16   C        -1.8575    7.8148   15.2307  C     
17   C        -0.1287    7.6640   13.3956  C     
18   C        -1.4953    9.7849   13.6860  C     
19   H        -7.0052    3.4998   15.3035  H     
20   H        -5.9818    5.2337   14.0462  H     
21   H        -2.1700    3.6211   14.9089  H     
22   H        -3.2112    1.8668   16.1601  H     
23   H        -7.9868    0.8706   17.7622  H     
24   H        -7.9011    2.4296   17.1494  H     
25   H        -2.2865    5.4514   13.7061  H     
26   H        -2.1174    7.1818   11.8744  H     
27   H        -3.1342    8.5316   12.2469  H     
28   H        -2.8639    8.1243   15.5210  H     
29   H        -1.1367    8.2714   15.9269  H     
30   H        -1.7764    6.7353   15.3542  H     
31   H        -0.1273    6.5733   13.4223  H     
32   H         0.6296    8.0214   14.0995  H     
33   H         0.1710    7.9796   12.3920  H     
34   H        -1.2599   10.1209   12.6722  H     
35   H        -0.7328   10.1925   14.3593  H     
36   H        -2.4583   10.2124   13.9724  H     
@<TRIPOS>BOND
     1    1    2 2
     2    1    6 1
     3    2    3 1
     4    3    4 2
     5    3   11 1
     6    4    5 1
     7    5    6 2
     8    6    7 1
     9    7    8 am
    10    7    9 2
    11    7   10 2
    12   11   12 am
    13   12   13 2
    14   12   14 1
    15   14   15 1
    16   15   16 1
    17   15   17 1
    18   15   18 1
    19    1   19 1
    20    2   20 1
    21    4   21 1
    22    5   22 1
    23    8   23 1
    24    8   24 1
    25   11   25 1
    26   14   26 1
    27   14   27 1
    28   16   28 1
    29   16   29 1
    30   16   30 1
    31   17   31 1
    32   17   32 1
    33   17   33 1
    34   18   34 1
    35   18   35 1
    36   18   36 1
@<TRIPOS>PROPERTY_DATA
  Total_Score	| 4.8502
  Crash		| -1.2646
  Polar		| 2.7449
  FragIndex	| 1
  FragRMSD	| 1.008

