@<TRIPOS>MOLECULE
BindingDB_50345208
 36 36 0 0 0
SMALL
NO_CHARGES


@<TRIPOS>ATOM
1    C        -6.0442    3.5049   15.4370  C     
2    C        -5.3884    4.6045   14.8417  C     
3    C        -3.9708    4.6661   14.7685  C     
4    C        -3.2439    3.5605   15.2618  C     
5    C        -3.9008    2.4627   15.8558  C     
6    C        -5.3058    2.4327   15.9675  C     
7    S        -6.0575    1.1351   16.8380  S     
8    N        -7.7205    1.0606   16.9159  N     
9    O        -5.7272   -0.1740   16.0053  O     
10   O        -5.3969    0.8796   18.2588  O     
11   N        -3.2262    5.7245   14.2818  N     
12   C        -3.5499    6.7591   13.5054  C     
13   O        -4.7076    6.9043   13.1247  O     
14   C        -2.5595    7.7538   13.0420  C     
15   C        -1.9293    8.7342   14.1143  C     
16   C        -1.4826    7.1295   12.0901  C     
17   C        -0.2375    6.5019   12.7615  C     
18   C        -1.8011    8.1909   15.5601  C     
19   H        -7.0589    3.5051   15.4960  H     
20   H        -5.9712    5.3859   14.5190  H     
21   H        -2.2205    3.5615   15.2206  H     
22   H        -3.3324    1.6929   16.2162  H     
23   H        -8.1736    0.2335   16.6983  H     
24   H        -8.2470    1.8468   17.1376  H     
25   H        -2.2849    5.6823   14.5341  H     
26   H        -3.0966    8.4361   12.3664  H     
27   H        -0.9297    9.0822   13.7689  H     
28   H        -2.5568    9.6449   14.1750  H     
29   H        -1.9554    6.3703   11.4478  H     
30   H        -1.1081    7.9244   11.4283  H     
31   H         0.2558    7.2505   13.4237  H     
32   H         0.4801    6.1797   11.9738  H     
33   H        -0.4878    5.6195   13.3714  H     
34   H        -2.8128    7.9098   15.9196  H     
35   H        -1.3852    8.9638   16.2239  H     
36   H        -1.1291    7.3138   15.5732  H     
@<TRIPOS>BOND
     1    1    2 2
     2    1    6 1
     3    2    3 1
     4    3    4 2
     5    3   11 1
     6    4    5 1
     7    5    6 2
     8    6    7 1
     9    7    8 am
    10    7    9 2
    11    7   10 2
    12   11   12 am
    13   12   13 2
    14   12   14 1
    15   14   15 1
    16   14   16 1
    17   15   18 1
    18   16   17 1
    19    1   19 1
    20    2   20 1
    21    4   21 1
    22    5   22 1
    23    8   23 1
    24    8   24 1
    25   11   25 1
    26   14   26 1
    27   15   27 1
    28   15   28 1
    29   16   29 1
    30   16   30 1
    31   17   31 1
    32   17   32 1
    33   17   33 1
    34   18   34 1
    35   18   35 1
    36   18   36 1
@<TRIPOS>PROPERTY_DATA
  Total_Score	| 4.9396
  Crash		| -0.8487
  Polar		| 1.8634
  FragIndex	| 1
  FragRMSD	| 0.992

