@<TRIPOS>MOLECULE
BindingDB_16643
 24 24 0 0 0
SMALL
NO_CHARGES


@<TRIPOS>ATOM
1    C        -5.1971    2.5186   15.9097  C     
2    C        -6.0165    3.4745   15.2765  C     
3    C        -5.4457    4.5553   14.5798  C     
4    C        -4.0385    4.6987   14.4832  C     
5    C        -3.2312    3.7097   15.0938  C     
6    C        -3.7992    2.6286   15.7950  C     
7    S        -5.9011    1.2145   16.8171  S     
8    O        -6.0827   -0.0182   15.8355  O     
9    O        -5.0172    0.7791   18.0635  O     
10   N        -7.4285    1.6151   17.3756  N     
11   N        -3.3615    5.7100   13.8483  N     
12   C        -3.8024    6.7710   13.1788  C     
13   C        -2.8253    7.6734   12.6115  C     
14   O        -4.9851    7.0258   13.0160  O     
15   H        -7.0335    3.3960   15.3157  H     
16   H        -6.0788    5.2284   14.1503  H     
17   H        -2.2086    3.7746   15.0343  H     
18   H        -3.1858    1.9291   16.2242  H     
19   H        -7.9669    0.9467   17.8246  H     
20   H        -7.7963    2.4907   17.1806  H     
21   H        -2.3942    5.6398   13.8958  H     
22   H        -2.2087    8.0960   13.4075  H     
23   H        -3.2993    8.5022   12.0719  H     
24   H        -2.1875    7.1325   11.9085  H     
@<TRIPOS>BOND
     1    1    2 1
     2    1    6 2
     3    1    7 1
     4    2    3 2
     5    3    4 1
     6    4    5 2
     7    4   11 1
     8    5    6 1
     9    7    8 2
    10    7    9 2
    11    7   10 am
    12   11   12 am
    13   12   13 1
    14   12   14 2
    15    2   15 1
    16    3   16 1
    17    5   17 1
    18    6   18 1
    19   10   19 1
    20   10   20 1
    21   11   21 1
    22   13   22 1
    23   13   23 1
    24   13   24 1
@<TRIPOS>PROPERTY_DATA
  Total_Score	| 3.5410
  Crash		| -0.8534
  Polar		| 2.6177
  FragIndex	| 1
  FragRMSD	| 1.057

