@<TRIPOS>MOLECULE
BindingDB_35738
 34 35 0 0 0
SMALL
NO_CHARGES


@<TRIPOS>ATOM
1    C        -2.7742    7.6778   12.6845  C     
2    C        -3.2401    6.3150   12.9349  C     
3    O        -3.0119    5.4268   12.1286  O     
4    N        -3.9411    6.0758   14.0332  N     
5    C        -4.3722    4.8799   14.5158  C     
6    C        -6.2620    3.6620   15.4776  C     
7    C        -5.7434    4.7983   14.8399  C     
8    C        -3.5185    3.7948   14.8506  C     
9    C        -4.0415    2.6654   15.5164  C     
10   C        -5.4117    2.5931   15.8278  C     
11   S        -6.0057    1.2258   16.7226  S     
12   O        -5.7889   -0.0466   15.8034  O     
13   O        -5.1459    0.9860   18.0339  O     
14   N        -7.6446    1.1979   17.0823  N     
15   C        -2.0786    8.3948   13.8007  C     
16   C        -0.9396    8.5008   15.9895  C     
17   C        -0.7724    9.8927   15.8556  C     
18   C        -1.2513   10.5422   14.6961  C     
19   C        -1.9020    9.8018   13.6826  C     
20   C        -1.5736    7.7609   14.9702  C     
21   Br       -1.6667    3.8445   14.5951  Br    
22   H        -2.0869    7.6709   11.8240  H     
23   H        -3.6478    8.2679   12.3981  H     
24   H        -4.1976    6.8593   14.5506  H     
25   H        -7.2542    3.6393   15.7231  H     
26   H        -6.3696    5.5791   14.6189  H     
27   H        -3.4087    1.9075   15.7866  H     
28   H        -8.1531    0.3895   16.9184  H     
29   H        -8.1015    2.0314   17.2786  H     
30   H        -0.5870    8.0271   16.8209  H     
31   H        -0.3044   10.4328   16.5933  H     
32   H        -1.1411   11.5597   14.5940  H     
33   H        -2.2562   10.2949   12.8478  H     
34   H        -1.6561    6.7508   15.1113  H     
@<TRIPOS>BOND
     1    1    2 1
     2    1   15 1
     3    2    3 2
     4    2    4 am
     5    4    5 1
     6    5    7 2
     7    5    8 1
     8    6    7 1
     9    6   10 2
    10    8    9 2
    11    8   21 1
    12    9   10 1
    13   10   11 1
    14   11   12 2
    15   11   13 2
    16   11   14 am
    17   15   19 2
    18   15   20 1
    19   16   17 1
    20   16   20 2
    21   17   18 2
    22   18   19 1
    23    1   22 1
    24    1   23 1
    25    4   24 1
    26    6   25 1
    27    7   26 1
    28    9   27 1
    29   14   28 1
    30   14   29 1
    31   16   30 1
    32   17   31 1
    33   18   32 1
    34   19   33 1
    35   20   34 1
@<TRIPOS>PROPERTY_DATA
  Total_Score	| 5.7575
  Crash		| -1.3252
  Polar		| 2.5513
  FragIndex	| 1
  FragRMSD	| 1.094

