@<TRIPOS>MOLECULE
BindingDB_16649
 33 33 0 0 0
SMALL
NO_CHARGES


@<TRIPOS>ATOM
1    C        -5.1621    2.5523   15.9422  C     
2    C        -5.8425    3.6404   15.3585  C     
3    C        -5.1234    4.6759   14.7365  C     
4    C        -3.7037    4.6433   14.6721  C     
5    C        -3.0441    3.5391   15.2526  C     
6    C        -3.7595    2.5077   15.8749  C     
7    S        -6.0211    1.2695   16.7484  S     
8    O        -6.0686    0.0415   15.7456  O     
9    O        -5.2300    0.8590   18.0656  O     
10   N        -7.5939    1.6706   17.1606  N     
11   N        -2.8780    5.5806   14.1085  N     
12   C        -3.1057    6.6871   13.4105  C     
13   O        -4.2569    6.9945   13.1024  O     
14   C        -1.9198    7.1937   11.3205  C     
15   C        -2.2338    9.0088   13.0757  C     
16   C        -1.9888    7.4824   12.8534  C     
17   C        -0.5882    7.1595   13.4944  C     
18   H        -6.8660    3.6844   15.3874  H     
19   H        -5.6538    5.4509   14.3492  H     
20   H        -2.0204    3.4805   15.2303  H     
21   H        -3.2444    1.7218   16.2847  H     
22   H        -8.1382    1.0460   17.6642  H     
23   H        -7.9369    2.5529   16.9371  H     
24   H        -1.9426    5.3686   14.2283  H     
25   H        -1.7503    6.1293   11.1339  H     
26   H        -1.1002    7.7467   10.8486  H     
27   H        -2.8501    7.4808   10.8225  H     
28   H        -3.1418    9.3450   12.5668  H     
29   H        -1.4057    9.6019   12.6796  H     
30   H        -2.3346    9.2361   14.1404  H     
31   H        -0.6242    7.2910   14.5852  H     
32   H         0.1925    7.8113   13.0891  H     
33   H        -0.2804    6.1335   13.2749  H     
@<TRIPOS>BOND
     1    1    2 1
     2    1    6 2
     3    1    7 1
     4    2    3 2
     5    3    4 1
     6    4    5 2
     7    4   11 1
     8    5    6 1
     9    7    8 2
    10    7    9 2
    11    7   10 am
    12   11   12 am
    13   12   13 2
    14   12   16 1
    15   14   16 1
    16   15   16 1
    17   16   17 1
    18    2   18 1
    19    3   19 1
    20    5   20 1
    21    6   21 1
    22   10   22 1
    23   10   23 1
    24   11   24 1
    25   14   25 1
    26   14   26 1
    27   14   27 1
    28   15   28 1
    29   15   29 1
    30   15   30 1
    31   17   31 1
    32   17   32 1
    33   17   33 1
@<TRIPOS>PROPERTY_DATA
  Total_Score	| 3.3935
  Crash		| -1.5316
  Polar		| 2.5444
  FragIndex	| 1
  FragRMSD	| 1.115

