@<TRIPOS>MOLECULE
BindingDB_50345218
 33 33 0 0 0
SMALL
NO_CHARGES


@<TRIPOS>ATOM
1    C        -3.8239    2.5324   15.8366  C     
2    C        -3.2026    3.5813   15.1409  C     
3    C        -3.9473    4.5905   14.4940  C     
4    C        -5.3590    4.4829   14.5280  C     
5    C        -5.9955    3.4344   15.2245  C     
6    C        -5.2269    2.4587   15.8913  C     
7    S        -5.9697    1.1534   16.7897  S     
8    N        -7.6248    1.2767   17.0341  N     
9    O        -5.8032   -0.1192   15.8550  O     
10   O        -5.2000    0.8382   18.1453  O     
11   N        -3.1922    5.5700   13.9088  N     
12   C        -3.5031    6.7242   13.3182  C     
13   O        -4.6564    7.1192   13.2112  O     
14   C        -2.4111    7.5799   12.8524  C     
15   C        -2.7493    8.3317   11.5343  C     
16   C        -1.9045    8.5891   13.9277  C     
17   C        -1.7517    8.0021   15.3596  C     
18   H        -3.2439    1.8260   16.3050  H     
19   H        -2.1800    3.6073   15.1280  H     
20   H        -5.9511    5.1540   14.0485  H     
21   H        -7.0193    3.3843   15.2500  H     
22   H        -8.1763    0.4735   16.9754  H     
23   H        -8.0412    2.1545   17.0786  H     
24   H        -2.2425    5.3956   13.9545  H     
25   H        -1.5446    6.9456   12.6081  H     
26   H        -3.0631    7.6253   10.7674  H     
27   H        -1.8710    8.8700   11.1637  H     
28   H        -3.5513    9.0590   11.6929  H     
29   H        -0.9100    8.9604   13.6341  H     
30   H        -2.5743    9.4576   13.9939  H     
31   H        -2.7385    7.8012   15.7943  H     
32   H        -1.2278    8.7173   16.0083  H     
33   H        -1.1784    7.0617   15.3432  H     
@<TRIPOS>BOND
     1    1    2 2
     2    1    6 1
     3    2    3 1
     4    3    4 2
     5    3   11 1
     6    4    5 1
     7    5    6 2
     8    6    7 1
     9    7    8 am
    10    7    9 2
    11    7   10 2
    12   11   12 am
    13   12   13 2
    14   12   14 1
    15   14   15 1
    16   14   16 1
    17   16   17 1
    18    1   18 1
    19    2   19 1
    20    4   20 1
    21    5   21 1
    22    8   22 1
    23    8   23 1
    24   11   24 1
    25   14   25 1
    26   15   26 1
    27   15   27 1
    28   15   28 1
    29   16   29 1
    30   16   30 1
    31   17   31 1
    32   17   32 1
    33   17   33 1
@<TRIPOS>PROPERTY_DATA
  Total_Score	| 4.1723
  Crash		| -0.8914
  Polar		| 2.2671
  FragIndex	| 1
  FragRMSD	| 0.993

