@<TRIPOS>MOLECULE
BindingDB_35736
 34 35 0 0 0
SMALL
NO_CHARGES


@<TRIPOS>ATOM
1    C        -2.5974    7.6378   12.7792  C     
2    C        -3.5776    6.6948   13.2857  C     
3    O        -4.7675    7.0056   13.3373  O     
4    N        -3.1558    5.5643   13.8249  N     
5    C        -3.8623    4.5803   14.4444  C     
6    C        -5.9323    3.4922   15.1773  C     
7    C        -5.2768    4.5249   14.4725  C     
8    C        -3.1218    3.5656   15.0832  C     
9    C        -3.7751    2.5249   15.7649  C     
10   C        -5.1838    2.4968   15.8327  C     
11   S        -5.9441    1.2099   16.7182  S     
12   O        -5.8558   -0.0601   15.7631  O     
13   O        -5.1230    0.8206   18.0294  O     
14   N        -7.5843    1.3820   17.0437  N     
15   C        -1.9690    8.4437   13.8602  C     
16   C        -1.2107   10.6056   14.7527  C     
17   C        -0.6726    9.9651   15.8860  C     
18   C        -0.7947    8.5752   16.0165  C     
19   C        -1.4185    7.8201   15.0077  C     
20   C        -1.8540    9.8540   13.7542  C     
21   F        -1.8103    3.5712   15.0665  F     
22   H        -1.8019    7.1045   12.2545  H     
23   H        -3.0788    8.2814   12.0314  H     
24   H        -2.1974    5.4568   13.8563  H     
25   H        -6.9576    3.4585   15.2018  H     
26   H        -5.8321    5.2340   13.9684  H     
27   H        -3.2087    1.7862   16.2089  H     
28   H        -8.2064    0.6927   16.7425  H     
29   H        -7.9321    2.2610   17.2855  H     
30   H        -1.1319   11.6213   14.6557  H     
31   H        -0.2069   10.5108   16.6065  H     
32   H        -0.4272    8.1070   16.8431  H     
33   H        -1.4744    6.8074   15.1211  H     
34   H        -2.2348   10.3417   12.9330  H     
@<TRIPOS>BOND
     1    1    2 1
     2    1   15 1
     3    2    3 2
     4    2    4 am
     5    4    5 1
     6    5    7 2
     7    5    8 1
     8    6    7 1
     9    6   10 2
    10    8    9 2
    11    8   21 1
    12    9   10 1
    13   10   11 1
    14   11   12 2
    15   11   13 2
    16   11   14 am
    17   15   19 2
    18   15   20 1
    19   16   17 1
    20   16   20 2
    21   17   18 2
    22   18   19 1
    23    1   22 1
    24    1   23 1
    25    4   24 1
    26    6   25 1
    27    7   26 1
    28    9   27 1
    29   14   28 1
    30   14   29 1
    31   16   30 1
    32   17   31 1
    33   18   32 1
    34   19   33 1
    35   20   34 1
@<TRIPOS>PROPERTY_DATA
  Total_Score	| 6.3412
  Crash		| -1.1053
  Polar		| 2.5487
  FragIndex	| 1
  FragRMSD	| 0.897

