@<TRIPOS>MOLECULE
BindingDB_16646
 30 30 0 0 0
SMALL
NO_CHARGES


@<TRIPOS>ATOM
1    C        -5.3803    2.4979   15.9281  C     
2    C        -6.2389    3.5132   15.4718  C     
3    C        -5.7212    4.6504   14.8299  C     
4    C        -4.3314    4.7948   14.6137  C     
5    C        -3.4705    3.7683   15.0886  C     
6    C        -3.9916    2.6280   15.7281  C     
7    S        -5.9931    1.1141   16.7834  S     
8    O        -5.7219   -0.1420   15.8509  O     
9    O        -5.1705    0.8695   18.1162  O     
10   N        -7.6425    1.0991   17.0632  N     
11   N        -3.9313    5.9669   14.0246  N     
12   C        -2.7802    6.2882   13.4421  C     
13   O        -1.8602    5.4845   13.3034  O     
14   C        -2.5345    7.6541   13.0030  C     
15   C        -2.0083    8.5911   14.1364  C     
16   C        -0.8091    8.0499   14.9411  C     
17   H        -7.2424    3.4482   15.6200  H     
18   H        -6.3611    5.3802   14.5202  H     
19   H        -2.4538    3.8433   15.0094  H     
20   H        -3.3443    1.9143   16.0743  H     
21   H        -8.1158    0.2524   17.1086  H     
22   H        -8.1206    1.9333   17.1880  H     
23   H        -4.6042    6.6688   14.0038  H     
24   H        -1.8072    7.6512   12.1806  H     
25   H        -3.4579    8.0792   12.5944  H     
26   H        -1.7065    9.5336   13.6597  H     
27   H        -2.8281    8.8122   14.8308  H     
28   H        -1.1369    7.2428   15.6028  H     
29   H        -0.3906    8.8500   15.5596  H     
30   H        -0.0237    7.6743   14.2755  H     
@<TRIPOS>BOND
     1    1    2 1
     2    1    6 2
     3    1    7 1
     4    2    3 2
     5    3    4 1
     6    4    5 2
     7    4   11 1
     8    5    6 1
     9    7    8 2
    10    7    9 2
    11    7   10 am
    12   11   12 am
    13   12   13 2
    14   12   14 1
    15   14   15 1
    16   15   16 1
    17    2   17 1
    18    3   18 1
    19    5   19 1
    20    6   20 1
    21   10   21 1
    22   10   22 1
    23   11   23 1
    24   14   24 1
    25   14   25 1
    26   15   26 1
    27   15   27 1
    28   16   28 1
    29   16   29 1
    30   16   30 1
@<TRIPOS>PROPERTY_DATA
  Total_Score	| 4.2488
  Crash		| -0.7600
  Polar		| 2.1603
  FragIndex	| 1
  FragRMSD	| 1.340

