@<TRIPOS>MOLECULE
BindingDB_35737
 34 35 0 0 0
SMALL
NO_CHARGES


@<TRIPOS>ATOM
1    C        -2.4509    7.4848   12.6326  C     
2    C        -2.9493    6.1627   12.9624  C     
3    O        -2.7711    5.2354   12.1567  O     
4    N        -3.7720    6.0017   13.9937  N     
5    C        -4.2779    4.8396   14.5018  C     
6    C        -3.9471    2.7466   15.7346  C     
7    C        -3.4154    3.8689   15.0733  C     
8    C        -5.6754    4.6343   14.5618  C     
9    C        -6.1976    3.5031   15.2178  C     
10   C        -5.3372    2.5637   15.8140  C     
11   S        -5.9683    1.1981   16.6898  S     
12   O        -5.7868   -0.0438   15.7163  O     
13   O        -5.1267    0.8566   17.9924  O     
14   N        -7.6163    1.2101   17.0168  N     
15   C        -1.9204    8.2684   13.7862  C     
16   C        -1.2861   10.4415   14.7281  C     
17   C        -0.8239    9.8112   15.8969  C     
18   C        -0.9220    8.4166   16.0279  C     
19   C        -1.4596    7.6512   14.9693  C     
20   C        -1.8282    9.6804   13.6819  C     
21   Cl       -6.7615    5.7047   13.8320  Cl    
22   H        -1.6359    7.4191   11.8989  H     
23   H        -3.2738    8.0319   12.1573  H     
24   H        -4.0262    6.8227   14.4602  H     
25   H        -3.3031    2.0866   16.1847  H     
26   H        -2.4048    3.9964   15.0555  H     
27   H        -7.2102    3.3747   15.2770  H     
28   H        -8.1674    0.4462   16.7536  H     
29   H        -8.0481    2.0437   17.2679  H     
30   H        -1.2395   11.4577   14.6451  H     
31   H        -0.4128   10.3672   16.6448  H     
32   H        -0.5820    7.9509   16.8611  H     
33   H        -1.5179    6.6356   15.0860  H     
34   H        -2.1455   10.1624   12.8391  H     
@<TRIPOS>BOND
     1    1    2 1
     2    1   15 1
     3    2    3 2
     4    2    4 am
     5    4    5 1
     6    5    7 2
     7    5    8 1
     8    6    7 1
     9    6   10 2
    10    8    9 2
    11    8   21 1
    12    9   10 1
    13   10   11 1
    14   11   12 2
    15   11   13 2
    16   11   14 am
    17   15   19 2
    18   15   20 1
    19   16   17 1
    20   16   20 2
    21   17   18 2
    22   18   19 1
    23    1   22 1
    24    1   23 1
    25    4   24 1
    26    6   25 1
    27    7   26 1
    28    9   27 1
    29   14   28 1
    30   14   29 1
    31   16   30 1
    32   17   31 1
    33   18   32 1
    34   19   33 1
    35   20   34 1
@<TRIPOS>PROPERTY_DATA
  Total_Score	| 5.1734
  Crash		| -1.6444
  Polar		| 2.4726
  FragIndex	| 1
  FragRMSD	| 1.130

