@<TRIPOS>MOLECULE
BindingDB_27145
 41 43 0 0 0
SMALL
NO_CHARGES


@<TRIPOS>ATOM
1    C       -26.8903   66.2007   24.1438  C     
2    C       -28.2664   66.0185   23.8125  C     
3    C       -29.0473   65.0071   24.4064  C     
4    C       -28.4795   64.1379   25.3551  C     
5    C       -26.3350   65.2959   25.0929  C     
6    C       -27.1238   64.3036   25.6755  C     
7    C       -25.1188   64.1273   26.5108  C     
8    N       -25.0960   65.1564   25.6242  N     
9    N       -26.3715   63.6261   26.5363  N     
10   C       -26.1618   67.2456   23.5621  C     
11   O       -26.6221   67.9301   22.6566  O     
12   N       -24.9633   67.6052   23.9726  N     
13   C       -21.3277   63.8659   27.7015  C     
14   C       -22.6341   64.2986   26.9649  C     
15   C       -24.4049   64.0124   28.8654  C     
16   C       -23.3416   63.8278   29.9805  C     
17   C       -21.0822   64.5082   29.0980  C     
18   N       -22.2806   64.8502   29.8891  N     
19   C       -24.0004   63.6324   27.3918  C     
20   C       -23.9332   62.0739   27.2100  C     
21   H       -28.7254   66.6381   23.1375  H     
22   H       -30.0344   64.9169   24.1641  H     
23   H       -29.0345   63.4050   25.8028  H     
24   H       -26.6733   62.8929   27.0934  H     
25   H       -24.5115   68.3573   23.5631  H     
26   H       -24.5315   67.1413   24.7036  H     
27   H       -21.2926   62.7803   27.8004  H     
28   H       -20.4762   64.1331   27.0674  H     
29   H       -22.7172   65.3886   27.0539  H     
30   H       -22.4771   64.0819   25.9008  H     
31   H       -25.2793   63.4189   29.1463  H     
32   H       -24.7216   65.0583   28.8894  H     
33   H       -23.8367   63.9800   30.9438  H     
34   H       -22.9365   62.8133   29.9843  H     
35   H       -20.4444   63.8416   29.6867  H     
36   H       -20.5305   65.4411   28.9612  H     
37   H       -22.6992   65.6892   29.4776  H     
38   H       -21.9702   65.1016   30.8360  H     
39   H       -24.8908   61.5961   27.4400  H     
40   H       -23.1988   61.6148   27.8721  H     
41   H       -23.6717   61.8152   26.1806  H     
@<TRIPOS>BOND
     1    1    2 1
     2    1    5 2
     3    1   10 1
     4    2    3 2
     5    3    4 1
     6    4    6 2
     7    5    6 1
     8    5    8 1
     9    6    9 1
    10    7    8 2
    11    7    9 1
    12    7   19 1
    13   10   11 2
    14   10   12 am
    15   13   14 1
    16   13   17 1
    17   14   19 1
    18   15   16 1
    19   15   19 1
    20   16   18 1
    21   17   18 1
    22   19   20 1
    23    2   21 1
    24    3   22 1
    25    4   23 1
    26    9   24 1
    27   12   25 1
    28   12   26 1
    29   13   27 1
    30   13   28 1
    31   14   29 1
    32   14   30 1
    33   15   31 1
    34   15   32 1
    35   16   33 1
    36   16   34 1
    37   17   35 1
    38   17   36 1
    39   18   37 1
    40   18   38 1
    41   20   39 1
    42   20   40 1
    43   20   41 1
@<TRIPOS>PROPERTY_DATA
  Total_Score	| 7.8442
  Crash		| -0.1525
  Polar		| 4.6833
  FragIndex	| 1
  FragRMSD	| 1.113

