@<TRIPOS>MOLECULE
BindingDB_27161
 38 40 0 0 0
SMALL
NO_CHARGES


@<TRIPOS>ATOM
1    C       -26.9158   66.2229   24.0509  C     
2    C       -28.2638   65.9165   23.6971  C     
3    C       -28.9452   64.8087   24.2494  C     
4    C       -28.2971   63.9689   25.1737  C     
5    C       -26.2930   65.3522   24.9814  C     
6    C       -26.9687   64.2572   25.5126  C     
7    C       -24.9571   64.2759   26.3524  C     
8    N       -25.0564   65.3376   25.5218  N     
9    N       -26.1385   63.6245   26.3399  N     
10   C       -26.2447   67.3099   23.4774  C     
11   O       -26.7813   68.0243   22.6442  O     
12   N       -24.9999   67.6289   23.7710  N     
13   C       -23.8466   61.3358   26.9886  C     
14   C       -23.8898   62.5602   27.9468  C     
15   C       -22.4781   63.8576   26.2762  C     
16   C       -22.4542   62.6016   25.3658  C     
17   N       -22.6263   61.3604   26.1570  N     
18   C       -23.7556   63.9329   27.1833  C     
19   C       -23.5731   65.0838   28.2241  C     
20   H       -28.7712   66.4940   23.0212  H     
21   H       -29.9096   64.6090   23.9755  H     
22   H       -28.7678   63.1600   25.5799  H     
23   H       -26.3632   62.8494   26.8673  H     
24   H       -24.5824   68.3944   23.3495  H     
25   H       -24.4876   67.0996   24.3992  H     
26   H       -23.8711   60.4062   27.5633  H     
27   H       -24.7061   61.3299   26.3188  H     
28   H       -24.8102   62.5409   28.5334  H     
29   H       -23.0672   62.4540   28.6623  H     
30   H       -21.5842   63.8202   26.9063  H     
31   H       -22.3964   64.7489   25.6437  H     
32   H       -23.2315   62.6788   24.5974  H     
33   H       -21.4879   62.5486   24.8586  H     
34   H       -21.8145   61.2540   26.7702  H     
35   H       -22.6559   60.5672   25.5116  H     
36   H       -23.4475   66.0521   27.7320  H     
37   H       -22.6917   64.9100   28.8433  H     
38   H       -24.4431   65.1439   28.8796  H     
@<TRIPOS>BOND
     1    1    2 2
     2    1    5 1
     3    1   10 1
     4    2    3 1
     5    3    4 2
     6    4    6 1
     7    5    6 2
     8    5    8 1
     9    6    9 1
    10    7    8 2
    11    7    9 1
    12    7   18 1
    13   10   11 2
    14   10   12 am
    15   13   14 1
    16   13   17 1
    17   14   18 1
    18   15   16 1
    19   15   18 1
    20   16   17 1
    21   18   19 1
    22    2   20 1
    23    3   21 1
    24    4   22 1
    25    9   23 1
    26   12   24 1
    27   12   25 1
    28   13   26 1
    29   13   27 1
    30   14   28 1
    31   14   29 1
    32   15   30 1
    33   15   31 1
    34   16   32 1
    35   16   33 1
    36   17   34 1
    37   17   35 1
    38   19   36 1
    39   19   37 1
    40   19   38 1
@<TRIPOS>PROPERTY_DATA
  Total_Score	| 8.3106
  Crash		| -0.1808
  Polar		| 3.3482
  FragIndex	| 1
  FragRMSD	| 0.640

