@<TRIPOS>MOLECULE
BindingDB_27126
 39 41 0 0 0
SMALL
NO_CHARGES


@<TRIPOS>ATOM
1    C       -27.0003   66.3070   24.0644  C     
2    C       -28.4151   66.2473   23.9057  C     
3    C       -29.1916   65.2469   24.5258  C     
4    C       -28.5790   64.2617   25.3235  C     
5    C       -26.4161   65.3007   24.8820  C     
6    C       -27.1868   64.3064   25.4844  C     
7    C       -25.1040   63.9688   26.0151  C     
8    N       -25.1382   65.0609   25.2244  N     
9    N       -26.3598   63.5062   26.1660  N     
10   C       -26.2448   67.2992   23.4318  C     
11   O       -26.7576   68.0648   22.6235  O     
12   N       -24.9641   67.4970   23.6503  N     
13   C       -23.8464   63.3957   26.5656  C     
14   C       -21.7656   63.8185   28.0353  C     
15   C       -23.0560   64.4328   27.4186  C     
16   C       -24.0701   62.1026   27.4027  C     
17   C       -22.7354   61.5785   27.9954  C     
18   N       -22.0660   62.6056   28.7811  N     
19   C       -21.7554   62.4121   30.0813  C     
20   C       -21.0649   63.3749   30.9264  C     
21   O       -22.0409   61.3586   30.6417  O     
22   H       -28.9030   66.9473   23.3387  H     
23   H       -30.2078   65.2424   24.4023  H     
24   H       -29.1348   63.5371   25.7812  H     
25   H       -26.6225   62.7199   26.6706  H     
26   H       -24.4898   68.2015   23.1801  H     
27   H       -24.4798   66.9468   24.2853  H     
28   H       -23.2304   63.1235   25.7012  H     
29   H       -21.0689   63.5690   27.2273  H     
30   H       -21.2830   64.5974   28.6283  H     
31   H       -22.7773   65.2805   26.7924  H     
32   H       -23.6930   64.8044   28.2248  H     
33   H       -24.7637   62.3029   28.2253  H     
34   H       -24.5025   61.3200   26.7698  H     
35   H       -22.9574   60.6692   28.5577  H     
36   H       -22.0709   61.2791   27.1801  H     
37   H       -20.0669   63.5648   30.5255  H     
38   H       -20.9527   63.0266   31.9588  H     
39   H       -21.6242   64.3109   30.9570  H     
@<TRIPOS>BOND
     1    1    2 2
     2    1    5 1
     3    1   10 1
     4    2    3 1
     5    3    4 2
     6    4    6 1
     7    5    6 2
     8    5    8 1
     9    6    9 1
    10    7    8 2
    11    7    9 1
    12    7   13 1
    13   10   11 2
    14   10   12 am
    15   13   15 1
    16   13   16 1
    17   14   15 1
    18   14   18 1
    19   16   17 1
    20   17   18 1
    21   18   19 am
    22   19   20 1
    23   19   21 2
    24    2   22 1
    25    3   23 1
    26    4   24 1
    27    9   25 1
    28   12   26 1
    29   12   27 1
    30   13   28 1
    31   14   29 1
    32   14   30 1
    33   15   31 1
    34   15   32 1
    35   16   33 1
    36   16   34 1
    37   17   35 1
    38   17   36 1
    39   20   37 1
    40   20   38 1
    41   20   39 1
@<TRIPOS>PROPERTY_DATA
  Total_Score	| 7.6031
  Crash		| -0.4321
  Polar		| 3.3888
  FragIndex	| 1
  FragRMSD	| 0.646

