@<TRIPOS>MOLECULE
BindingDB_27163
 54 57 0 0 0
SMALL
NO_CHARGES


@<TRIPOS>ATOM
1    C       -27.0282   66.2863   24.0455  C     
2    C       -28.4080   66.2332   23.6872  C     
3    C       -29.2864   65.2831   24.2548  C     
4    C       -28.8114   64.3449   25.1907  C     
5    C       -26.5778   65.3211   24.9889  C     
6    C       -27.4539   64.3845   25.5333  C     
7    C       -25.4858   64.0362   26.4023  C     
8    N       -25.3693   65.0725   25.5362  N     
9    N       -26.7682   63.6167   26.3766  N     
10   C       -26.1953   67.2637   23.4877  C     
11   O       -26.6006   68.0283   22.6163  O     
12   N       -24.9525   67.4705   23.8684  N     
13   C       -22.3545   61.7179   26.8371  C     
14   C       -23.5167   62.5592   26.2353  C     
15   C       -23.4880   64.6091   27.8015  C     
16   C       -22.4213   64.3064   28.8980  C     
17   C       -21.2340   62.5094   27.5638  C     
18   N       -21.6943   62.9887   28.9123  N     
19   C       -20.6979   62.9126   30.0554  C     
20   C       -20.7360   61.5286   30.7477  C     
21   C       -19.1808   63.1552   29.8065  C     
22   C       -18.4693   62.5016   31.0175  C     
23   C       -19.4777   61.5016   31.6469  C     
24   C       -24.3671   63.4408   27.2202  C     
25   C       -25.0061   62.5664   28.3566  C     
26   H       -28.7997   66.8929   23.0124  H     
27   H       -30.2786   65.2874   23.9950  H     
28   H       -29.4418   63.6622   25.6132  H     
29   H       -27.1434   62.8843   26.8851  H     
30   H       -24.4400   68.1879   23.4684  H     
31   H       -24.5478   66.9296   24.5622  H     
32   H       -22.7661   60.9631   27.5174  H     
33   H       -21.8880   61.1730   26.0049  H     
34   H       -23.0894   63.1955   25.4535  H     
35   H       -24.1844   61.8440   25.7342  H     
36   H       -24.1582   65.3689   28.2196  H     
37   H       -22.9685   65.0886   26.9696  H     
38   H       -21.6800   65.1155   28.8749  H     
39   H       -22.9447   64.3862   29.8584  H     
40   H       -20.4110   61.7950   27.6824  H     
41   H       -20.8730   63.3432   26.9493  H     
42   H       -22.4091   62.3115   29.1909  H     
43   H       -20.9958   63.6265   30.8474  H     
44   H       -21.6558   61.4070   31.3449  H     
45   H       -20.6894   60.7226   30.0029  H     
46   H       -18.8404   62.6527   28.8888  H     
47   H       -18.9650   64.2312   29.7373  H     
48   H       -17.5568   61.9861   30.6901  H     
49   H       -18.1994   63.2754   31.7516  H     
50   H       -19.7421   61.8400   32.6624  H     
51   H       -19.0522   60.4902   31.7001  H     
52   H       -25.6969   63.1628   28.9561  H     
53   H       -24.2699   62.1462   29.0384  H     
54   H       -25.5581   61.7221   27.9349  H     
@<TRIPOS>BOND
     1    1    2 2
     2    1    5 1
     3    1   10 1
     4    2    3 1
     5    3    4 2
     6    4    6 1
     7    5    6 2
     8    5    8 1
     9    6    9 1
    10    7    8 2
    11    7    9 1
    12    7   24 1
    13   10   11 2
    14   10   12 am
    15   13   14 1
    16   13   17 1
    17   14   24 1
    18   15   16 1
    19   15   24 1
    20   16   18 1
    21   17   18 1
    22   18   19 1
    23   19   20 1
    24   19   21 1
    25   20   23 1
    26   21   22 1
    27   22   23 1
    28   24   25 1
    29    2   26 1
    30    3   27 1
    31    4   28 1
    32    9   29 1
    33   12   30 1
    34   12   31 1
    35   13   32 1
    36   13   33 1
    37   14   34 1
    38   14   35 1
    39   15   36 1
    40   15   37 1
    41   16   38 1
    42   16   39 1
    43   17   40 1
    44   17   41 1
    45   18   42 1
    46   19   43 1
    47   20   44 1
    48   20   45 1
    49   21   46 1
    50   21   47 1
    51   22   48 1
    52   22   49 1
    53   23   50 1
    54   23   51 1
    55   25   52 1
    56   25   53 1
    57   25   54 1
@<TRIPOS>PROPERTY_DATA
  Total_Score	| 10.3246
  Crash		| -0.9113
  Polar		| 3.3496
  FragIndex	| 1
  FragRMSD	| 0.542

