@<TRIPOS>MOLECULE
BindingDB_50251580
 47 49 0 0 0
SMALL
NO_CHARGES


@<TRIPOS>ATOM
1    C       -28.3266   65.9793   23.7156  C     
2    C       -29.0381   64.9175   24.3172  C     
3    C       -28.4046   64.0747   25.2510  C     
4    C       -26.9628   66.2434   24.0321  C     
5    C       -26.3551   65.3710   24.9712  C     
6    C       -27.0590   64.3165   25.5569  C     
7    N       -26.2264   63.6856   26.3929  N     
8    C       -25.0332   64.3103   26.3579  C     
9    N       -25.1095   65.3344   25.4810  N     
10   C       -26.2829   67.3153   23.4394  C     
11   N       -25.0698   67.6905   23.7834  N     
12   O       -26.7955   67.9894   22.5589  O     
13   C       -23.8118   64.0003   27.1519  C     
14   C       -23.5580   65.1964   28.1164  C     
15   C       -23.8857   62.6271   27.9040  C     
16   C       -22.5449   61.9174   28.2504  C     
17   N       -21.5976   62.7478   29.0294  N     
18   C       -20.4685   62.0302   29.6802  C     
19   C       -19.2710   62.9720   29.9270  C     
20   C       -18.5116   62.4013   31.1449  C     
21   C       -19.4300   61.3359   31.7821  C     
22   C       -20.7979   61.4832   31.0851  C     
23   H       -28.8291   66.5659   23.0406  H     
24   H       -30.0179   64.7586   24.0736  H     
25   H       -28.9120   63.3111   25.6988  H     
26   H       -26.4572   62.9229   26.9491  H     
27   H       -24.6494   68.4463   23.3447  H     
28   H       -24.5867   67.2308   24.4828  H     
29   H       -22.9775   63.9514   26.4435  H     
30   H       -23.5485   66.1464   27.5778  H     
31   H       -22.5953   65.1086   28.6146  H     
32   H       -24.3370   65.2427   28.8802  H     
33   H       -24.4592   62.7495   28.8251  H     
34   H       -24.4318   61.9164   27.2788  H     
35   H       -22.7856   61.0118   28.8218  H     
36   H       -22.0497   61.6071   27.3237  H     
37   H       -21.1970   63.4349   28.3853  H     
38   H       -22.1152   63.2525   29.7489  H     
39   H       -20.1250   61.2089   29.0428  H     
40   H       -18.6237   63.0195   29.0438  H     
41   H       -19.6234   63.9835   30.1532  H     
42   H       -17.5667   61.9486   30.8350  H     
43   H       -18.2984   63.1956   31.8630  H     
44   H       -19.0280   60.3353   31.5969  H     
45   H       -19.5275   61.4786   32.8635  H     
46   H       -21.4193   62.1977   31.6355  H     
47   H       -21.3271   60.5259   31.0260  H     
@<TRIPOS>BOND
     1    1    2 2
     2    1    4 1
     3    2    3 1
     4    3    6 2
     5    4    5 2
     6    4   10 1
     7    5    6 1
     8    5    9 1
     9    6    7 1
    10    7    8 1
    11    8    9 2
    12    8   13 1
    13   10   11 am
    14   10   12 2
    15   13   14 1
    16   13   15 1
    17   15   16 1
    18   16   17 1
    19   17   18 1
    20   18   19 1
    21   18   22 1
    22   19   20 1
    23   20   21 1
    24   21   22 1
    25    1   23 1
    26    2   24 1
    27    3   25 1
    28    7   26 1
    29   11   27 1
    30   11   28 1
    31   13   29 1
    32   14   30 1
    33   14   31 1
    34   14   32 1
    35   15   33 1
    36   15   34 1
    37   16   35 1
    38   16   36 1
    39   17   37 1
    40   17   38 1
    41   18   39 1
    42   19   40 1
    43   19   41 1
    44   20   42 1
    45   20   43 1
    46   21   44 1
    47   21   45 1
    48   22   46 1
    49   22   47 1
@<TRIPOS>PROPERTY_DATA
  Total_Score	| 9.3749
  Crash		| -0.8575
  Polar		| 3.3758
  FragIndex	| 1
  FragRMSD	| 0.381

