@<TRIPOS>MOLECULE
BindingDB_27162
 47 49 0 0 0
SMALL
NO_CHARGES


@<TRIPOS>ATOM
1    C       -26.9963   66.2589   24.1250  C     
2    C       -28.3977   66.2407   23.8692  C     
3    C       -29.2518   65.2876   24.4658  C     
4    C       -28.7322   64.3149   25.3388  C     
5    C       -26.4996   65.2522   24.9955  C     
6    C       -27.3496   64.3078   25.5664  C     
7    C       -25.3237   63.8785   26.2328  C     
8    N       -25.2550   64.9509   25.4111  N     
9    N       -26.6137   63.5046   26.3373  N     
10   C       -26.1820   67.2356   23.5520  C     
11   O       -26.5980   67.9795   22.6710  O     
12   N       -24.9501   67.4920   23.9416  N     
13   C       -21.7190   63.7036   27.7296  C     
14   C       -22.9370   64.2122   26.9165  C     
15   C       -24.4596   62.7965   28.3575  C     
16   C       -23.2151   62.3531   29.1683  C     
17   N       -22.1237   63.3860   29.1388  N     
18   C       -24.1441   63.2073   26.8734  C     
19   C       -23.8133   61.9502   26.0029  C     
20   C       -20.9646   63.1589   30.0724  C     
21   C       -21.4464   63.1933   31.5512  C     
22   C       -20.1287   61.8718   29.7800  C     
23   H       -28.8226   66.9311   23.2470  H     
24   H       -30.2586   65.3130   24.2804  H     
25   H       -29.3372   63.6119   25.7730  H     
26   H       -26.9467   62.7477   26.8517  H     
27   H       -24.4424   68.1949   23.5225  H     
28   H       -24.5436   66.9853   24.6617  H     
29   H       -21.2455   62.8389   27.2526  H     
30   H       -20.9876   64.5202   27.7396  H     
31   H       -23.2757   65.1590   27.3730  H     
32   H       -22.6000   64.4427   25.9035  H     
33   H       -25.1961   61.9823   28.3720  H     
34   H       -24.9044   63.6496   28.8899  H     
35   H       -23.5328   62.1793   30.2034  H     
36   H       -22.8515   61.4030   28.7734  H     
37   H       -22.5713   64.2419   29.4705  H     
38   H       -24.6659   61.2702   25.9774  H     
39   H       -22.9626   61.3966   26.3882  H     
40   H       -23.5835   62.2366   24.9757  H     
41   H       -20.2602   63.9974   29.9907  H     
42   H       -21.9342   64.1526   31.7460  H     
43   H       -20.5856   63.0986   32.2260  H     
44   H       -22.1578   62.3822   31.7548  H     
45   H       -20.7089   60.9721   30.0182  H     
46   H       -19.2165   61.8596   30.3730  H     
47   H       -19.8349   61.8357   28.7259  H     
@<TRIPOS>BOND
     1    1    2 2
     2    1    5 1
     3    1   10 1
     4    2    3 1
     5    3    4 2
     6    4    6 1
     7    5    6 2
     8    5    8 1
     9    6    9 1
    10    7    8 2
    11    7    9 1
    12    7   18 1
    13   10   11 2
    14   10   12 am
    15   13   14 1
    16   13   17 1
    17   14   18 1
    18   15   16 1
    19   15   18 1
    20   16   17 1
    21   17   20 1
    22   18   19 1
    23   20   21 1
    24   20   22 1
    25    2   23 1
    26    3   24 1
    27    4   25 1
    28    9   26 1
    29   12   27 1
    30   12   28 1
    31   13   29 1
    32   13   30 1
    33   14   31 1
    34   14   32 1
    35   15   33 1
    36   15   34 1
    37   16   35 1
    38   16   36 1
    39   17   37 1
    40   19   38 1
    41   19   39 1
    42   19   40 1
    43   20   41 1
    44   21   42 1
    45   21   43 1
    46   21   44 1
    47   22   45 1
    48   22   46 1
    49   22   47 1
@<TRIPOS>PROPERTY_DATA
  Total_Score	| 8.7840
  Crash		| -0.6375
  Polar		| 3.2435
  FragIndex	| 1
  FragRMSD	| 0.699

