@<TRIPOS>MOLECULE
BindingDB_27123
 47 49 0 0 0
SMALL
NO_CHARGES


@<TRIPOS>ATOM
1    C       -27.1675   66.3428   24.0612  C     
2    C       -28.5353   66.2602   23.6635  C     
3    C       -29.4108   65.2987   24.2114  C     
4    C       -28.9538   64.3799   25.1725  C     
5    C       -26.7381   65.3951   25.0247  C     
6    C       -27.6087   64.4430   25.5549  C     
7    C       -25.6638   64.1526   26.4558  C     
8    N       -25.5388   65.1891   25.6011  N     
9    N       -26.9267   63.6935   26.4200  N     
10   C       -26.3131   67.3110   23.5189  C     
11   O       -26.6836   68.0622   22.6292  O     
12   N       -25.0728   67.5017   23.9232  N     
13   C       -24.5803   63.5691   27.2887  C     
14   C       -23.2407   61.2660   27.5364  C     
15   C       -24.2668   62.1432   26.7483  C     
16   C       -23.3194   64.4878   27.3208  C     
17   C       -22.3493   64.2873   28.5120  C     
18   C       -22.5655   61.8188   28.8280  C     
19   N       -21.6300   62.9723   28.5813  N     
20   C       -20.3731   63.0497   29.4441  C     
21   C       -20.2779   62.1626   30.7212  C     
22   C       -19.1331   62.8221   28.5369  C     
23   H       -28.9143   66.9118   22.9737  H     
24   H       -30.3911   65.2719   23.9160  H     
25   H       -29.5830   63.6891   25.5878  H     
26   H       -27.2727   62.9439   26.9280  H     
27   H       -24.5312   68.1959   23.5158  H     
28   H       -24.6947   66.9672   24.6352  H     
29   H       -24.9745   63.4881   28.3071  H     
30   H       -23.7583   60.3460   27.8319  H     
31   H       -22.4479   60.9626   26.8436  H     
32   H       -25.2095   61.5857   26.6970  H     
33   H       -23.9190   62.2398   25.7134  H     
34   H       -23.6509   65.5304   27.3855  H     
35   H       -22.7593   64.3837   26.3848  H     
36   H       -21.6165   65.0907   28.3861  H     
37   H       -22.8763   64.4825   29.4519  H     
38   H       -23.3269   62.0745   29.5736  H     
39   H       -22.0051   60.9712   29.2390  H     
40   H       -21.2780   62.8186   27.6308  H     
41   H       -20.2435   64.0770   29.8222  H     
42   H       -21.1820   62.2565   31.3294  H     
43   H       -19.4170   62.4843   31.3269  H     
44   H       -20.1242   61.1151   30.4613  H     
45   H       -19.1133   61.7990   28.1574  H     
46   H       -18.2081   63.0107   29.0879  H     
47   H       -19.1629   63.5089   27.6852  H     
@<TRIPOS>BOND
     1    1    2 2
     2    1    5 1
     3    1   10 1
     4    2    3 1
     5    3    4 2
     6    4    6 1
     7    5    6 2
     8    5    8 1
     9    6    9 1
    10    7    8 2
    11    7    9 1
    12    7   13 1
    13   10   11 2
    14   10   12 am
    15   13   15 1
    16   13   16 1
    17   14   15 1
    18   14   18 1
    19   16   17 1
    20   17   19 1
    21   18   19 1
    22   19   20 1
    23   20   21 1
    24   20   22 1
    25    2   23 1
    26    3   24 1
    27    4   25 1
    28    9   26 1
    29   12   27 1
    30   12   28 1
    31   13   29 1
    32   14   30 1
    33   14   31 1
    34   15   32 1
    35   15   33 1
    36   16   34 1
    37   16   35 1
    38   17   36 1
    39   17   37 1
    40   18   38 1
    41   18   39 1
    42   19   40 1
    43   20   41 1
    44   21   42 1
    45   21   43 1
    46   21   44 1
    47   22   45 1
    48   22   46 1
    49   22   47 1
@<TRIPOS>PROPERTY_DATA
  Total_Score	| 9.0402
  Crash		| -0.8943
  Polar		| 3.4255
  FragIndex	| 1
  FragRMSD	| 1.140

