@<TRIPOS>MOLECULE
BindingDB_27101
 38 40 0 0 0
SMALL
NO_CHARGES


@<TRIPOS>ATOM
1    C       -26.9191   66.2619   24.0690  C     
2    C       -28.2952   66.0136   23.8054  C     
3    C       -28.9952   64.9503   24.4201  C     
4    C       -28.3382   64.0989   25.3302  C     
5    C       -26.2873   65.3795   24.9909  C     
6    C       -26.9897   64.3375   25.6009  C     
7    C       -24.9396   64.2824   26.3103  C     
8    N       -25.0259   65.3184   25.4504  N     
9    N       -26.1484   63.6972   26.4194  N     
10   C       -26.2434   67.3199   23.4512  C     
11   O       -26.8067   68.0566   22.6496  O     
12   N       -24.9800   67.6164   23.6746  N     
13   C       -23.7091   63.8962   27.0511  C     
14   C       -22.3942   64.4716   29.2485  C     
15   C       -23.7180   64.5963   28.4443  C     
16   C       -23.4797   62.3461   27.0303  C     
17   C       -23.3919   61.6126   28.3898  C     
18   C       -22.2227   63.1347   30.0093  C     
19   N       -22.1625   61.9439   29.1394  N     
20   H       -28.8174   66.6096   23.1580  H     
21   H       -29.9870   64.8017   24.2129  H     
22   H       -28.8334   63.3350   25.7913  H     
23   H       -26.3676   62.9379   26.9797  H     
24   H       -24.5699   68.3707   23.2269  H     
25   H       -24.4468   67.0847   24.2834  H     
26   H       -22.8749   64.3464   26.4993  H     
27   H       -21.5397   64.6239   28.5820  H     
28   H       -22.3661   65.2760   29.9921  H     
29   H       -23.8804   65.6667   28.2826  H     
30   H       -24.5547   64.2386   29.0487  H     
31   H       -24.2672   61.8382   26.4583  H     
32   H       -22.5550   62.1384   26.4851  H     
33   H       -24.2927   61.7740   28.9894  H     
34   H       -23.3486   60.5417   28.1758  H     
35   H       -21.2830   63.1772   30.5652  H     
36   H       -23.0279   63.0164   30.7399  H     
37   H       -21.9445   61.1396   29.7344  H     
38   H       -21.3956   62.0589   28.4740  H     
@<TRIPOS>BOND
     1    1    2 2
     2    1    5 1
     3    1   10 1
     4    2    3 1
     5    3    4 2
     6    4    6 1
     7    5    6 2
     8    5    8 1
     9    6    9 1
    10    7    8 2
    11    7    9 1
    12    7   13 1
    13   10   11 2
    14   10   12 am
    15   13   15 1
    16   13   16 1
    17   14   15 1
    18   14   18 1
    19   16   17 1
    20   17   19 1
    21   18   19 1
    22    2   20 1
    23    3   21 1
    24    4   22 1
    25    9   23 1
    26   12   24 1
    27   12   25 1
    28   13   26 1
    29   14   27 1
    30   14   28 1
    31   15   29 1
    32   15   30 1
    33   16   31 1
    34   16   32 1
    35   17   33 1
    36   17   34 1
    37   18   35 1
    38   18   36 1
    39   19   37 1
    40   19   38 1
@<TRIPOS>PROPERTY_DATA
  Total_Score	| 7.1649
  Crash		| -0.2421
  Polar		| 3.3291
  FragIndex	| 1
  FragRMSD	| 1.190

