@<TRIPOS>MOLECULE
BindingDB_27100
 35 37 0 0 0
SMALL
NO_CHARGES


@<TRIPOS>ATOM
1    C       -26.9526   66.2652   24.0969  C     
2    C       -28.3325   66.0493   23.8120  C     
3    C       -29.0606   64.9854   24.3950  C     
4    C       -28.4226   64.0909   25.2732  C     
5    C       -26.3456   65.3403   24.9945  C     
6    C       -27.0612   64.2816   25.5506  C     
7    C       -25.0208   64.1748   26.2830  C     
8    N       -25.0908   65.2490   25.4684  N     
9    N       -26.2289   63.5805   26.3286  N     
10   C       -26.2517   67.3258   23.5117  C     
11   O       -26.7591   68.0295   22.6476  O     
12   N       -25.0178   67.6618   23.8416  N     
13   C       -23.7868   63.7509   26.9938  C     
14   C       -22.1634   64.3493   28.8873  C     
15   C       -23.4298   64.7801   28.1067  C     
16   C       -23.8771   62.3118   27.5924  C     
17   C       -22.5931   61.9507   28.3856  C     
18   N       -22.2939   62.9710   29.4172  N     
19   H       -28.8349   66.6742   23.1750  H     
20   H       -30.0539   64.8710   24.1824  H     
21   H       -28.9288   63.3228   25.7150  H     
22   H       -26.4590   62.7863   26.8363  H     
23   H       -24.5866   68.4205   23.4215  H     
24   H       -24.5319   67.1683   24.5199  H     
25   H       -22.9838   63.7473   26.2480  H     
26   H       -21.2816   64.4077   28.2411  H     
27   H       -22.0118   65.0247   29.7299  H     
28   H       -23.2612   65.7666   27.6688  H     
29   H       -24.2656   64.8619   28.8092  H     
30   H       -24.7320   62.2512   28.2728  H     
31   H       -24.0285   61.5809   26.7888  H     
32   H       -22.7337   60.9872   28.8839  H     
33   H       -21.7440   61.8633   27.6999  H     
34   H       -21.4199   62.7157   29.8845  H     
35   H       -23.0451   62.9596   30.1086  H     
@<TRIPOS>BOND
     1    1    2 2
     2    1    5 1
     3    1   10 1
     4    2    3 1
     5    3    4 2
     6    4    6 1
     7    5    6 2
     8    5    8 1
     9    6    9 1
    10    7    8 2
    11    7    9 1
    12    7   13 1
    13   10   11 2
    14   10   12 am
    15   13   15 1
    16   13   16 1
    17   14   15 1
    18   14   18 1
    19   16   17 1
    20   17   18 1
    21    2   19 1
    22    3   20 1
    23    4   21 1
    24    9   22 1
    25   12   23 1
    26   12   24 1
    27   13   25 1
    28   14   26 1
    29   14   27 1
    30   15   28 1
    31   15   29 1
    32   16   30 1
    33   16   31 1
    34   17   32 1
    35   17   33 1
    36   18   34 1
    37   18   35 1
@<TRIPOS>PROPERTY_DATA
  Total_Score	| 6.6688
  Crash		| -0.1281
  Polar		| 3.3369
  FragIndex	| 1
  FragRMSD	| 0.050

