@<TRIPOS>MOLECULE
BindingDB_27120
 44 46 0 0 0
SMALL
NO_CHARGES


@<TRIPOS>ATOM
1    C       -26.9718   66.2727   24.0540  C     
2    C       -28.3222   65.9706   23.7073  C     
3    C       -29.0127   64.8825   24.2865  C     
4    C       -28.3736   64.0553   25.2293  C     
5    C       -26.3670   65.4286   25.0209  C     
6    C       -27.0508   64.3505   25.5829  C     
7    C       -25.0549   64.4083   26.4222  C     
8    N       -25.1372   65.4364   25.5624  N     
9    N       -26.2235   63.7420   26.4359  N     
10   C       -26.2906   67.3441   23.4599  C     
11   O       -26.8189   68.0522   22.6217  O     
12   N       -25.0432   67.6631   23.7533  N     
13   C       -23.8221   64.0541   27.1730  C     
14   C       -22.3164   64.5527   29.1920  C     
15   C       -23.5811   64.9835   28.3892  C     
16   C       -23.8210   62.5715   27.6470  C     
17   C       -22.5093   62.2222   28.4432  C     
18   N       -22.3361   63.1169   29.6198  N     
19   C       -21.1514   62.7787   30.5396  C     
20   C       -21.5798   63.0240   32.0080  C     
21   C       -20.5878   61.3329   30.4462  C     
22   H       -28.8258   66.5419   23.0225  H     
23   H       -29.9825   64.6918   24.0207  H     
24   H       -28.8602   63.2659   25.6523  H     
25   H       -26.4253   62.9485   26.9567  H     
26   H       -24.6197   68.4158   23.3163  H     
27   H       -24.5391   67.1509   24.3986  H     
28   H       -22.9732   64.1686   26.4871  H     
29   H       -21.4343   64.7464   28.5778  H     
30   H       -22.2572   65.2157   30.0533  H     
31   H       -23.4303   66.0036   28.0369  H     
32   H       -24.4509   64.9702   29.0532  H     
33   H       -24.6826   62.3838   28.3057  H     
34   H       -23.9034   61.8991   26.7778  H     
35   H       -22.5560   61.1838   28.7663  H     
36   H       -21.6653   62.2969   27.7621  H     
37   H       -23.1792   62.9869   30.1994  H     
38   H       -20.3028   63.4439   30.3022  H     
39   H       -21.8310   64.0638   32.1880  H     
40   H       -20.7765   62.7663   32.6994  H     
41   H       -22.4504   62.4171   32.2459  H     
42   H       -21.3630   60.6028   30.7039  H     
43   H       -19.7222   61.1914   31.1578  H     
44   H       -20.3161   61.1499   29.3982  H     
@<TRIPOS>BOND
     1    1    2 2
     2    1    5 1
     3    1   10 1
     4    2    3 1
     5    3    4 2
     6    4    6 1
     7    5    6 2
     8    5    8 1
     9    6    9 1
    10    7    8 2
    11    7    9 1
    12    7   13 1
    13   10   11 2
    14   10   12 am
    15   13   15 1
    16   13   16 1
    17   14   15 1
    18   14   18 1
    19   16   17 1
    20   17   18 1
    21   18   19 1
    22   19   20 1
    23   19   21 1
    24    2   22 1
    25    3   23 1
    26    4   24 1
    27    9   25 1
    28   12   26 1
    29   12   27 1
    30   13   28 1
    31   14   29 1
    32   14   30 1
    33   15   31 1
    34   15   32 1
    35   16   33 1
    36   16   34 1
    37   17   35 1
    38   17   36 1
    39   18   37 1
    40   19   38 1
    41   20   39 1
    42   20   40 1
    43   20   41 1
    44   21   42 1
    45   21   43 1
    46   21   44 1
@<TRIPOS>PROPERTY_DATA
  Total_Score	| 8.7039
  Crash		| -0.5534
  Polar		| 3.3572
  FragIndex	| 1
  FragRMSD	| 0.433

