@<TRIPOS>MOLECULE
BindingDB_27124
 51 54 0 0 0
SMALL
NO_CHARGES


@<TRIPOS>ATOM
1    C       -26.9800   66.2639   23.9869  C     
2    C       -28.2758   65.8470   23.5671  C     
3    C       -28.9301   64.7425   24.1604  C     
4    C       -28.3056   64.0104   25.1879  C     
5    C       -26.3908   65.5099   25.0341  C     
6    C       -27.0258   64.4052   25.6036  C     
7    C       -25.1271   64.6933   26.6138  C     
8    N       -25.2255   65.6624   25.6822  N     
9    N       -26.2187   63.9082   26.5482  N     
10   C       -26.3246   67.3421   23.3752  C     
11   O       -26.8171   67.9167   22.4136  O     
12   N       -25.1583   67.8129   23.7613  N     
13   C       -24.0117   64.6203   27.5928  C     
14   C       -23.4960   64.8619   30.1303  C     
15   C       -24.5419   64.4685   29.0541  C     
16   C       -22.9786   63.5211   27.2045  C     
17   C       -21.6704   63.5424   28.0410  C     
18   C       -22.4276   63.7854   30.4642  C     
19   N       -21.8097   62.9101   29.4004  N     
20   C       -20.5334   62.2048   29.8334  C     
21   C       -19.2310   63.0505   29.8193  C     
22   C       -20.5202   61.5463   31.2363  C     
23   C       -19.0400   61.2832   31.5508  C     
24   C       -18.2512   62.3798   30.8156  C     
25   H       -28.7701   66.3473   22.8232  H     
26   H       -29.8646   64.4719   23.8405  H     
27   H       -28.7748   63.2206   25.6355  H     
28   H       -26.4142   63.1561   27.1265  H     
29   H       -24.7427   68.5446   23.2783  H     
30   H       -24.6955   67.4299   24.5202  H     
31   H       -23.4961   65.5884   27.5258  H     
32   H       -22.9924   65.7912   29.8361  H     
33   H       -24.0382   65.0858   31.0585  H     
34   H       -25.4008   65.1355   29.1850  H     
35   H       -24.8949   63.4437   29.2281  H     
36   H       -23.4362   62.5231   27.2679  H     
37   H       -22.6981   63.6872   26.1554  H     
38   H       -20.9280   62.9938   27.4422  H     
39   H       -21.2968   64.5683   28.1333  H     
40   H       -21.6472   64.3079   31.0223  H     
41   H       -22.9080   63.0997   31.1665  H     
42   H       -22.4886   62.1558   29.2603  H     
43   H       -20.3864   61.3776   29.1267  H     
44   H       -18.7961   63.0897   28.8160  H     
45   H       -19.4287   64.0741   30.1351  H     
46   H       -20.9066   62.2202   32.0018  H     
47   H       -21.1016   60.6187   31.2508  H     
48   H       -18.8482   61.3002   32.6284  H     
49   H       -18.7495   60.3045   31.1702  H     
50   H       -17.4010   61.9354   30.2812  H     
51   H       -17.8679   63.1183   31.5321  H     
@<TRIPOS>BOND
     1    1    2 2
     2    1    5 1
     3    1   10 1
     4    2    3 1
     5    3    4 2
     6    4    6 1
     7    5    6 2
     8    5    8 1
     9    6    9 1
    10    7    8 2
    11    7    9 1
    12    7   13 1
    13   10   11 2
    14   10   12 am
    15   13   15 1
    16   13   16 1
    17   14   15 1
    18   14   18 1
    19   16   17 1
    20   17   19 1
    21   18   19 1
    22   19   20 1
    23   20   21 1
    24   20   22 1
    25   21   24 1
    26   22   23 1
    27   23   24 1
    28    2   25 1
    29    3   26 1
    30    4   27 1
    31    9   28 1
    32   12   29 1
    33   12   30 1
    34   13   31 1
    35   14   32 1
    36   14   33 1
    37   15   34 1
    38   15   35 1
    39   16   36 1
    40   16   37 1
    41   17   38 1
    42   17   39 1
    43   18   40 1
    44   18   41 1
    45   19   42 1
    46   20   43 1
    47   21   44 1
    48   21   45 1
    49   22   46 1
    50   22   47 1
    51   23   48 1
    52   23   49 1
    53   24   50 1
    54   24   51 1
@<TRIPOS>PROPERTY_DATA
  Total_Score	| 9.2204
  Crash		| -1.1005
  Polar		| 3.3232
  FragIndex	| 1
  FragRMSD	| 0.782

