@<TRIPOS>MOLECULE
BindingDB_27121
 48 51 0 0 0
SMALL
NO_CHARGES


@<TRIPOS>ATOM
1    C       -27.0735   66.3499   24.0037  C     
2    C       -28.4445   66.1624   23.6584  C     
3    C       -29.2289   65.1524   24.2600  C     
4    C       -28.6560   64.2816   25.2052  C     
5    C       -26.5224   65.4421   24.9537  C     
6    C       -27.2948   64.4337   25.5232  C     
7    C       -25.2678   64.2719   26.3359  C     
8    N       -25.2826   65.3172   25.4771  N     
9    N       -26.5049   63.7310   26.3477  N     
10   C       -26.3250   67.3723   23.4170  C     
11   O       -26.7411   68.0071   22.4565  O     
12   N       -25.1452   67.7462   23.8659  N     
13   C       -24.0702   63.8061   27.1066  C     
14   C       -22.5179   64.2414   29.1572  C     
15   C       -23.7193   64.7480   28.3028  C     
16   C       -24.2077   62.3559   27.6638  C     
17   C       -22.9856   61.9044   28.5059  C     
18   N       -22.7253   62.8318   29.6531  N     
19   C       -21.8617   62.2490   30.7670  C     
20   C       -20.8557   61.1136   30.4429  C     
21   C       -20.9177   63.1881   31.5639  C     
22   C       -19.5918   63.1850   30.7622  C     
23   C       -19.5091   61.7936   30.1031  C     
24   H       -28.8990   66.7657   22.9685  H     
25   H       -30.2142   65.0512   24.0046  H     
26   H       -29.2163   63.5535   25.6485  H     
27   H       -26.7879   62.9573   26.8569  H     
28   H       -24.6649   68.4703   23.4314  H     
29   H       -24.7660   67.3289   24.6560  H     
30   H       -23.2248   63.8074   26.4148  H     
31   H       -21.5802   64.3318   28.5984  H     
32   H       -22.4716   64.9381   29.9934  H     
33   H       -23.5052   65.7534   27.9271  H     
34   H       -24.6010   64.8298   28.9514  H     
35   H       -25.0932   62.3050   28.3122  H     
36   H       -24.3583   61.6517   26.8357  H     
37   H       -23.1943   60.9027   28.8948  H     
38   H       -22.1006   61.8215   27.8589  H     
39   H       -23.6399   62.9033   30.0983  H     
40   H       -22.5844   61.8495   31.4877  H     
41   H       -20.7202   60.4957   31.3430  H     
42   H       -21.2049   60.4509   29.6537  H     
43   H       -21.3291   64.1825   31.7246  H     
44   H       -20.7286   62.7528   32.5486  H     
45   H       -19.5816   63.9670   29.9839  H     
46   H       -18.7394   63.3447   31.4287  H     
47   H       -18.6810   61.2243   30.5371  H     
48   H       -19.3675   61.8540   29.0123  H     
@<TRIPOS>BOND
     1    1    2 2
     2    1    5 1
     3    1   10 1
     4    2    3 1
     5    3    4 2
     6    4    6 1
     7    5    6 2
     8    5    8 1
     9    6    9 1
    10    7    8 2
    11    7    9 1
    12    7   13 1
    13   10   11 2
    14   10   12 am
    15   13   15 1
    16   13   16 1
    17   14   15 1
    18   14   18 1
    19   16   17 1
    20   17   18 1
    21   18   19 1
    22   19   20 1
    23   19   21 1
    24   20   23 1
    25   21   22 1
    26   22   23 1
    27    2   24 1
    28    3   25 1
    29    4   26 1
    30    9   27 1
    31   12   28 1
    32   12   29 1
    33   13   30 1
    34   14   31 1
    35   14   32 1
    36   15   33 1
    37   15   34 1
    38   16   35 1
    39   16   36 1
    40   17   37 1
    41   17   38 1
    42   18   39 1
    43   19   40 1
    44   20   41 1
    45   20   42 1
    46   21   43 1
    47   21   44 1
    48   22   45 1
    49   22   46 1
    50   23   47 1
    51   23   48 1
@<TRIPOS>PROPERTY_DATA
  Total_Score	| 9.3512
  Crash		| -1.7037
  Polar		| 3.3652
  FragIndex	| 1
  FragRMSD	| 0.630

