@<TRIPOS>MOLECULE
BindingDB_27118
 38 40 0 0 0
SMALL
NO_CHARGES


@<TRIPOS>ATOM
1    C       -26.8858   66.2350   24.1245  C     
2    C       -28.2741   65.9925   23.9224  C     
3    C       -28.9386   64.9055   24.5382  C     
4    C       -28.2354   64.0254   25.3853  C     
5    C       -26.2112   65.3282   24.9813  C     
6    C       -26.8714   64.2611   25.5948  C     
7    C       -24.7896   64.2056   26.2038  C     
8    N       -24.9289   65.2614   25.3673  N     
9    N       -25.9851   63.6014   26.3428  N     
10   C       -26.2458   67.3234   23.5163  C     
11   O       -26.8355   68.0472   22.7202  O     
12   N       -25.0070   67.6844   23.7719  N     
13   C       -23.4911   63.8344   26.8193  C     
14   C       -24.0547   63.5609   29.3313  C     
15   C       -23.3267   64.4068   28.2546  C     
16   C       -23.1770   62.3081   26.7965  C     
17   C       -23.8542   61.5166   27.9537  C     
18   N       -23.6784   62.1145   29.3142  N     
19   C       -22.3733   61.8069   29.9746  C     
20   H       -28.8319   66.6152   23.3335  H     
21   H       -29.9402   64.7654   24.3840  H     
22   H       -28.7100   63.2447   25.8461  H     
23   H       -26.1776   62.8219   26.8926  H     
24   H       -24.6283   68.4604   23.3348  H     
25   H       -24.4664   67.1869   24.4075  H     
26   H       -22.7192   64.3140   26.2013  H     
27   H       -23.8639   63.9925   30.3163  H     
28   H       -25.1297   63.6300   29.1627  H     
29   H       -22.2599   64.4427   28.4953  H     
30   H       -23.6965   65.4381   28.2934  H     
31   H       -23.4858   61.8753   25.8388  H     
32   H       -22.0938   62.1723   26.8823  H     
33   H       -24.9275   61.4616   27.7542  H     
34   H       -23.4948   60.4867   27.9421  H     
35   H       -24.3701   61.6478   29.9075  H     
36   H       -21.5311   62.2358   29.4339  H     
37   H       -22.2330   60.7272   30.0423  H     
38   H       -22.3713   62.1957   30.9950  H     
@<TRIPOS>BOND
     1    1    2 2
     2    1    5 1
     3    1   10 1
     4    2    3 1
     5    3    4 2
     6    4    6 1
     7    5    6 2
     8    5    8 1
     9    6    9 1
    10    7    8 2
    11    7    9 1
    12    7   13 1
    13   10   11 2
    14   10   12 am
    15   13   15 1
    16   13   16 1
    17   14   15 1
    18   14   18 1
    19   16   17 1
    20   17   18 1
    21   18   19 1
    22    2   20 1
    23    3   21 1
    24    4   22 1
    25    9   23 1
    26   12   24 1
    27   12   25 1
    28   13   26 1
    29   14   27 1
    30   14   28 1
    31   15   29 1
    32   15   30 1
    33   16   31 1
    34   16   32 1
    35   17   33 1
    36   17   34 1
    37   18   35 1
    38   19   36 1
    39   19   37 1
    40   19   38 1
@<TRIPOS>PROPERTY_DATA
  Total_Score	| 7.4417
  Crash		| -0.2773
  Polar		| 3.3877
  FragIndex	| 1
  FragRMSD	| 0.840

