@<TRIPOS>MOLECULE
BindingDB_27129
 56 58 0 0 0
SMALL
NO_CHARGES


@<TRIPOS>ATOM
1    C       -27.0956   66.3836   23.9406  C     
2    C       -28.5074   66.3889   23.7748  C     
3    C       -29.3308   65.4417   24.4155  C     
4    C       -28.7631   64.4346   25.2206  C     
5    C       -26.5565   65.3515   24.7543  C     
6    C       -27.3675   64.3959   25.3660  C     
7    C       -25.3186   64.0293   25.9548  C     
8    N       -25.2964   65.1045   25.1447  N     
9    N       -26.5812   63.5982   26.0924  N     
10   C       -26.3116   67.3837   23.3634  C     
11   O       -26.7446   68.1110   22.4785  O     
12   N       -25.0789   67.6520   23.7575  N     
13   C       -24.1472   63.6076   26.7739  C     
14   C       -22.8727   64.1173   28.9443  C     
15   C       -24.0637   64.5328   28.0296  C     
16   C       -24.1326   62.1072   27.1937  C     
17   C       -22.9263   61.7728   28.1285  C     
18   N       -22.9026   62.6622   29.3401  N     
19   C       -21.9746   62.2485   30.4544  C     
20   C       -20.6627   63.0591   30.6778  C     
21   N       -19.4032   62.3180   30.2190  N     
22   C       -18.4223   63.1148   29.3809  C     
23   C       -18.8467   64.4376   28.6656  C     
24   C       -18.6579   61.6613   31.3666  C     
25   C       -19.4678   60.7554   32.3196  C     
26   H       -28.9648   67.1173   23.2139  H     
27   H       -30.3514   65.5024   24.3154  H     
28   H       -29.3575   63.7662   25.7201  H     
29   H       -26.8783   62.8820   26.6716  H     
30   H       -24.5896   68.3880   23.3630  H     
31   H       -24.6835   67.1563   24.4876  H     
32   H       -23.2474   63.7837   26.1686  H     
33   H       -21.9234   64.3513   28.4434  H     
34   H       -22.9127   64.7452   29.8391  H     
35   H       -23.9173   65.5701   27.7028  H     
36   H       -25.0023   64.4757   28.6045  H     
37   H       -25.0642   61.8746   27.7310  H     
38   H       -24.0908   61.4690   26.2956  H     
39   H       -23.0408   60.7337   28.4428  H     
40   H       -21.9873   61.8495   27.5713  H     
41   H       -23.8410   62.5367   29.7296  H     
42   H       -22.5845   62.3105   31.3713  H     
43   H       -21.7445   61.1803   30.3503  H     
44   H       -20.8398   63.9964   30.1631  H     
45   H       -20.5807   63.3018   31.7516  H     
46   H       -19.7272   61.5497   29.6077  H     
47   H       -17.5240   63.3701   29.9590  H     
48   H       -18.1106   62.4513   28.5691  H     
49   H       -19.8354   64.3342   28.2049  H     
50   H       -18.1251   64.7051   27.8786  H     
51   H       -18.8603   65.2783   29.3707  H     
52   H       -17.8510   61.0374   30.9526  H     
53   H       -18.1741   62.4420   31.9686  H     
54   H       -20.1127   61.3566   32.9626  H     
55   H       -18.8032   60.1738   32.9552  H     
56   H       -20.0910   60.0644   31.7578  H     
@<TRIPOS>BOND
     1    1    2 2
     2    1    5 1
     3    1   10 1
     4    2    3 1
     5    3    4 2
     6    4    6 1
     7    5    6 2
     8    5    8 1
     9    6    9 1
    10    7    8 2
    11    7    9 1
    12    7   13 1
    13   10   11 2
    14   10   12 am
    15   13   15 1
    16   13   16 1
    17   14   15 1
    18   14   18 1
    19   16   17 1
    20   17   18 1
    21   18   19 1
    22   19   20 1
    23   20   21 1
    24   21   22 1
    25   21   24 1
    26   22   23 1
    27   24   25 1
    28    2   26 1
    29    3   27 1
    30    4   28 1
    31    9   29 1
    32   12   30 1
    33   12   31 1
    34   13   32 1
    35   14   33 1
    36   14   34 1
    37   15   35 1
    38   15   36 1
    39   16   37 1
    40   16   38 1
    41   17   39 1
    42   17   40 1
    43   18   41 1
    44   19   42 1
    45   19   43 1
    46   20   44 1
    47   20   45 1
    48   21   46 1
    49   22   47 1
    50   22   48 1
    51   23   49 1
    52   23   50 1
    53   23   51 1
    54   24   52 1
    55   24   53 1
    56   25   54 1
    57   25   55 1
    58   25   56 1
@<TRIPOS>PROPERTY_DATA
  Total_Score	| 11.1864
  Crash		| -1.5535
  Polar		| 3.3874
  FragIndex	| 1
  FragRMSD	| 0.590

