@<TRIPOS>MOLECULE
BindingDB_15821
 88 89 0 0 0
SMALL
NO_CHARGES


@<TRIPOS>ATOM
1    C        34.3988   28.8082   21.0939  C     
2    C        35.1791   29.2097   19.9695  C     
3    C        34.6564   30.2245   19.1220  C     
4    C        32.6462   30.4284   20.4567  C     
5    C        33.1455   29.4300   21.3083  C     
6    N        34.7221   27.7332   21.9655  N     
7    C        34.9406   27.9569   23.2869  C     
8    O        34.8587   27.0442   24.0978  O     
9    C        35.2921   29.1860   23.8328  C     
10   O        34.4997   29.8145   24.7328  O     
11   O        36.4273   29.8128   23.4566  O     
12   C        34.4367   26.4412   21.5114  C     
13   C        34.9815   24.1056   21.0282  C     
14   C        33.6645   23.8736   20.5904  C     
15   C        32.7277   24.9122   20.6292  C     
16   C        33.1148   26.1756   21.0837  C     
17   C        35.3965   25.3753   21.5004  C     
18   C        36.7584   25.5094   21.9029  C     
19   O        37.6282   24.4902   21.8206  O     
20   O        37.3234   26.7078   22.2088  O     
21   C        36.4794   28.5997   19.5616  C     
22   C        37.7150   29.3978   20.0432  C     
23   C        33.3954   30.8408   19.3277  C     
24   C        32.8902   31.8112   18.3161  C     
25   C        31.3402   32.0375   18.1617  C     
26   N        31.0104   33.0660   17.2289  N     
27   C        31.3513   33.2133   15.9545  C     
28   C        30.8308   34.3707   15.2485  C     
29   O        32.1316   32.4140   15.4155  O     
30   C        30.5360   30.8178   18.0360  C     
31   O        30.9927   29.7113   18.3563  O     
32   N        29.2135   30.9263   17.8430  N     
33   C        28.1985   29.9345   17.9972  C     
34   C        27.2692   30.0792   19.2433  C     
35   C        27.5819   31.2395   20.2343  C     
36   C        26.4108   31.8050   21.1088  C     
37   C        25.6703   30.8685   21.9466  C     
38   O        26.2927   29.9977   22.5478  O     
39   N        24.3553   31.0239   22.1323  N     
40   C        23.4974   30.1510   22.8869  C     
41   C        23.5620   28.7857   22.3134  C     
42   O        22.5232   28.2758   21.6128  O     
43   C        22.0401   30.6972   22.9836  C     
44   C        21.8434   31.7427   24.1150  C     
45   C        19.9706   33.6881   23.4848  C     
46   S        20.0926   32.1268   24.3839  S     
47   O        24.7273   28.0864   22.4458  O     
48   C        25.0025   26.7680   21.9692  C     
49   H        35.1913   30.4823   18.2859  H     
50   H        31.6843   30.7643   20.5813  H     
51   H        32.5459   29.1063   22.0671  H     
52   H        35.6274   23.3134   20.9755  H     
53   H        33.3984   22.9468   20.2495  H     
54   H        31.7708   24.7418   20.3119  H     
55   H        32.4073   26.9110   21.1000  H     
56   H        36.5775   27.5753   19.9110  H     
57   H        36.5132   28.5435   18.4672  H     
58   H        37.7158   30.4103   19.6467  H     
59   H        38.6357   28.8950   19.7123  H     
60   H        37.7207   29.4477   21.1371  H     
61   H        33.3550   32.7742   18.5372  H     
62   H        33.2688   31.5139   17.3193  H     
63   H        31.0211   32.4433   19.1288  H     
64   H        30.3985   33.7468   17.5644  H     
65   H        29.7396   34.2768   15.1564  H     
66   H        31.2539   34.4711   14.2516  H     
67   H        31.0348   35.2953   15.8122  H     
68   H        28.8724   31.8033   17.5769  H     
69   H        27.5452   29.9908   17.1153  H     
70   H        28.6545   28.9315   17.9971  H     
71   H        26.2496   30.2102   18.8719  H     
72   H        27.3105   29.1479   19.7976  H     
73   H        28.3741   30.9033   20.9162  H     
74   H        27.9875   32.0833   19.6659  H     
75   H        26.8286   32.5667   21.7811  H     
76   H        25.7089   32.3190   20.4423  H     
77   H        23.9422   31.7972   21.7136  H     
78   H        23.8652   30.0865   23.9148  H     
79   H        21.7423   31.1240   22.0205  H     
80   H        21.3799   29.8532   23.2001  H     
81   H        22.2140   31.3183   25.0500  H     
82   H        22.4113   32.6527   23.9109  H     
83   H        20.5308   34.4575   24.0146  H     
84   H        18.9226   33.9820   23.4348  H     
85   H        20.3577   33.5762   22.4736  H     
86   H        24.3810   26.0366   22.4904  H     
87   H        26.0505   26.5340   22.1653  H     
88   H        24.8207   26.7029   20.8934  H     
@<TRIPOS>BOND
     1    1    2 2
     2    1    5 1
     3    1    6 1
     4    2    3 1
     5    2   21 1
     6    3   23 2
     7    4    5 2
     8    4   23 1
     9    6    7 am
    10    6   12 1
    11    7    8 2
    12    7    9 1
    13    9   10 2
    14    9   11 1
    15   12   16 2
    16   12   17 1
    17   13   14 1
    18   13   17 2
    19   14   15 2
    20   15   16 1
    21   17   18 1
    22   18   19 2
    23   18   20 1
    24   21   22 1
    25   23   24 1
    26   24   25 1
    27   25   26 1
    28   25   30 1
    29   26   27 am
    30   27   28 1
    31   27   29 2
    32   30   31 2
    33   30   32 am
    34   32   33 1
    35   33   34 1
    36   34   35 1
    37   35   36 1
    38   36   37 1
    39   37   38 2
    40   37   39 am
    41   39   40 1
    42   40   41 1
    43   40   43 1
    44   41   42 2
    45   41   47 1
    46   43   44 1
    47   44   46 1
    48   45   46 1
    49   47   48 1
    50    3   49 1
    51    4   50 1
    52    5   51 1
    53   13   52 1
    54   14   53 1
    55   15   54 1
    56   16   55 1
    57   21   56 1
    58   21   57 1
    59   22   58 1
    60   22   59 1
    61   22   60 1
    62   24   61 1
    63   24   62 1
    64   25   63 1
    65   26   64 1
    66   28   65 1
    67   28   66 1
    68   28   67 1
    69   32   68 1
    70   33   69 1
    71   33   70 1
    72   34   71 1
    73   34   72 1
    74   35   73 1
    75   35   74 1
    76   36   75 1
    77   36   76 1
    78   39   77 1
    79   40   78 1
    80   43   79 1
    81   43   80 1
    82   44   81 1
    83   44   82 1
    84   45   83 1
    85   45   84 1
    86   45   85 1
    87   48   86 1
    88   48   87 1
    89   48   88 1
@<TRIPOS>PROPERTY_DATA
  Total_Score	| 18.6667
  Crash		| -2.7505
  Polar		| 16.5986
  FragIndex	| 1
  FragRMSD	| 1.154

