@<TRIPOS>MOLECULE
BindingDB_15814
 86 87 0 0 0
SMALL
NO_CHARGES


@<TRIPOS>ATOM
1    C        34.3100   28.8381   21.0498  C     
2    C        35.0763   29.1747   19.8933  C     
3    C        34.5959   30.1747   19.0190  C     
4    C        32.6820   30.5783   20.4300  C     
5    C        33.1270   29.5799   21.3051  C     
6    N        34.6259   27.7906   21.9271  N     
7    C        34.8566   28.0081   23.2441  C     
8    O        34.8217   27.0855   24.0610  O     
9    C        35.2478   29.2305   23.7625  C     
10   O        36.4062   29.8026   23.3654  O     
11   O        34.5288   29.8577   24.7281  O     
12   C        34.3561   26.4951   21.4922  C     
13   C        34.9150   24.1421   21.0975  C     
14   C        33.6247   23.9019   20.6199  C     
15   C        32.6789   24.9337   20.5944  C     
16   C        33.0390   26.2163   21.0316  C     
17   C        35.3112   25.4252   21.5537  C     
18   C        36.6554   25.5650   22.0221  C     
19   O        37.5992   24.6312   21.7562  O     
20   O        37.1284   26.6553   22.6658  O     
21   C        36.3958   28.5515   19.5548  C     
22   C        37.5942   29.4372   19.9712  C     
23   C        33.3761   30.8517   19.2358  C     
24   C        32.8876   31.8213   18.2088  C     
25   C        31.3819   32.2320   18.1470  C     
26   N        30.9472   33.0580   17.0495  N     
27   C        31.5874   33.5453   15.9863  C     
28   C        30.8384   34.3302   15.0396  C     
29   O        32.7726   33.3436   15.7528  O     
30   C        30.5060   31.0620   18.1626  C     
31   O        30.7389   30.1418   17.3921  O     
32   N        29.5250   30.9811   19.0562  N     
33   C        28.7235   29.8392   19.3641  C     
34   C        27.3258   30.2123   19.9181  C     
35   C        27.3557   30.8501   21.3382  C     
36   C        25.9740   31.3405   21.8565  C     
37   C        25.0236   30.2730   22.1646  C     
38   O        25.0744   29.2601   21.4796  O     
39   N        24.1027   30.4616   23.0997  N     
40   C        23.0040   29.6487   23.5685  C     
41   C        22.8100   28.3508   22.8619  C     
42   O        22.7728   27.1838   23.5491  O     
43   O        22.5128   28.3051   21.5431  O     
44   C        21.6695   30.4870   23.6314  C     
45   C        21.4872   29.9612   26.2128  C     
46   C        20.7563   30.1349   24.8545  C     
47   C        21.9128   32.0311   23.5591  C     
48   H        35.1415   30.4020   18.1777  H     
49   H        31.8386   31.0853   20.6674  H     
50   H        32.5598   29.3754   22.1287  H     
51   H        35.5663   23.3537   21.1052  H     
52   H        33.3777   22.9677   20.2881  H     
53   H        31.7313   24.7496   20.2596  H     
54   H        32.3278   26.9489   21.0174  H     
55   H        36.5113   27.5794   20.0198  H     
56   H        36.4418   28.3746   18.4755  H     
57   H        37.5154   30.4352   19.5293  H     
58   H        38.5294   28.9798   19.6264  H     
59   H        37.6365   29.5324   21.0597  H     
60   H        33.4829   32.7328   18.3221  H     
61   H        33.1373   31.3915   17.2339  H     
62   H        31.1958   32.8390   19.0354  H     
63   H        30.0179   33.3272   17.1091  H     
64   H        30.0137   33.7342   14.6504  H     
65   H        31.4612   34.6498   14.2001  H     
66   H        30.4408   35.2198   15.5246  H     
67   H        29.4015   31.7540   19.6277  H     
68   H        28.5951   29.1909   18.4901  H     
69   H        29.2696   29.2629   20.1170  H     
70   H        26.8457   30.9034   19.2207  H     
71   H        26.7251   29.2995   19.9520  H     
72   H        27.7829   30.1391   22.0529  H     
73   H        28.0189   31.7182   21.2906  H     
74   H        26.1576   31.9370   22.7565  H     
75   H        25.5344   32.0213   21.1137  H     
76   H        24.1780   31.3127   23.5602  H     
77   H        23.2753   29.4012   24.5986  H     
78   H        21.0922   30.2406   22.7331  H     
79   H        21.9787   28.9847   26.2542  H     
80   H        20.7631   30.0127   27.0313  H     
81   H        22.2422   30.7430   26.3587  H     
82   H        20.0007   30.9181   24.9748  H     
83   H        20.1999   29.2122   24.6466  H     
84   H        22.5650   32.3726   24.3670  H     
85   H        20.9681   32.5764   23.6289  H     
86   H        22.3758   32.3046   22.6091  H     
@<TRIPOS>BOND
     1    1    2 2
     2    1    5 1
     3    1    6 1
     4    2    3 1
     5    2   21 1
     6    3   23 2
     7    4    5 2
     8    4   23 1
     9    6    7 am
    10    6   12 1
    11    7    8 2
    12    7    9 1
    13    9   10 2
    14    9   11 1
    15   12   16 2
    16   12   17 1
    17   13   14 1
    18   13   17 2
    19   14   15 2
    20   15   16 1
    21   17   18 1
    22   18   19 2
    23   18   20 1
    24   21   22 1
    25   23   24 1
    26   24   25 1
    27   25   26 1
    28   25   30 1
    29   26   27 am
    30   27   28 1
    31   27   29 2
    32   30   31 2
    33   30   32 am
    34   32   33 1
    35   33   34 1
    36   34   35 1
    37   35   36 1
    38   36   37 1
    39   37   38 2
    40   37   39 am
    41   39   40 1
    42   40   41 1
    43   40   44 1
    44   41   42 2
    45   41   43 1
    46   44   46 1
    47   44   47 1
    48   45   46 1
    49    3   48 1
    50    4   49 1
    51    5   50 1
    52   13   51 1
    53   14   52 1
    54   15   53 1
    55   16   54 1
    56   21   55 1
    57   21   56 1
    58   22   57 1
    59   22   58 1
    60   22   59 1
    61   24   60 1
    62   24   61 1
    63   25   62 1
    64   26   63 1
    65   28   64 1
    66   28   65 1
    67   28   66 1
    68   32   67 1
    69   33   68 1
    70   33   69 1
    71   34   70 1
    72   34   71 1
    73   35   72 1
    74   35   73 1
    75   36   74 1
    76   36   75 1
    77   39   76 1
    78   40   77 1
    79   44   78 1
    80   45   79 1
    81   45   80 1
    82   45   81 1
    83   46   82 1
    84   46   83 1
    85   47   84 1
    86   47   85 1
    87   47   86 1
@<TRIPOS>PROPERTY_DATA
  Total_Score	| 19.2496
  Crash		| -3.6239
  Polar		| 17.4467
  FragIndex	| 1
  FragRMSD	| 0.973

