@<TRIPOS>MOLECULE
BindingDB_15815
 84 85 0 0 0
SMALL
NO_CHARGES


@<TRIPOS>ATOM
1    C        34.3285   28.7222   21.0971  C     
2    C        35.1096   29.1152   19.9690  C     
3    C        34.6174   30.1247   19.1048  C     
4    C        32.6148   30.3665   20.4280  C     
5    C        33.0930   29.3872   21.3145  C     
6    N        34.6633   27.6851   21.9782  N     
7    C        34.8982   27.9333   23.2858  C     
8    O        34.8501   27.0332   24.1191  O     
9    C        35.2575   29.1715   23.7995  C     
10   O        36.3715   29.7931   23.3617  O     
11   O        34.5401   29.7926   24.7645  O     
12   C        34.4267   26.3720   21.5603  C     
13   C        35.0454   24.0326   21.1746  C     
14   C        33.7392   23.7333   20.7636  C     
15   C        32.7680   24.7426   20.7536  C     
16   C        33.1091   26.0393   21.1564  C     
17   C        35.4212   25.3364   21.5893  C     
18   C        36.7780   25.5224   21.9801  C     
19   O        37.6973   24.5477   21.8172  O     
20   O        37.2697   26.6843   22.4673  O     
21   C        36.4284   28.5128   19.6199  C     
22   C        37.6298   29.3466   20.1077  C     
23   C        33.3636   30.7474   19.2930  C     
24   C        32.8937   31.7948   18.3369  C     
25   C        31.3766   32.1781   18.3318  C     
26   N        31.0656   33.1657   17.3387  N     
27   C        31.4652   33.2220   16.0776  C     
28   C        31.0800   34.3647   15.2908  C     
29   O        32.2613   32.3936   15.6131  O     
30   C        30.4132   31.0928   18.2197  C     
31   O        30.7352   30.0180   17.7212  O     
32   N        29.1739   31.3243   18.6569  N     
33   C        28.1055   30.3877   18.7781  C     
34   C        27.8331   30.1034   20.2812  C     
35   C        27.2760   31.3208   21.0833  C     
36   C        25.7198   31.4039   21.1526  C     
37   C        25.0624   30.5145   22.0981  C     
38   O        25.7165   29.7543   22.8026  O     
39   N        23.7412   30.5789   22.2290  N     
40   C        22.9464   29.8875   23.2010  C     
41   C        22.6693   28.5141   22.7328  C     
42   O        22.2551   28.2751   21.4664  O     
43   O        22.8743   27.4497   23.5335  O     
44   C        21.6453   30.6868   23.4977  C     
45   C        20.9043   30.2536   24.7945  C     
46   C        21.6925   30.4871   25.9886  C     
47   O        22.6202   29.7435   26.2853  O     
48   N        21.4726   31.5401   26.7473  N     
49   H        35.1760   30.4061   18.2926  H     
50   H        31.7122   30.7997   20.6287  H     
51   H        32.5133   29.1299   22.1167  H     
52   H        35.7165   23.2676   21.1462  H     
53   H        33.5003   22.7897   20.4640  H     
54   H        31.8152   24.5322   20.4506  H     
55   H        32.3655   26.7489   21.1574  H     
56   H        36.5211   27.5147   20.0254  H     
57   H        36.4879   28.3949   18.5352  H     
58   H        37.5749   30.3704   19.7411  H     
59   H        38.5576   28.9055   19.7467  H     
60   H        37.6621   29.3671   21.1963  H     
61   H        33.4521   32.6990   18.5753  H     
62   H        33.1871   31.5187   17.3146  H     
63   H        31.2064   32.6735   19.2941  H     
64   H        30.4097   33.8317   17.6012  H     
65   H        29.9997   34.3342   15.1097  H     
66   H        31.5978   34.3873   14.3285  H     
67   H        31.3161   35.2887   15.8330  H     
68   H        29.0063   32.2126   19.0053  H     
69   H        27.2037   30.7904   18.3082  H     
70   H        28.3438   29.4423   18.2830  H     
71   H        27.1426   29.2570   20.3848  H     
72   H        28.7797   29.7947   20.7447  H     
73   H        27.6713   31.2906   22.1064  H     
74   H        27.6456   32.2501   20.6364  H     
75   H        25.4537   32.4284   21.4320  H     
76   H        25.3110   31.2210   20.1573  H     
77   H        23.2736   31.2097   21.6509  H     
78   H        23.5087   29.8401   24.1429  H     
79   H        21.8882   31.7520   23.5783  H     
80   H        20.9537   30.5830   22.6552  H     
81   H        19.9636   30.8071   24.8796  H     
82   H        20.6329   29.1919   24.7328  H     
83   H        22.0083   31.6938   27.5364  H     
84   H        20.7579   32.1571   26.5244  H     
@<TRIPOS>BOND
     1    1    2 2
     2    1    5 1
     3    1    6 1
     4    2    3 1
     5    2   21 1
     6    3   23 2
     7    4    5 2
     8    4   23 1
     9    6    7 am
    10    6   12 1
    11    7    8 2
    12    7    9 1
    13    9   10 2
    14    9   11 1
    15   12   16 2
    16   12   17 1
    17   13   14 1
    18   13   17 2
    19   14   15 2
    20   15   16 1
    21   17   18 1
    22   18   19 2
    23   18   20 1
    24   21   22 1
    25   23   24 1
    26   24   25 1
    27   25   26 1
    28   25   30 1
    29   26   27 am
    30   27   28 1
    31   27   29 2
    32   30   31 2
    33   30   32 am
    34   32   33 1
    35   33   34 1
    36   34   35 1
    37   35   36 1
    38   36   37 1
    39   37   38 2
    40   37   39 am
    41   39   40 1
    42   40   41 1
    43   40   44 1
    44   41   42 2
    45   41   43 1
    46   44   45 1
    47   45   46 1
    48   46   47 2
    49   46   48 am
    50    3   49 1
    51    4   50 1
    52    5   51 1
    53   13   52 1
    54   14   53 1
    55   15   54 1
    56   16   55 1
    57   21   56 1
    58   21   57 1
    59   22   58 1
    60   22   59 1
    61   22   60 1
    62   24   61 1
    63   24   62 1
    64   25   63 1
    65   26   64 1
    66   28   65 1
    67   28   66 1
    68   28   67 1
    69   32   68 1
    70   33   69 1
    71   33   70 1
    72   34   71 1
    73   34   72 1
    74   35   73 1
    75   35   74 1
    76   36   75 1
    77   36   76 1
    78   39   77 1
    79   40   78 1
    80   44   79 1
    81   44   80 1
    82   45   81 1
    83   45   82 1
    84   48   83 1
    85   48   84 1
@<TRIPOS>PROPERTY_DATA
  Total_Score	| 19.9276
  Crash		| -3.1312
  Polar		| 18.2632
  FragIndex	| 1
  FragRMSD	| 1.086

