@<TRIPOS>MOLECULE
BindingDB_15810
 85 87 0 0 0
SMALL
NO_CHARGES


@<TRIPOS>ATOM
1    C        34.0271   28.8503   21.1121  C     
2    C        34.7174   29.3586   19.9762  C     
3    C        34.1459   30.4438   19.2618  C     
4    C        32.2371   30.5019   20.7511  C     
5    C        32.7842   29.4277   21.4729  C     
6    N        34.5029   27.8045   21.8961  N     
7    C        34.8526   28.0406   23.1728  C     
8    O        35.0751   27.1078   23.9417  O     
9    C        35.2085   29.2796   23.6566  C     
10   O        36.4275   29.7908   23.3452  O     
11   O        34.5512   29.8519   24.7043  O     
12   C        34.3047   26.4943   21.4442  C     
13   C        34.9923   24.1826   20.9987  C     
14   C        33.7104   23.8669   20.5317  C     
15   C        32.7135   24.8507   20.5065  C     
16   C        33.0127   26.1427   20.9646  C     
17   C        35.3246   25.4824   21.4607  C     
18   C        36.6717   25.6863   21.9041  C     
19   O        37.0743   26.7617   22.6213  O     
20   O        37.6013   24.6917   21.8332  O     
21   C        36.0076   28.8102   19.4703  C     
22   C        37.2375   29.6146   19.9425  C     
23   C        32.9283   31.0454   19.6544  C     
24   C        32.3896   32.2178   18.9174  C     
25   C        31.6167   31.8448   17.6075  C     
26   N        30.2312   31.6328   17.9449  N     
27   C        29.6960   30.6016   18.5822  C     
28   C        28.2720   30.6091   18.8294  C     
29   O        30.3739   29.6648   18.9899  O     
30   C        31.7885   32.8658   16.5725  C     
31   O        32.8837   32.9023   16.0202  O     
32   N        30.8247   33.6952   16.1746  N     
33   C        30.9496   34.6664   15.1262  C     
34   C        29.8821   35.7986   15.2332  C     
35   C        28.4571   35.5840   14.6165  C     
36   C        28.1945   34.2182   13.9141  C     
37   C        26.8149   34.0147   13.5549  C     
38   O        26.4657   34.1735   12.3875  O     
39   N        25.9736   33.5975   14.4943  N     
40   C        24.5855   33.3233   14.3140  C     
41   C        23.7525   33.7253   15.5551  C     
42   C        23.4426   35.1758   15.6265  C     
43   C        23.0678   35.8947   14.4661  C     
44   C        22.7690   37.2685   14.5372  C     
45   C        22.8381   37.9399   15.7704  C     
46   C        23.2121   37.2435   16.9313  C     
47   C        23.5058   35.8689   16.8606  C     
48   H        34.6378   30.8202   18.4425  H     
49   H        31.3374   30.8897   21.0458  H     
50   H        32.2495   29.0480   22.2610  H     
51   H        35.6730   23.4245   20.9989  H     
52   H        33.4952   22.9255   20.1999  H     
53   H        31.7753   24.6234   20.1767  H     
54   H        32.2537   26.8312   20.9624  H     
55   H        36.1536   27.7781   19.7874  H     
56   H        35.9940   28.7869   18.3772  H     
57   H        37.1464   30.6741   19.6775  H     
58   H        38.1419   29.2210   19.4744  H     
59   H        37.3495   29.5355   21.0276  H     
60   H        31.7465   32.8056   19.5812  H     
61   H        33.2411   32.8659   18.6874  H     
62   H        32.0410   30.9190   17.1878  H     
63   H        29.6196   32.3459   17.6911  H     
64   H        27.9891   31.5156   19.3742  H     
65   H        27.9692   29.7420   19.4209  H     
66   H        27.7302   30.5879   17.8806  H     
67   H        29.9565   33.6275   16.6048  H     
68   H        31.9546   35.1083   15.1857  H     
69   H        30.8598   34.1695   14.1584  H     
70   H        29.7518   36.0581   16.2913  H     
71   H        30.3177   36.6883   14.7633  H     
72   H        27.7022   35.7444   15.3942  H     
73   H        28.2768   36.3767   13.8729  H     
74   H        28.8253   34.1644   13.0251  H     
75   H        28.4772   33.3856   14.5734  H     
76   H        26.3502   33.4349   15.3791  H     
77   H        24.1870   33.8308   13.4333  H     
78   H        24.4815   32.2446   14.1557  H     
79   H        22.8104   33.1681   15.5387  H     
80   H        24.2966   33.3949   16.4484  H     
81   H        23.0064   35.4243   13.5629  H     
82   H        22.5055   37.7812   13.6898  H     
83   H        22.6246   38.9429   15.8203  H     
84   H        23.2723   37.7325   17.8265  H     
85   H        23.7698   35.3761   17.7167  H     
@<TRIPOS>BOND
     1    1    2 2
     2    1    5 1
     3    1    6 1
     4    2    3 1
     5    2   21 1
     6    3   23 2
     7    4    5 2
     8    4   23 1
     9    6    7 am
    10    6   12 1
    11    7    8 2
    12    7    9 1
    13    9   10 2
    14    9   11 1
    15   12   16 2
    16   12   17 1
    17   13   14 1
    18   13   17 2
    19   14   15 2
    20   15   16 1
    21   17   18 1
    22   18   19 2
    23   18   20 1
    24   21   22 1
    25   23   24 1
    26   24   25 1
    27   25   26 1
    28   25   30 1
    29   26   27 am
    30   27   28 1
    31   27   29 2
    32   30   31 2
    33   30   32 am
    34   32   33 1
    35   33   34 1
    36   34   35 1
    37   35   36 1
    38   36   37 1
    39   37   38 2
    40   37   39 am
    41   39   40 1
    42   40   41 1
    43   41   42 1
    44   42   43 2
    45   42   47 1
    46   43   44 1
    47   44   45 2
    48   45   46 1
    49   46   47 2
    50    3   48 1
    51    4   49 1
    52    5   50 1
    53   13   51 1
    54   14   52 1
    55   15   53 1
    56   16   54 1
    57   21   55 1
    58   21   56 1
    59   22   57 1
    60   22   58 1
    61   22   59 1
    62   24   60 1
    63   24   61 1
    64   25   62 1
    65   26   63 1
    66   28   64 1
    67   28   65 1
    68   28   66 1
    69   32   67 1
    70   33   68 1
    71   33   69 1
    72   34   70 1
    73   34   71 1
    74   35   72 1
    75   35   73 1
    76   36   74 1
    77   36   75 1
    78   39   76 1
    79   40   77 1
    80   40   78 1
    81   41   79 1
    82   41   80 1
    83   43   81 1
    84   44   82 1
    85   45   83 1
    86   46   84 1
    87   47   85 1
@<TRIPOS>PROPERTY_DATA
  Total_Score	| 18.0372
  Crash		| -3.5866
  Polar		| 15.0732
  FragIndex	| 1
  FragRMSD	| 0.195

