@<TRIPOS>MOLECULE
BindingDB_15818
 87 88 0 0 0
SMALL
NO_CHARGES


@<TRIPOS>ATOM
1    C        34.0841   28.8582   21.2270  C     
2    C        34.6792   29.4073   20.0469  C     
3    C        34.0715   30.5357   19.4285  C     
4    C        32.3235   30.5671   21.0919  C     
5    C        32.8946   29.4545   21.7167  C     
6    N        34.5927   27.7732   21.9476  N     
7    C        34.9850   27.9554   23.2341  C     
8    O        35.0398   27.0180   24.0243  O     
9    C        35.3596   29.1828   23.7684  C     
10   O        36.4751   29.8079   23.3273  O     
11   O        34.6002   29.8239   24.6922  O     
12   C        34.3612   26.4797   21.4601  C     
13   C        34.9952   24.1489   20.9991  C     
14   C        33.7024   23.8695   20.5358  C     
15   C        32.7316   24.8764   20.5342  C     
16   C        33.0545   26.1566   21.0052  C     
17   C        35.3560   25.4446   21.4543  C     
18   C        36.7032   25.6417   21.8841  C     
19   O        37.6400   24.6797   21.7373  O     
20   O        37.1772   26.8277   22.3243  O     
21   C        35.9338   28.8884   19.4336  C     
22   C        37.1800   29.7090   19.8406  C     
23   C        32.8956   31.1268   19.9331  C     
24   C        32.3175   32.3587   19.2996  C     
25   C        31.0799   32.1609   18.3646  C     
26   N        31.4998   31.4770   17.1666  N     
27   C        31.8905   32.0176   16.0152  C     
28   C        32.2703   31.1257   14.9369  C     
29   O        31.9458   33.2321   15.8474  O     
30   C        29.9326   31.4556   18.9359  C     
31   O        29.9991   31.0076   20.0776  O     
32   N        28.8002   31.3767   18.2416  N     
33   C        27.5928   30.6306   18.5063  C     
34   C        27.3303   30.1555   19.9682  C     
35   C        27.1257   31.3307   20.9816  C     
36   C        25.6631   31.5566   21.4676  C     
37   C        25.0732   30.4807   22.2516  C     
38   O        25.6970   29.4564   22.5103  O     
39   N        23.8479   30.6466   22.7280  N     
40   C        23.1022   29.7107   23.5220  C     
41   C        22.7769   28.4944   22.7480  C     
42   O        22.4983   28.5488   21.4283  O     
43   O        22.7640   27.2831   23.3460  O     
44   C        21.8337   30.3623   24.1451  C     
45   C        20.9562   31.2536   23.2114  C     
46   S        21.4285   33.0094   23.2425  S     
47   C        20.3373   33.6504   24.5397  C     
48   C        20.7240   33.2421   25.9765  C     
49   H        34.5115   30.9496   18.5989  H     
50   H        31.5097   30.9931   21.5405  H     
51   H        32.4478   29.0874   22.5632  H     
52   H        35.6750   23.3859   20.9765  H     
53   H        33.4709   22.9323   20.1967  H     
54   H        31.7894   24.6785   20.1972  H     
55   H        32.3114   26.8595   21.0282  H     
56   H        36.1048   27.8483   19.6990  H     
57   H        35.8360   28.9132   18.3430  H     
58   H        37.0702   30.7567   19.5528  H     
59   H        38.0646   29.3069   19.3483  H     
60   H        37.3293   29.6565   20.9224  H     
61   H        32.0551   33.0721   20.0892  H     
62   H        33.0992   32.8451   18.7085  H     
63   H        30.7101   33.1711   18.1144  H     
64   H        31.4960   30.5042   17.2039  H     
65   H        33.0912   30.4839   15.2678  H     
66   H        32.6004   31.6853   14.0562  H     
67   H        31.4137   30.5038   14.6565  H     
68   H        28.7943   31.8539   17.3900  H     
69   H        26.7413   31.2168   18.1558  H     
70   H        27.6508   29.7352   17.8822  H     
71   H        26.4606   29.4827   19.9861  H     
72   H        28.2071   29.5633   20.2593  H     
73   H        27.7580   31.1474   21.8612  H     
74   H        27.4670   32.2710   20.5403  H     
75   H        25.6637   32.4577   22.0945  H     
76   H        25.0236   31.7554   20.6015  H     
77   H        23.4195   31.4944   22.5288  H     
78   H        23.7294   29.4107   24.3729  H     
79   H        21.1973   29.5656   24.5440  H     
80   H        22.1452   30.9559   25.0081  H     
81   H        21.0467   30.8999   22.1834  H     
82   H        19.9022   31.1496   23.4876  H     
83   H        20.3766   34.7388   24.4702  H     
84   H        19.3116   33.3395   24.3316  H     
85   H        20.5458   32.1771   26.1401  H     
86   H        20.1152   33.8007   26.6882  H     
87   H        21.7744   33.4678   26.1703  H     
@<TRIPOS>BOND
     1    1    2 2
     2    1    5 1
     3    1    6 1
     4    2    3 1
     5    2   21 1
     6    3   23 2
     7    4    5 2
     8    4   23 1
     9    6    7 am
    10    6   12 1
    11    7    8 2
    12    7    9 1
    13    9   10 2
    14    9   11 1
    15   12   16 2
    16   12   17 1
    17   13   14 1
    18   13   17 2
    19   14   15 2
    20   15   16 1
    21   17   18 1
    22   18   19 2
    23   18   20 1
    24   21   22 1
    25   23   24 1
    26   24   25 1
    27   25   26 1
    28   25   30 1
    29   26   27 am
    30   27   28 1
    31   27   29 2
    32   30   31 2
    33   30   32 am
    34   32   33 1
    35   33   34 1
    36   34   35 1
    37   35   36 1
    38   36   37 1
    39   37   38 2
    40   37   39 am
    41   39   40 1
    42   40   41 1
    43   40   44 1
    44   41   42 2
    45   41   43 1
    46   44   45 1
    47   45   46 1
    48   46   47 1
    49   47   48 1
    50    3   49 1
    51    4   50 1
    52    5   51 1
    53   13   52 1
    54   14   53 1
    55   15   54 1
    56   16   55 1
    57   21   56 1
    58   21   57 1
    59   22   58 1
    60   22   59 1
    61   22   60 1
    62   24   61 1
    63   24   62 1
    64   25   63 1
    65   26   64 1
    66   28   65 1
    67   28   66 1
    68   28   67 1
    69   32   68 1
    70   33   69 1
    71   33   70 1
    72   34   71 1
    73   34   72 1
    74   35   73 1
    75   35   74 1
    76   36   75 1
    77   36   76 1
    78   39   77 1
    79   40   78 1
    80   44   79 1
    81   44   80 1
    82   45   81 1
    83   45   82 1
    84   47   83 1
    85   47   84 1
    86   48   85 1
    87   48   86 1
    88   48   87 1
@<TRIPOS>PROPERTY_DATA
  Total_Score	| 18.5376
  Crash		| -3.7216
  Polar		| 16.3121
  FragIndex	| 1
  FragRMSD	| 1.184

