@<TRIPOS>MOLECULE
BindingDB_13971
 68 69 0 0 0
SMALL
NO_CHARGES


@<TRIPOS>ATOM
1    C        34.9138   27.9724   23.2556  C     
2    O        34.8865   27.0507   24.0661  O     
3    C        35.2743   29.1978   23.8012  C     
4    O        36.4147   29.8077   23.4118  O     
5    O        34.5576   29.8059   24.7738  O     
6    C        34.3977   26.4687   21.4917  C     
7    C        34.9648   24.1251   21.0421  C     
8    C        33.6651   23.8792   20.5789  C     
9    C        32.7169   24.9127   20.5748  C     
10   C        33.0783   26.1865   21.0336  C     
11   C        35.3594   25.4076   21.5013  C     
12   C        36.7206   25.5699   21.9129  C     
13   O        37.2449   26.7501   22.3224  O     
14   O        37.6326   24.5780   21.7931  O     
15   N        34.6678   27.7602   21.9436  N     
16   C        34.3260   28.8086   21.0811  C     
17   C        32.6287   30.5134   20.4552  C     
18   C        33.1143   29.5174   21.3313  C     
19   C        33.3245   30.8092   19.2652  C     
20   C        32.8199   31.8422   18.3220  C     
21   C        31.2622   32.0285   18.1621  C     
22   N        30.9374   32.9725   17.1391  N     
23   C        30.4664   30.8112   18.0777  C     
24   O        30.9368   29.6944   18.3123  O     
25   N        29.1524   30.9994   17.9031  N     
26   C        28.0881   30.0774   18.1938  C     
27   C        27.0002   30.8056   19.0478  C     
28   C        27.5018   31.4569   20.3637  C     
29   C        27.1783   30.6297   21.6473  C     
30   C        26.6811   31.5109   22.8147  C     
31   C        30.6315   33.9672   14.9987  C     
32   C        31.1566   32.9270   15.8344  C     
33   O        31.7840   32.0055   15.3273  O     
34   C        34.5298   30.1179   19.0171  C     
35   C        35.0529   29.1347   19.8912  C     
36   C        36.3888   28.5650   19.5535  C     
37   C        37.5627   29.4124   20.1032  C     
38   H        35.6226   23.3433   21.0173  H     
39   H        33.4070   22.9566   20.2383  H     
40   H        31.7678   24.7424   20.2317  H     
41   H        32.3633   26.9182   21.0270  H     
42   H        31.7837   31.0153   20.7131  H     
43   H        32.5662   29.2899   22.1620  H     
44   H        33.2171   32.8000   18.6761  H     
45   H        33.2481   31.6785   17.3198  H     
46   H        30.9529   32.4872   19.1097  H     
47   H        30.4137   33.7272   17.4454  H     
48   H        28.8659   31.8839   17.5944  H     
49   H        27.6300   29.7551   17.2426  H     
50   H        28.4515   29.1786   18.7300  H     
51   H        26.5911   31.5967   18.4186  H     
52   H        26.1813   30.1143   19.2540  H     
53   H        28.5817   31.6474   20.2816  H     
54   H        27.0099   32.4303   20.4557  H     
55   H        26.3998   29.9022   21.4133  H     
56   H        28.0786   30.1000   21.9612  H     
57   H        27.4490   32.2253   23.1240  H     
58   H        26.4316   30.8847   23.6756  H     
59   H        25.7818   32.0628   22.5295  H     
60   H        29.5676   34.0888   15.1832  H     
61   H        30.7606   33.7612   13.9384  H     
62   H        31.1168   34.9150   15.2173  H     
63   H        35.0507   30.3443   18.1681  H     
64   H        36.4792   27.5457   19.9365  H     
65   H        36.5050   28.4610   18.4828  H     
66   H        37.5490   30.4072   19.6564  H     
67   H        38.5134   28.9308   19.8602  H     
68   H        37.4921   29.5111   21.1930  H     
@<TRIPOS>BOND
     1    1    2 2
     2    1    3 1
     3    1   15 am
     4    3    4 2
     5    3    5 1
     6    6   10 2
     7    6   11 1
     8    6   15 1
     9    7    8 1
    10    7   11 2
    11    8    9 2
    12    9   10 1
    13   11   12 1
    14   12   13 1
    15   12   14 2
    16   15   16 1
    17   16   18 1
    18   16   35 2
    19   17   18 2
    20   17   19 1
    21   19   20 1
    22   19   34 2
    23   20   21 1
    24   21   22 1
    25   21   23 1
    26   22   32 am
    27   23   24 2
    28   23   25 am
    29   25   26 1
    30   26   27 1
    31   27   28 1
    32   28   29 1
    33   29   30 1
    34   31   32 1
    35   32   33 2
    36   34   35 1
    37   35   36 1
    38   36   37 1
    39    7   38 1
    40    8   39 1
    41    9   40 1
    42   10   41 1
    43   17   42 1
    44   18   43 1
    45   20   44 1
    46   20   45 1
    47   21   46 1
    48   22   47 1
    49   25   48 1
    50   26   49 1
    51   26   50 1
    52   27   51 1
    53   27   52 1
    54   28   53 1
    55   28   54 1
    56   29   55 1
    57   29   56 1
    58   30   57 1
    59   30   58 1
    60   30   59 1
    61   31   60 1
    62   31   61 1
    63   31   62 1
    64   34   63 1
    65   36   64 1
    66   36   65 1
    67   37   66 1
    68   37   67 1
    69   37   68 1
@<TRIPOS>PROPERTY_DATA
  Total_Score	| 15.8310
  Crash		| -2.3898
  Polar		| 13.1206
  FragIndex	| 1
  FragRMSD	| 0.690

