@<TRIPOS>MOLECULE
BindingDB_15811
 89 91 0 0 0
SMALL
NO_CHARGES


@<TRIPOS>ATOM
1    C        34.1977   28.8187   21.1196  C     
2    C        34.9608   29.1664   19.9656  C     
3    C        34.4295   30.1249   19.0662  C     
4    C        32.4905   30.4709   20.4674  C     
5    C        32.9833   29.5073   21.3630  C     
6    N        34.5362   27.7746   21.9835  N     
7    C        34.8364   28.0136   23.2864  C     
8    O        35.0260   27.0758   24.0635  O     
9    C        35.2106   29.2638   23.7516  C     
10   O        34.5239   29.8755   24.7518  O     
11   O        36.4251   29.7718   23.4380  O     
12   C        34.3022   26.4733   21.5373  C     
13   C        34.9715   24.1826   20.9522  C     
14   C        33.6850   23.9084   20.4797  C     
15   C        32.6900   24.8896   20.5569  C     
16   C        32.9969   26.1546   21.0781  C     
17   C        35.3157   25.4570   21.4823  C     
18   C        36.6698   25.6538   21.8861  C     
19   O        37.5682   24.6449   21.8120  O     
20   O        37.1347   26.7989   22.4611  O     
21   C        36.2768   28.5660   19.6189  C     
22   C        37.4998   29.4038   20.0541  C     
23   C        33.1921   30.7698   19.2793  C     
24   C        32.7088   31.7112   18.2246  C     
25   C        31.2346   32.2250   18.1865  C     
26   N        30.8600   33.0887   17.0991  N     
27   C        31.5421   33.5549   16.0615  C     
28   C        30.8896   34.4842   15.1693  C     
29   O        32.7052   33.2452   15.8339  O     
30   C        30.2522   31.1444   18.1995  C     
31   O        30.4254   30.1549   17.4966  O     
32   N        29.1834   31.2304   18.9845  N     
33   C        28.1544   30.2512   19.1290  C     
34   C        27.4392   30.3858   20.4941  C     
35   C        26.6335   31.7055   20.6505  C     
36   C        26.0282   31.9578   22.0611  C     
37   C        25.2544   30.8420   22.5759  C     
38   O        25.8595   29.8192   22.8852  O     
39   N        23.9296   30.9101   22.6286  N     
40   C        23.0335   29.8695   23.0498  C     
41   C        22.1347   30.3451   24.2339  C     
42   C        21.1845   31.4616   23.9563  C     
43   C        19.7991   31.2031   23.7996  C     
44   C        18.8996   32.2475   23.5146  C     
45   C        19.3714   33.5650   23.3817  C     
46   C        20.7422   33.8368   23.5292  C     
47   C        21.6422   32.7937   23.8174  C     
48   C        22.2959   29.3669   21.8948  C     
49   O        22.3350   28.1805   21.6081  O     
50   N        21.5714   30.1475   21.1176  N     
51   H        34.9494   30.3465   18.2122  H     
52   H        31.6119   30.9292   20.7010  H     
53   H        32.4229   29.2863   22.1992  H     
54   H        35.6664   23.4360   20.8869  H     
55   H        33.4676   22.9951   20.0879  H     
56   H        31.7470   24.6939   20.2209  H     
57   H        32.2525   26.8562   21.1127  H     
58   H        36.3992   27.6027   20.0900  H     
59   H        36.3199   28.3939   18.5413  H     
60   H        37.4627   30.4092   19.6307  H     
61   H        38.4189   28.9212   19.7122  H     
62   H        37.5315   29.4708   21.1432  H     
63   H        33.3467   32.5887   18.3101  H     
64   H        32.8999   31.2500   17.2497  H     
65   H        31.1094   32.8416   19.0801  H     
66   H        29.9368   33.3693   17.1318  H     
67   H        29.9657   34.0409   14.7774  H     
68   H        31.5355   34.7461   14.3211  H     
69   H        30.6479   35.4052   15.7145  H     
70   H        29.1095   32.0233   19.5343  H     
71   H        27.4271   30.3707   18.3236  H     
72   H        28.5897   29.2503   19.0619  H     
73   H        26.7526   29.5393   20.5886  H     
74   H        28.1785   30.3075   21.2967  H     
75   H        27.2848   32.5547   20.4261  H     
76   H        25.8222   31.7137   19.9177  H     
77   H        26.8308   32.2021   22.7681  H     
78   H        25.3939   32.8498   21.9996  H     
79   H        23.5245   31.7379   22.3214  H     
80   H        23.6122   29.0314   23.4592  H     
81   H        21.5712   29.4750   24.5868  H     
82   H        22.7702   30.6412   25.0729  H     
83   H        19.4370   30.2483   23.8746  H     
84   H        17.9059   32.0450   23.4016  H     
85   H        18.7176   34.3208   23.1757  H     
86   H        21.0880   34.7947   23.4267  H     
87   H        22.6380   33.0107   23.9222  H     
88   H        21.0953   29.7780   20.3544  H     
89   H        21.5116   31.0993   21.2980  H     
@<TRIPOS>BOND
     1    1    2 2
     2    1    5 1
     3    1    6 1
     4    2    3 1
     5    2   21 1
     6    3   23 2
     7    4    5 2
     8    4   23 1
     9    6    7 am
    10    6   12 1
    11    7    8 2
    12    7    9 1
    13    9   10 2
    14    9   11 1
    15   12   16 2
    16   12   17 1
    17   13   14 1
    18   13   17 2
    19   14   15 2
    20   15   16 1
    21   17   18 1
    22   18   19 2
    23   18   20 1
    24   21   22 1
    25   23   24 1
    26   24   25 1
    27   25   26 1
    28   25   30 1
    29   26   27 am
    30   27   28 1
    31   27   29 2
    32   30   31 2
    33   30   32 am
    34   32   33 1
    35   33   34 1
    36   34   35 1
    37   35   36 1
    38   36   37 1
    39   37   38 2
    40   37   39 am
    41   39   40 1
    42   40   41 1
    43   40   48 1
    44   41   42 1
    45   42   43 2
    46   42   47 1
    47   43   44 1
    48   44   45 2
    49   45   46 1
    50   46   47 2
    51   48   49 2
    52   48   50 am
    53    3   51 1
    54    4   52 1
    55    5   53 1
    56   13   54 1
    57   14   55 1
    58   15   56 1
    59   16   57 1
    60   21   58 1
    61   21   59 1
    62   22   60 1
    63   22   61 1
    64   22   62 1
    65   24   63 1
    66   24   64 1
    67   25   65 1
    68   26   66 1
    69   28   67 1
    70   28   68 1
    71   28   69 1
    72   32   70 1
    73   33   71 1
    74   33   72 1
    75   34   73 1
    76   34   74 1
    77   35   75 1
    78   35   76 1
    79   36   77 1
    80   36   78 1
    81   39   79 1
    82   40   80 1
    83   41   81 1
    84   41   82 1
    85   43   83 1
    86   44   84 1
    87   45   85 1
    88   46   86 1
    89   47   87 1
    90   50   88 1
    91   50   89 1
@<TRIPOS>PROPERTY_DATA
  Total_Score	| 19.1390
  Crash		| -2.3955
  Polar		| 16.2170
  FragIndex	| 1
  FragRMSD	| 0.888

