@<TRIPOS>MOLECULE
BindingDB_15820
 86 87 0 0 0
SMALL
NO_CHARGES


@<TRIPOS>ATOM
1    C        34.0144   28.8454   21.1952  C     
2    C        34.6132   29.3778   20.0115  C     
3    C        33.9966   30.4888   19.3801  C     
4    C        32.2201   30.5131   21.0308  C     
5    C        32.8126   29.4204   21.6703  C     
6    N        34.5216   27.7709   21.9303  N     
7    C        34.8933   27.9611   23.2184  C     
8    O        34.9565   27.0286   24.0157  O     
9    C        35.2581   29.1926   23.7422  C     
10   O        36.4054   29.7883   23.3392  O     
11   O        34.5187   29.8201   24.6835  O     
12   C        34.3029   26.4830   21.4365  C     
13   C        34.9733   24.1687   20.9409  C     
14   C        33.6708   23.8621   20.5262  C     
15   C        32.6798   24.8469   20.5652  C     
16   C        32.9920   26.1311   21.0189  C     
17   C        35.3249   25.4712   21.3942  C     
18   C        36.6860   25.6947   21.7805  C     
19   O        37.2174   26.9247   21.9819  O     
20   O        37.5744   24.6761   21.8670  O     
21   C        35.8766   28.8511   19.4134  C     
22   C        37.1309   29.6442   19.8568  C     
23   C        32.8126   31.0752   19.8840  C     
24   C        32.2405   32.3244   19.3017  C     
25   C        31.3640   32.1763   18.0231  C     
26   N        32.1540   31.6844   16.9284  N     
27   C        32.5266   32.3507   15.8420  C     
28   C        33.3998   31.7019   14.8947  C     
29   O        32.1985   33.5183   15.6423  O     
30   C        30.1713   31.3609   18.2481  C     
31   O        30.1368   30.2020   17.8557  O     
32   N        29.1721   31.8691   18.9561  N     
33   C        27.9764   31.2161   19.3896  C     
34   C        28.0630   30.7262   20.8631  C     
35   C        26.9532   31.2645   21.8082  C     
36   C        25.5036   30.8713   21.3991  C     
37   C        24.8360   30.0477   22.3915  C     
38   O        25.3567   28.9740   22.6905  O     
39   N        23.6496   30.3712   22.8959  N     
40   C        22.8395   29.5109   23.7129  C     
41   C        22.4638   28.2870   22.9643  C     
42   O        22.6050   27.0653   23.5263  O     
43   O        22.2497   28.3183   21.6333  O     
44   C        21.5962   30.2578   24.2823  C     
45   C        20.7907   31.1179   23.2621  C     
46   C        20.4283   33.2119   25.3355  C     
47   S        20.8422   32.8918   23.6129  S     
48   O        22.3022   33.4504   23.3001  O     
49   O        19.8035   33.6385   22.6612  O     
50   H        34.4315   30.9006   18.5516  H     
51   H        31.3724   30.9213   21.4378  H     
52   H        32.3644   29.0608   22.5144  H     
53   H        35.6685   23.4235   20.8967  H     
54   H        33.4454   22.9154   20.2028  H     
55   H        31.7203   24.6263   20.2699  H     
56   H        32.2260   26.8133   21.0599  H     
57   H        36.0304   27.8037   19.6729  H     
58   H        35.8192   28.8789   18.3193  H     
59   H        37.0267   30.7015   19.6048  H     
60   H        38.0105   29.2497   19.3361  H     
61   H        37.2917   29.5460   20.9313  H     
62   H        31.6457   32.8416   20.0649  H     
63   H        33.0654   33.0013   19.0604  H     
64   H        31.0233   33.1934   17.7856  H     
65   H        32.4985   30.7797   17.0078  H     
66   H        34.3343   31.4198   15.3908  H     
67   H        33.6396   32.3422   14.0453  H     
68   H        32.9203   30.7934   14.5170  H     
69   H        29.2645   32.7981   19.2223  H     
70   H        27.1696   31.9494   19.3099  H     
71   H        27.7429   30.3888   18.7181  H     
72   H        28.0519   29.6318   20.8790  H     
73   H        29.0159   31.0420   21.2835  H     
74   H        27.1836   30.8863   22.8081  H     
75   H        27.0243   32.3555   21.8671  H     
76   H        24.9320   31.7901   21.2116  H     
77   H        25.5252   30.3138   20.4585  H     
78   H        23.2829   31.2307   22.6505  H     
79   H        23.4378   29.2142   24.5852  H     
80   H        20.9191   29.5165   24.7233  H     
81   H        21.9426   30.8768   25.1125  H     
82   H        21.1590   30.9757   22.2388  H     
83   H        19.7427   30.8115   23.2705  H     
84   H        19.4237   32.8459   25.5380  H     
85   H        20.4739   34.2811   25.5245  H     
86   H        21.1344   32.7028   25.9914  H     
@<TRIPOS>BOND
     1    1    2 2
     2    1    5 1
     3    1    6 1
     4    2    3 1
     5    2   21 1
     6    3   23 2
     7    4    5 2
     8    4   23 1
     9    6    7 am
    10    6   12 1
    11    7    8 2
    12    7    9 1
    13    9   10 2
    14    9   11 1
    15   12   16 2
    16   12   17 1
    17   13   14 1
    18   13   17 2
    19   14   15 2
    20   15   16 1
    21   17   18 1
    22   18   19 2
    23   18   20 1
    24   21   22 1
    25   23   24 1
    26   24   25 1
    27   25   26 1
    28   25   30 1
    29   26   27 am
    30   27   28 1
    31   27   29 2
    32   30   31 2
    33   30   32 am
    34   32   33 1
    35   33   34 1
    36   34   35 1
    37   35   36 1
    38   36   37 1
    39   37   38 2
    40   37   39 am
    41   39   40 1
    42   40   41 1
    43   40   44 1
    44   41   42 2
    45   41   43 1
    46   44   45 1
    47   45   47 1
    48   46   47 1
    49   47   48 2
    50   47   49 2
    51    3   50 1
    52    4   51 1
    53    5   52 1
    54   13   53 1
    55   14   54 1
    56   15   55 1
    57   16   56 1
    58   21   57 1
    59   21   58 1
    60   22   59 1
    61   22   60 1
    62   22   61 1
    63   24   62 1
    64   24   63 1
    65   25   64 1
    66   26   65 1
    67   28   66 1
    68   28   67 1
    69   28   68 1
    70   32   69 1
    71   33   70 1
    72   33   71 1
    73   34   72 1
    74   34   73 1
    75   35   74 1
    76   35   75 1
    77   36   76 1
    78   36   77 1
    79   39   78 1
    80   40   79 1
    81   44   80 1
    82   44   81 1
    83   45   82 1
    84   45   83 1
    85   46   84 1
    86   46   85 1
    87   46   86 1
@<TRIPOS>PROPERTY_DATA
  Total_Score	| 19.3611
  Crash		| -3.1531
  Polar		| 16.6105
  FragIndex	| 1
  FragRMSD	| 1.138

