@<TRIPOS>MOLECULE
BindingDB_15817
 86 87 0 0 0
SMALL
NO_CHARGES


@<TRIPOS>ATOM
1    C        34.2485   28.7787   21.1117  C     
2    C        34.9780   29.0701   19.9271  C     
3    C        34.4237   29.9923   19.0027  C     
4    C        32.5944   30.4975   20.4941  C     
5    C        33.0783   29.5300   21.3857  C     
6    N        34.5907   27.7385   21.9904  N     
7    C        34.8653   27.9863   23.2895  C     
8    O        34.8268   27.0897   24.1272  O     
9    C        35.2748   29.2248   23.7727  C     
10   O        34.5182   29.9111   24.6642  O     
11   O        36.4082   29.8015   23.3104  O     
12   C        34.3349   26.4336   21.5609  C     
13   C        34.9056   24.0802   21.1466  C     
14   C        33.6257   23.8416   20.6254  C     
15   C        32.6888   24.8799   20.5807  C     
16   C        33.0364   26.1501   21.0590  C     
17   C        35.2961   25.3647   21.6075  C     
18   C        36.6473   25.5160   22.0537  C     
19   O        37.5965   24.5924   21.7701  O     
20   O        37.1416   26.6377   22.6209  O     
21   C        36.2993   28.4755   19.5674  C     
22   C        37.4958   29.3481   20.0106  C     
23   C        33.2089   30.6755   19.2353  C     
24   C        32.6952   31.5079   18.1034  C     
25   C        31.4473   32.4158   18.3001  C     
26   N        30.9906   33.1851   17.1678  N     
27   C        31.5982   33.5667   16.0538  C     
28   C        30.8349   34.3483   15.1043  C     
29   O        32.7692   33.2991   15.7999  O     
30   C        30.3065   31.6697   18.8412  C     
31   O        30.1826   31.5910   20.0530  O     
32   N        29.3244   31.2084   18.0625  N     
33   C        28.1348   30.5618   18.5460  C     
34   C        27.3948   31.3181   19.7030  C     
35   C        27.4563   30.5863   21.0822  C     
36   C        26.5554   31.2476   22.1684  C     
37   C        25.3132   30.5356   22.4308  C     
38   O        25.3579   29.4585   23.0148  O     
39   N        24.1498   31.0784   22.0916  N     
40   C        22.8389   30.5280   22.3163  C     
41   C        22.6090   29.3899   21.3979  C     
42   O        22.4946   29.5871   20.0651  O     
43   O        22.4787   28.1239   21.8579  O     
44   C        21.7513   31.6270   22.1174  C     
45   C        21.6326   32.6113   23.3129  C     
46   C        20.3290   33.4486   23.2761  C     
47   C        20.5085   34.8751   23.8566  C     
48   H        34.9296   30.1504   18.1232  H     
49   H        31.7692   31.0469   20.7690  H     
50   H        32.5556   29.3552   22.2394  H     
51   H        35.5530   23.2870   21.1671  H     
52   H        33.3812   22.9096   20.2745  H     
53   H        31.7525   24.7047   20.2042  H     
54   H        32.3243   26.8775   21.0257  H     
55   H        36.4350   27.5000   20.0209  H     
56   H        36.3490   28.3129   18.4881  H     
57   H        37.4579   30.3297   19.5308  H     
58   H        38.4350   28.8656   19.7297  H     
59   H        37.4871   29.4875   21.0987  H     
60   H        33.5174   32.1567   17.7851  H     
61   H        32.4612   30.8257   17.2735  H     
62   H        31.7448   33.1768   19.0336  H     
63   H        30.0727   33.4774   17.2289  H     
64   H        29.9412   33.7910   14.8027  H     
65   H        31.4022   34.5883   14.2013  H     
66   H        30.5161   35.2881   15.5675  H     
67   H        29.4005   31.3265   17.1063  H     
68   H        27.4456   30.4630   17.7014  H     
69   H        28.3967   29.5456   18.8475  H     
70   H        27.8285   32.3114   19.8257  H     
71   H        26.3435   31.4561   19.4404  H     
72   H        27.1484   29.5435   20.9368  H     
73   H        28.4876   30.5824   21.4561  H     
74   H        27.1182   31.3005   23.1046  H     
75   H        26.3411   32.2763   21.8616  H     
76   H        24.1846   31.9505   21.6774  H     
77   H        22.7648   30.1680   23.3485  H     
78   H        21.9720   32.1954   21.2081  H     
79   H        20.7771   31.1437   21.9798  H     
80   H        21.6633   32.0433   24.2488  H     
81   H        22.4868   33.2964   23.3060  H     
82   H        19.9813   33.5387   22.2432  H     
83   H        19.5465   32.9427   23.8552  H     
84   H        20.7577   34.8234   24.9177  H     
85   H        19.5831   35.4422   23.7405  H     
86   H        21.3079   35.4026   23.3257  H     
@<TRIPOS>BOND
     1    1    2 2
     2    1    5 1
     3    1    6 1
     4    2    3 1
     5    2   21 1
     6    3   23 2
     7    4    5 2
     8    4   23 1
     9    6    7 am
    10    6   12 1
    11    7    8 2
    12    7    9 1
    13    9   10 2
    14    9   11 1
    15   12   16 2
    16   12   17 1
    17   13   14 1
    18   13   17 2
    19   14   15 2
    20   15   16 1
    21   17   18 1
    22   18   19 2
    23   18   20 1
    24   21   22 1
    25   23   24 1
    26   24   25 1
    27   25   26 1
    28   25   30 1
    29   26   27 am
    30   27   28 1
    31   27   29 2
    32   30   31 2
    33   30   32 am
    34   32   33 1
    35   33   34 1
    36   34   35 1
    37   35   36 1
    38   36   37 1
    39   37   38 2
    40   37   39 am
    41   39   40 1
    42   40   41 1
    43   40   44 1
    44   41   42 2
    45   41   43 1
    46   44   45 1
    47   45   46 1
    48   46   47 1
    49    3   48 1
    50    4   49 1
    51    5   50 1
    52   13   51 1
    53   14   52 1
    54   15   53 1
    55   16   54 1
    56   21   55 1
    57   21   56 1
    58   22   57 1
    59   22   58 1
    60   22   59 1
    61   24   60 1
    62   24   61 1
    63   25   62 1
    64   26   63 1
    65   28   64 1
    66   28   65 1
    67   28   66 1
    68   32   67 1
    69   33   68 1
    70   33   69 1
    71   34   70 1
    72   34   71 1
    73   35   72 1
    74   35   73 1
    75   36   74 1
    76   36   75 1
    77   39   76 1
    78   40   77 1
    79   44   78 1
    80   44   79 1
    81   45   80 1
    82   45   81 1
    83   46   82 1
    84   46   83 1
    85   47   84 1
    86   47   85 1
    87   47   86 1
@<TRIPOS>PROPERTY_DATA
  Total_Score	| 19.9748
  Crash		| -3.2394
  Polar		| 17.3791
  FragIndex	| 1
  FragRMSD	| 1.063

