@<TRIPOS>MOLECULE
BindingDB_15816
 89 90 0 0 0
SMALL
NO_CHARGES


@<TRIPOS>ATOM
1    C        34.3114   28.7927   21.0328  C     
2    C        35.1060   29.1562   19.9027  C     
3    C        34.6036   30.1315   19.0043  C     
4    C        32.6066   30.4284   20.3405  C     
5    C        33.0843   29.4750   21.2524  C     
6    N        34.6342   27.7654   21.9189  N     
7    C        34.8366   28.0346   23.2265  C     
8    O        34.8686   27.1225   24.0495  O     
9    C        35.1905   29.2840   23.7066  C     
10   O        34.4850   29.8973   24.6887  O     
11   O        36.4045   29.7889   23.3962  O     
12   C        34.3724   26.4561   21.5022  C     
13   C        34.9607   24.1163   21.0731  C     
14   C        33.6607   23.8527   20.6123  C     
15   C        32.7006   24.8664   20.6094  C     
16   C        33.0561   26.1475   21.0566  C     
17   C        35.3452   25.4012   21.5366  C     
18   C        36.6860   25.5533   21.9887  C     
19   O        37.0879   26.5593   22.7909  O     
20   O        37.6265   24.6243   21.7153  O     
21   C        36.4370   28.5634   19.5965  C     
22   C        37.6103   29.4163   20.1416  C     
23   C        33.3413   30.7447   19.1761  C     
24   C        32.8598   31.6640   18.0952  C     
25   C        31.4262   32.2726   18.1680  C     
26   N        31.1534   33.3619   17.2694  N     
27   C        31.5762   33.5928   16.0342  C     
28   C        31.0507   34.7538   15.3527  C     
29   O        32.3673   32.8543   15.4600  O     
30   C        30.3714   31.2740   18.0331  C     
31   O        30.4759   30.4005   17.1812  O     
32   N        29.3149   31.3324   18.8300  N     
33   C        28.1855   30.4502   18.8050  C     
34   C        27.6189   30.2470   20.2348  C     
35   C        26.9042   31.5013   20.8138  C     
36   C        26.4454   31.3237   22.2866  C     
37   C        25.2610   30.4982   22.4637  C     
38   O        25.3667   29.4314   23.0696  O     
39   N        24.0773   30.9654   22.0805  N     
40   C        22.7895   30.4390   22.4360  C     
41   C        22.4038   29.3957   21.4670  C     
42   O        22.4210   28.0859   21.8170  O     
43   O        22.1091   29.7054   20.1859  O     
44   C        21.7858   31.6309   22.5191  C     
45   C        20.4953   31.3223   23.3362  C     
46   C        20.0892   32.4241   24.3581  C     
47   C        21.1027   32.6915   25.5038  C     
48   N        21.3602   31.4951   26.3156  N     
49   H        35.1665   30.3838   18.1750  H     
50   H        31.7106   30.8785   20.5332  H     
51   H        32.5008   29.2396   22.0545  H     
52   H        35.6147   23.3315   21.0747  H     
53   H        33.4133   22.9161   20.2804  H     
54   H        31.7516   24.6780   20.2846  H     
55   H        32.3273   26.8663   21.0536  H     
56   H        36.5359   27.5641   20.0179  H     
57   H        36.5400   28.4569   18.5098  H     
58   H        37.5296   30.4549   19.8106  H     
59   H        38.5571   29.0099   19.7800  H     
60   H        37.6133   29.3948   21.2325  H     
61   H        33.5694   32.4918   18.0545  H     
62   H        32.9374   31.1191   17.1497  H     
63   H        31.3534   32.7444   19.1519  H     
64   H        30.4923   33.9877   17.5984  H     
65   H        29.9681   34.6418   15.2167  H     
66   H        31.5115   34.8785   14.3675  H     
67   H        31.2592   35.6546   15.9386  H     
68   H        29.2979   32.0437   19.4933  H     
69   H        27.4075   30.8598   18.1566  H     
70   H        28.4975   29.4768   18.4127  H     
71   H        26.9035   29.4169   20.2149  H     
72   H        28.4436   29.9494   20.8897  H     
73   H        27.5879   32.3541   20.7974  H     
74   H        26.0445   31.7581   20.1831  H     
75   H        27.2846   30.9196   22.8673  H     
76   H        26.2289   32.3110   22.7010  H     
77   H        24.0775   31.7996   21.5864  H     
78   H        22.8291   29.9799   23.4310  H     
79   H        22.3154   32.4632   22.9926  H     
80   H        21.5023   31.9435   21.5076  H     
81   H        19.6679   31.1943   22.6256  H     
82   H        20.5958   30.3688   23.8707  H     
83   H        19.9222   33.3647   23.8223  H     
84   H        19.1388   32.1356   24.8124  H     
85   H        22.0534   33.0480   25.1097  H     
86   H        20.7015   33.4633   26.1641  H     
87   H        20.4943   31.2103   26.7831  H     
88   H        22.0745   31.6988   27.0208  H     
89   H        21.6963   30.7294   25.7242  H     
@<TRIPOS>BOND
     1    1    2 2
     2    1    5 1
     3    1    6 1
     4    2    3 1
     5    2   21 1
     6    3   23 2
     7    4    5 2
     8    4   23 1
     9    6    7 am
    10    6   12 1
    11    7    8 2
    12    7    9 1
    13    9   10 2
    14    9   11 1
    15   12   16 2
    16   12   17 1
    17   13   14 1
    18   13   17 2
    19   14   15 2
    20   15   16 1
    21   17   18 1
    22   18   19 2
    23   18   20 1
    24   21   22 1
    25   23   24 1
    26   24   25 1
    27   25   26 1
    28   25   30 1
    29   26   27 am
    30   27   28 1
    31   27   29 2
    32   30   31 2
    33   30   32 am
    34   32   33 1
    35   33   34 1
    36   34   35 1
    37   35   36 1
    38   36   37 1
    39   37   38 2
    40   37   39 am
    41   39   40 1
    42   40   41 1
    43   40   44 1
    44   41   42 2
    45   41   43 1
    46   44   45 1
    47   45   46 1
    48   46   47 1
    49   47   48 1
    50    3   49 1
    51    4   50 1
    52    5   51 1
    53   13   52 1
    54   14   53 1
    55   15   54 1
    56   16   55 1
    57   21   56 1
    58   21   57 1
    59   22   58 1
    60   22   59 1
    61   22   60 1
    62   24   61 1
    63   24   62 1
    64   25   63 1
    65   26   64 1
    66   28   65 1
    67   28   66 1
    68   28   67 1
    69   32   68 1
    70   33   69 1
    71   33   70 1
    72   34   71 1
    73   34   72 1
    74   35   73 1
    75   35   74 1
    76   36   75 1
    77   36   76 1
    78   39   77 1
    79   40   78 1
    80   44   79 1
    81   44   80 1
    82   45   81 1
    83   45   82 1
    84   46   83 1
    85   46   84 1
    86   47   85 1
    87   47   86 1
    88   48   87 1
    89   48   88 1
    90   48   89 1
@<TRIPOS>PROPERTY_DATA
  Total_Score	| 20.9951
  Crash		| -2.5924
  Polar		| 18.2514
  FragIndex	| 1
  FragRMSD	| 0.973

