@<TRIPOS>MOLECULE
BindingDB_15809
 67 68 0 0 0
SMALL
NO_CHARGES


@<TRIPOS>ATOM
1    C        33.9693   28.8450   21.1862  C     
2    C        34.6135   29.3842   20.0286  C     
3    C        34.0279   30.5072   19.3836  C     
4    C        32.1712   30.5114   20.9382  C     
5    C        32.7439   29.4240   21.6085  C     
6    N        34.4582   27.7724   21.9314  N     
7    C        34.8440   27.9609   23.2134  C     
8    O        34.8956   27.0222   24.0011  O     
9    C        35.2277   29.1868   23.7309  C     
10   O        34.4954   29.8425   24.6570  O     
11   O        36.4078   29.7296   23.3677  O     
12   C        34.2577   26.4862   21.4247  C     
13   C        34.9650   24.1971   20.8777  C     
14   C        33.6714   23.8842   20.4345  C     
15   C        32.6596   24.8488   20.4976  C     
16   C        32.9527   26.1270   20.9908  C     
17   C        35.2883   25.4849   21.3677  C     
18   C        36.6462   25.7191   21.7513  C     
19   O        37.1899   26.9457   21.8879  O     
20   O        37.5308   24.7054   21.8758  O     
21   C        35.8833   28.8530   19.4507  C     
22   C        37.1418   29.6053   19.9406  C     
23   C        32.8179   31.0840   19.8250  C     
24   C        32.2725   32.3319   19.2022  C     
25   C        31.3472   32.1728   17.9556  C     
26   N        32.1566   31.9479   16.7846  N     
27   C        32.3509   32.7568   15.7565  C     
28   C        33.2250   32.3105   14.6918  C     
29   O        31.8318   33.8686   15.6859  O     
30   C        30.3184   31.1441   18.1337  C     
31   O        30.4209   30.0482   17.5763  O     
32   N        29.2135   31.4408   18.8116  N     
33   C        28.0827   30.5724   18.9808  C     
34   C        27.1170   31.0778   20.0793  C     
35   C        27.6521   30.8906   21.5280  C     
36   C        26.7992   31.6357   22.6038  C     
37   C        25.5152   30.9593   22.9026  C     
38   O        25.4656   29.6104   23.0173  O     
39   O        24.3626   31.6743   23.0353  O     
40   H        34.5016   30.9352   18.5820  H     
41   H        31.2978   30.9055   21.3018  H     
42   H        32.2603   29.0509   22.4258  H     
43   H        35.6688   23.4595   20.8171  H     
44   H        33.4640   22.9489   20.0806  H     
45   H        31.7126   24.6153   20.1843  H     
46   H        32.1830   26.7934   21.0486  H     
47   H        36.0092   27.7989   19.6802  H     
48   H        35.8366   28.9135   18.3595  H     
49   H        37.0791   30.6683   19.7101  H     
50   H        38.0228   29.1983   19.4399  H     
51   H        37.2693   29.4860   21.0133  H     
52   H        31.7344   32.9231   19.9514  H     
53   H        33.1277   32.9446   18.9134  H     
54   H        30.8014   33.1228   17.8452  H     
55   H        32.6058   31.0872   16.7413  H     
56   H        34.2123   32.0889   15.1008  H     
57   H        33.3323   33.0758   13.9159  H     
58   H        32.8136   31.4057   14.2410  H     
59   H        29.1592   32.3304   19.2125  H     
60   H        27.5291   30.5248   18.0385  H     
61   H        28.4306   29.5641   19.2215  H     
62   H        26.9022   32.1401   19.9173  H     
63   H        26.1722   30.5313   19.9768  H     
64   H        27.6764   29.8228   21.7766  H     
65   H        28.6796   31.2629   21.5877  H     
66   H        27.3627   31.6887   23.5403  H     
67   H        26.6044   32.6611   22.2683  H     
@<TRIPOS>BOND
     1    1    2 2
     2    1    5 1
     3    1    6 1
     4    2    3 1
     5    2   21 1
     6    3   23 2
     7    4    5 2
     8    4   23 1
     9    6    7 am
    10    6   12 1
    11    7    8 2
    12    7    9 1
    13    9   10 2
    14    9   11 1
    15   12   16 2
    16   12   17 1
    17   13   14 1
    18   13   17 2
    19   14   15 2
    20   15   16 1
    21   17   18 1
    22   18   19 2
    23   18   20 1
    24   21   22 1
    25   23   24 1
    26   24   25 1
    27   25   26 1
    28   25   30 1
    29   26   27 am
    30   27   28 1
    31   27   29 2
    32   30   31 2
    33   30   32 am
    34   32   33 1
    35   33   34 1
    36   34   35 1
    37   35   36 1
    38   36   37 1
    39   37   38 2
    40   37   39 1
    41    3   40 1
    42    4   41 1
    43    5   42 1
    44   13   43 1
    45   14   44 1
    46   15   45 1
    47   16   46 1
    48   21   47 1
    49   21   48 1
    50   22   49 1
    51   22   50 1
    52   22   51 1
    53   24   52 1
    54   24   53 1
    55   25   54 1
    56   26   55 1
    57   28   56 1
    58   28   57 1
    59   28   58 1
    60   32   59 1
    61   33   60 1
    62   33   61 1
    63   34   62 1
    64   34   63 1
    65   35   64 1
    66   35   65 1
    67   36   66 1
    68   36   67 1
@<TRIPOS>PROPERTY_DATA
  Total_Score	| 15.6382
  Crash		| -2.2040
  Polar		| 12.2235
  FragIndex	| 1
  FragRMSD	| 0.878

