@<TRIPOS>MOLECULE
BindingDB_15822
 84 85 0 0 0
SMALL
NO_CHARGES


@<TRIPOS>ATOM
1    C        34.1439   28.8528   21.1490  C     
2    C        34.8172   29.3685   19.9983  C     
3    C        34.2640   30.4917   19.3302  C     
4    C        32.4065   30.5788   20.8809  C     
5    C        32.9299   29.4683   21.5556  C     
6    N        34.5799   27.7681   21.9150  N     
7    C        34.9041   27.9558   23.2176  C     
8    O        34.9283   27.0213   24.0191  O     
9    C        35.2648   29.1781   23.7579  C     
10   O        36.3904   29.7897   23.3238  O     
11   O        34.4863   29.8289   24.6590  O     
12   C        34.3489   26.4810   21.4290  C     
13   C        34.9971   24.1591   20.9769  C     
14   C        33.6839   23.8495   20.5972  C     
15   C        32.6983   24.8400   20.6213  C     
16   C        33.0277   26.1390   21.0343  C     
17   C        35.3632   25.4659   21.3982  C     
18   C        36.7258   25.6784   21.7764  C     
19   O        37.5945   24.6440   21.8701  O     
20   O        37.2677   26.8968   22.0040  O     
21   C        36.0914   28.8218   19.4490  C     
22   C        37.3381   29.6384   19.8706  C     
23   C        33.0631   31.1006   19.7506  C     
24   C        32.4867   32.2596   19.0119  C     
25   C        31.7217   31.8965   17.7023  C     
26   N        32.5604   31.3148   16.6893  N     
27   C        33.2081   31.9538   15.7237  C     
28   C        33.9322   31.1799   14.7423  C     
29   O        33.1654   33.1768   15.6123  O     
30   C        30.5883   31.0202   17.9767  C     
31   O        30.7491   29.8060   17.9428  O     
32   N        29.4444   31.5460   18.3840  N     
33   C        28.2626   30.8398   18.7873  C     
34   C        27.8534   31.2735   20.2145  C     
35   C        26.6539   30.4625   20.7715  C     
36   C        26.2551   30.8937   22.2045  C     
37   C        25.0689   30.1991   22.6654  C     
38   O        25.2102   29.1678   23.3132  O     
39   N        23.8617   30.6764   22.3837  N     
40   C        22.5959   30.2038   22.8692  C     
41   C        22.4753   28.7303   22.7643  C     
42   O        22.8104   27.8860   23.7735  O     
43   C        22.3331   30.7904   24.2905  C     
44   C        20.8688   30.7577   24.8132  C     
45   C        20.6992   33.3427   25.7229  C     
46   S        19.9160   32.2673   24.4847  S     
47   O        22.2548   28.1701   21.5605  O     
48   H        34.7415   30.8755   18.5105  H     
49   H        31.5344   30.9917   21.2221  H     
50   H        32.4277   29.1160   22.3773  H     
51   H        35.6883   23.4043   20.9435  H     
52   H        33.4499   22.8969   20.3075  H     
53   H        31.7388   24.6156   20.3559  H     
54   H        32.2773   26.8317   21.0714  H     
55   H        36.2391   27.7905   19.7525  H     
56   H        36.0340   28.8081   18.3565  H     
57   H        37.2242   30.6975   19.6268  H     
58   H        38.2213   29.2602   19.3505  H     
59   H        37.5012   29.5398   20.9442  H     
60   H        31.8009   32.8157   19.6601  H     
61   H        33.2924   32.9504   18.7736  H     
62   H        31.3312   32.8350   17.2893  H     
63   H        32.6173   30.3449   16.6675  H     
64   H        34.7237   30.6038   15.2329  H     
65   H        34.3898   31.8212   13.9803  H     
66   H        33.2477   30.4881   14.2408  H     
67   H        29.4136   32.5126   18.4503  H     
68   H        27.4649   31.0916   18.0839  H     
69   H        28.3953   29.7543   18.7588  H     
70   H        28.7072   31.1405   20.8867  H     
71   H        27.6008   32.3377   20.1961  H     
72   H        25.7941   30.5982   20.1137  H     
73   H        26.9176   29.4022   20.7719  H     
74   H        27.0814   30.6970   22.8964  H     
75   H        26.0802   31.9747   22.2147  H     
76   H        23.8268   31.4680   21.8306  H     
77   H        21.8290   30.6258   22.2083  H     
78   H        22.9526   30.2553   25.0127  H     
79   H        22.6755   31.8288   24.2800  H     
80   H        20.3261   29.9316   24.3557  H     
81   H        20.8711   30.5742   25.8972  H     
82   H        20.4797   32.9877   26.7398  H     
83   H        20.3114   34.3605   25.6055  H     
84   H        21.7880   33.3541   25.5949  H     
@<TRIPOS>BOND
     1    1    2 2
     2    1    5 1
     3    1    6 1
     4    2    3 1
     5    2   21 1
     6    3   23 2
     7    4    5 2
     8    4   23 1
     9    6    7 am
    10    6   12 1
    11    7    8 2
    12    7    9 1
    13    9   10 2
    14    9   11 1
    15   12   16 2
    16   12   17 1
    17   13   14 1
    18   13   17 2
    19   14   15 2
    20   15   16 1
    21   17   18 1
    22   18   19 2
    23   18   20 1
    24   21   22 1
    25   23   24 1
    26   24   25 1
    27   25   26 1
    28   25   30 1
    29   26   27 am
    30   27   28 1
    31   27   29 2
    32   30   31 2
    33   30   32 am
    34   32   33 1
    35   33   34 1
    36   34   35 1
    37   35   36 1
    38   36   37 1
    39   37   38 2
    40   37   39 am
    41   39   40 1
    42   40   41 1
    43   40   43 1
    44   41   42 2
    45   41   47 1
    46   43   44 1
    47   44   46 1
    48   45   46 1
    49    3   48 1
    50    4   49 1
    51    5   50 1
    52   13   51 1
    53   14   52 1
    54   15   53 1
    55   16   54 1
    56   21   55 1
    57   21   56 1
    58   22   57 1
    59   22   58 1
    60   22   59 1
    61   24   60 1
    62   24   61 1
    63   25   62 1
    64   26   63 1
    65   28   64 1
    66   28   65 1
    67   28   66 1
    68   32   67 1
    69   33   68 1
    70   33   69 1
    71   34   70 1
    72   34   71 1
    73   35   72 1
    74   35   73 1
    75   36   74 1
    76   36   75 1
    77   39   76 1
    78   40   77 1
    79   43   78 1
    80   43   79 1
    81   44   80 1
    82   44   81 1
    83   45   82 1
    84   45   83 1
    85   45   84 1
@<TRIPOS>PROPERTY_DATA
  Total_Score	| 18.6405
  Crash		| -2.7690
  Polar		| 16.0751
  FragIndex	| 1
  FragRMSD	| 1.036

