@<TRIPOS>MOLECULE
BindingDB_15813
 90 92 0 0 0
SMALL
NO_CHARGES


@<TRIPOS>ATOM
1    C        34.2806   28.7661   21.1061  C     
2    C        35.0183   29.1112   19.9362  C     
3    C        34.4971   30.1035   19.0681  C     
4    C        32.5720   30.4413   20.4980  C     
5    C        33.0761   29.4649   21.3764  C     
6    N        34.6333   27.7352   21.9754  N     
7    C        34.8860   27.9918   23.2784  C     
8    O        34.8823   27.0872   24.1076  O     
9    C        35.2409   29.2354   23.7749  C     
10   O        34.4847   29.9006   24.6797  O     
11   O        36.4031   29.8117   23.4107  O     
12   C        34.3836   26.4292   21.5383  C     
13   C        34.9867   24.1035   21.0385  C     
14   C        33.6879   23.8435   20.5807  C     
15   C        32.7254   24.8557   20.6101  C     
16   C        33.0667   26.1234   21.0955  C     
17   C        35.3678   25.3844   21.5223  C     
18   C        36.7242   25.5506   21.9438  C     
19   O        37.2476   26.7114   22.3986  O     
20   O        37.6349   24.5578   21.8114  O     
21   C        36.3343   28.5168   19.5665  C     
22   C        37.5321   29.4159   19.9569  C     
23   C        33.2740   30.7696   19.3210  C     
24   C        32.8111   31.7723   18.3189  C     
25   C        31.3504   32.3130   18.4025  C     
26   N        30.8795   33.0580   17.2595  N     
27   C        31.4968   33.4722   16.1588  C     
28   C        30.7235   34.2385   15.1968  C     
29   O        32.6866   33.2681   15.9493  O     
30   C        30.3543   31.2816   18.6724  C     
31   O        30.6278   30.1059   18.4568  O     
32   N        29.1753   31.6154   19.1868  N     
33   C        28.1691   30.7134   19.6556  C     
34   C        27.5545   31.2061   20.9838  C     
35   C        26.2351   30.4767   21.3398  C     
36   C        25.7192   30.8043   22.7696  C     
37   C        24.7639   29.8295   23.2686  C     
38   O        25.1345   28.6633   23.3848  O     
39   N        23.5150   30.1721   23.5821  N     
40   C        22.4846   29.2903   24.0727  C     
41   C        22.3588   28.1531   23.1342  C     
42   O        22.4724   26.8825   23.5873  O     
43   O        22.1064   28.3434   21.8191  O     
44   C        21.0835   29.9624   24.3661  C     
45   C        21.3597   32.5878   24.3153  C     
46   C        21.0644   32.6387   25.8359  C     
47   C        21.4745   31.3215   26.5378  C     
48   C        20.7585   30.1131   25.8881  C     
49   C        20.7859   31.3139   23.6266  C     
50   H        35.0186   30.3445   18.2200  H     
51   H        31.6870   30.8941   20.7262  H     
52   H        32.5331   29.2379   22.2138  H     
53   H        35.6565   23.3301   21.0006  H     
54   H        33.4491   22.9158   20.2259  H     
55   H        31.7761   24.6721   20.2772  H     
56   H        32.3309   26.8285   21.1194  H     
57   H        36.4801   27.5560   20.0495  H     
58   H        36.3686   28.3239   18.4887  H     
59   H        37.4355   30.4197   19.5310  H     
60   H        38.4653   28.9771   19.5926  H     
61   H        37.5971   29.4981   21.0410  H     
62   H        33.4869   32.6272   18.3991  H     
63   H        32.9371   31.3537   17.3122  H     
64   H        31.3446   33.0226   19.2306  H     
65   H        29.9427   33.2939   17.3002  H     
66   H        29.8775   33.6462   14.8363  H     
67   H        31.3288   34.5338   14.3364  H     
68   H        30.3449   35.1464   15.6745  H     
69   H        29.0200   32.5582   19.3412  H     
70   H        27.3876   30.6168   18.8948  H     
71   H        28.6018   29.7172   19.8270  H     
72   H        28.2778   31.0269   21.7859  H     
73   H        27.3671   32.2825   20.9271  H     
74   H        25.4617   30.7478   20.6158  H     
75   H        26.4065   29.3989   21.2513  H     
76   H        26.5631   30.8325   23.4694  H     
77   H        25.2733   31.8059   22.7559  H     
78   H        23.2782   31.0998   23.4374  H     
79   H        22.8600   28.8790   25.0181  H     
80   H        20.3167   29.2644   24.0044  H     
81   H        20.9249   33.4742   23.8419  H     
82   H        22.4399   32.6461   24.1698  H     
83   H        19.9961   32.8173   25.9925  H     
84   H        21.6110   33.4730   26.2817  H     
85   H        22.5539   31.1796   26.4708  H     
86   H        21.2100   31.3786   27.5961  H     
87   H        19.6786   30.2432   26.0150  H     
88   H        21.0315   29.2033   26.4287  H     
89   H        19.6994   31.4369   23.5682  H     
90   H        21.1524   31.2616   22.5984  H     
@<TRIPOS>BOND
     1    1    2 2
     2    1    5 1
     3    1    6 1
     4    2    3 1
     5    2   21 1
     6    3   23 2
     7    4    5 2
     8    4   23 1
     9    6    7 am
    10    6   12 1
    11    7    8 2
    12    7    9 1
    13    9   10 2
    14    9   11 1
    15   12   16 2
    16   12   17 1
    17   13   14 1
    18   13   17 2
    19   14   15 2
    20   15   16 1
    21   17   18 1
    22   18   19 2
    23   18   20 1
    24   21   22 1
    25   23   24 1
    26   24   25 1
    27   25   26 1
    28   25   30 1
    29   26   27 am
    30   27   28 1
    31   27   29 2
    32   30   31 2
    33   30   32 am
    34   32   33 1
    35   33   34 1
    36   34   35 1
    37   35   36 1
    38   36   37 1
    39   37   38 2
    40   37   39 am
    41   39   40 1
    42   40   41 1
    43   40   44 1
    44   41   42 2
    45   41   43 1
    46   44   48 1
    47   44   49 1
    48   45   46 1
    49   45   49 1
    50   46   47 1
    51   47   48 1
    52    3   50 1
    53    4   51 1
    54    5   52 1
    55   13   53 1
    56   14   54 1
    57   15   55 1
    58   16   56 1
    59   21   57 1
    60   21   58 1
    61   22   59 1
    62   22   60 1
    63   22   61 1
    64   24   62 1
    65   24   63 1
    66   25   64 1
    67   26   65 1
    68   28   66 1
    69   28   67 1
    70   28   68 1
    71   32   69 1
    72   33   70 1
    73   33   71 1
    74   34   72 1
    75   34   73 1
    76   35   74 1
    77   35   75 1
    78   36   76 1
    79   36   77 1
    80   39   78 1
    81   40   79 1
    82   44   80 1
    83   45   81 1
    84   45   82 1
    85   46   83 1
    86   46   84 1
    87   47   85 1
    88   47   86 1
    89   48   87 1
    90   48   88 1
    91   49   89 1
    92   49   90 1
@<TRIPOS>PROPERTY_DATA
  Total_Score	| 22.7303
  Crash		| -3.7711
  Polar		| 18.5757
  FragIndex	| 1
  FragRMSD	| 0.791

