@<TRIPOS>MOLECULE
BindingDB_15812
 87 89 0 0 0
SMALL
NO_CHARGES


@<TRIPOS>ATOM
1    C        34.3600   28.7315   21.0804  C     
2    C        35.1406   29.0923   19.9456  C     
3    C        34.6582   30.1092   19.0812  C     
4    C        32.6724   30.4065   20.4239  C     
5    C        33.1364   29.4031   21.3088  C     
6    N        34.6850   27.6960   21.9713  N     
7    C        34.8953   27.9621   23.2758  C     
8    O        34.8316   27.0629   24.1274  O     
9    C        35.2427   29.2050   23.7809  C     
10   O        34.4925   29.8462   24.7110  O     
11   O        36.3783   29.8144   23.3654  O     
12   C        34.4274   26.3869   21.5514  C     
13   C        34.9882   24.0256   21.1738  C     
14   C        33.6921   23.7695   20.7245  C     
15   C        32.7441   24.8002   20.6949  C     
16   C        33.1067   26.0825   21.1235  C     
17   C        35.3981   25.3329   21.5816  C     
18   C        36.7547   25.4933   21.9940  C     
19   O        37.2986   26.6637   22.4043  O     
20   O        37.6659   24.5254   21.7586  O     
21   C        36.4580   28.4772   19.6099  C     
22   C        37.6709   29.3092   20.0811  C     
23   C        33.4100   30.7536   19.2922  C     
24   C        32.9777   31.8079   18.3061  C     
25   C        31.5034   32.3234   18.3157  C     
26   N        31.2202   33.3562   17.3401  N     
27   C        31.6888   33.5888   16.1401  C     
28   C        31.1587   34.6851   15.3710  C     
29   O        32.6604   32.9749   15.6539  O     
30   C        30.4697   31.3062   18.2153  C     
31   O        30.6671   30.2816   17.5786  O     
32   N        29.2570   31.5593   18.7206  N     
33   C        28.1359   30.6838   18.7241  C     
34   C        27.0972   31.0709   19.8061  C     
35   C        27.4760   30.6438   21.2547  C     
36   C        26.4511   31.0310   22.3577  C     
37   C        25.1623   30.3560   22.3026  C     
38   O        24.7555   30.0132   21.1800  O     
39   N        24.4276   30.1434   23.3803  N     
40   C        23.0836   29.6182   23.5122  C     
41   C        21.9349   30.6679   23.2913  C     
42   C        22.1975   31.7427   22.2973  C     
43   C        22.1251   31.4876   20.9036  C     
44   C        22.4414   32.4927   19.9744  C     
45   C        22.8185   33.7748   20.4187  C     
46   C        22.8728   34.0492   21.7969  C     
47   C        22.5631   33.0372   22.7265  C     
48   C        22.8633   28.3314   22.7966  C     
49   O        22.7935   27.1660   23.4812  O     
50   O        22.5402   28.2811   21.4838  O     
51   H        35.2238   30.3920   18.2794  H     
52   H        31.7842   30.8517   20.6626  H     
53   H        32.5497   29.1816   22.1187  H     
54   H        35.6388   23.2343   21.2057  H     
55   H        33.4272   22.8255   20.4297  H     
56   H        31.7914   24.6164   20.3778  H     
57   H        32.3813   26.8022   21.1314  H     
58   H        36.5526   27.4882   20.0455  H     
59   H        36.5215   28.3200   18.5313  H     
60   H        37.6538   30.3040   19.6319  H     
61   H        38.5984   28.8134   19.7855  H     
62   H        37.6616   29.4083   21.1681  H     
63   H        33.6250   32.6708   18.4639  H     
64   H        33.1902   31.4199   17.3151  H     
65   H        31.3810   32.8535   19.2583  H     
66   H        30.4511   33.9047   17.5888  H     
67   H        30.1148   34.4771   15.1288  H     
68   H        31.7136   34.8386   14.4378  H     
69   H        31.2144   35.5992   15.9661  H     
70   H        29.1375   32.4284   19.1289  H     
71   H        27.6516   30.7280   17.7447  H     
72   H        28.4708   29.6481   18.8927  H     
73   H        26.9438   32.1554   19.7773  H     
74   H        26.1489   30.5976   19.5377  H     
75   H        27.6390   29.5605   21.2804  H     
76   H        28.4308   31.1214   21.5137  H     
77   H        26.9191   30.8329   23.3284  H     
78   H        26.2792   32.1090   22.3112  H     
79   H        24.8310   30.4241   24.2213  H     
80   H        23.0143   29.3569   24.5743  H     
81   H        21.0052   30.1528   23.0218  H     
82   H        21.7225   31.1434   24.2559  H     
83   H        21.8551   30.5637   20.5624  H     
84   H        22.4068   32.2939   18.9706  H     
85   H        23.0581   34.5020   19.7432  H     
86   H        23.1468   34.9792   22.1224  H     
87   H        22.6215   33.2514   23.7261  H     
@<TRIPOS>BOND
     1    1    2 2
     2    1    5 1
     3    1    6 1
     4    2    3 1
     5    2   21 1
     6    3   23 2
     7    4    5 2
     8    4   23 1
     9    6    7 am
    10    6   12 1
    11    7    8 2
    12    7    9 1
    13    9   10 2
    14    9   11 1
    15   12   16 2
    16   12   17 1
    17   13   14 1
    18   13   17 2
    19   14   15 2
    20   15   16 1
    21   17   18 1
    22   18   19 2
    23   18   20 1
    24   21   22 1
    25   23   24 1
    26   24   25 1
    27   25   26 1
    28   25   30 1
    29   26   27 am
    30   27   28 1
    31   27   29 2
    32   30   31 2
    33   30   32 am
    34   32   33 1
    35   33   34 1
    36   34   35 1
    37   35   36 1
    38   36   37 1
    39   37   38 2
    40   37   39 am
    41   39   40 1
    42   40   41 1
    43   40   48 1
    44   41   42 1
    45   42   43 2
    46   42   47 1
    47   43   44 1
    48   44   45 2
    49   45   46 1
    50   46   47 2
    51   48   49 2
    52   48   50 1
    53    3   51 1
    54    4   52 1
    55    5   53 1
    56   13   54 1
    57   14   55 1
    58   15   56 1
    59   16   57 1
    60   21   58 1
    61   21   59 1
    62   22   60 1
    63   22   61 1
    64   22   62 1
    65   24   63 1
    66   24   64 1
    67   25   65 1
    68   26   66 1
    69   28   67 1
    70   28   68 1
    71   28   69 1
    72   32   70 1
    73   33   71 1
    74   33   72 1
    75   34   73 1
    76   34   74 1
    77   35   75 1
    78   35   76 1
    79   36   77 1
    80   36   78 1
    81   39   79 1
    82   40   80 1
    83   41   81 1
    84   41   82 1
    85   43   83 1
    86   44   84 1
    87   45   85 1
    88   46   86 1
    89   47   87 1
@<TRIPOS>PROPERTY_DATA
  Total_Score	| 19.4611
  Crash		| -3.1608
  Polar		| 16.7442
  FragIndex	| 1
  FragRMSD	| 1.205

