@<TRIPOS>MOLECULE
BindingDB_26768
 76 79 0 0 0
SMALL
NO_CHARGES


@<TRIPOS>ATOM
1    C        30.9605    0.0105   35.9426  C     
2    C        30.8146   -1.0004   36.9248  C     
3    C        29.9812   -2.1021   36.6292  C     
4    C        29.4864   -1.2059   34.4388  C     
5    C        30.2483   -0.0418   34.7129  C     
6    C        29.3103   -2.2055   35.3983  C     
7    O        28.4743   -3.2479   35.1408  O     
8    C        27.0658   -2.9221   35.1202  C     
9    C        26.4805   -2.9770   33.6912  C     
10   C        30.8571   -1.1619   39.3251  C     
11   C        31.7274   -1.0173   40.4611  C     
12   C        33.1121   -0.7969   39.8225  C     
13   C        32.8191   -0.5793   38.3208  C     
14   N        31.4336   -0.9104   38.1560  N     
15   O        29.6651   -1.4174   39.4930  O     
16   C        30.2659    1.0124   33.7938  C     
17   O        31.1095    1.9240   33.8160  O     
18   N        29.2455    1.1602   32.9401  N     
19   C        29.1308    2.0910   31.8575  C     
20   C        28.5366    1.3768   30.5866  C     
21   C        29.0723    0.0008   30.3757  C     
22   C        28.7464   -2.4341   30.3793  C     
23   C        28.2208   -1.1285   30.4638  C     
24   C        30.4555   -0.2133   30.1697  C     
25   C        30.9787   -1.5131   30.0905  C     
26   C        30.1270   -2.6239   30.2086  C     
27   C        28.2838    3.3168   32.3253  C     
28   C        28.8491    4.0071   33.5978  C     
29   O        28.2447    4.2670   31.2546  O     
30   N        27.9987    5.1801   33.9521  N     
31   C        28.6577    6.3362   34.5909  C     
32   C        29.7001    6.9710   33.7326  C     
33   C        29.3721    7.4947   32.4605  C     
34   C        31.0387    7.0813   34.1794  C     
35   C        32.0083    7.7025   33.3880  C     
36   C        31.6652    8.2318   32.1325  C     
37   C        30.3431    8.1302   31.6365  C     
38   C        29.9525    8.6471   30.2933  C     
39   F        30.9667    9.2843   29.6120  F     
40   F        29.5345    7.6078   29.4985  F     
41   F        28.9232    9.5506   30.4030  F     
42   H        31.5409    0.8195   36.1528  H     
43   H        29.8486   -2.8464   37.3193  H     
44   H        29.0227   -1.3180   33.5306  H     
45   H        26.5622   -3.6861   35.7125  H     
46   H        26.8288   -1.9482   35.5673  H     
47   H        26.9412   -2.2194   33.0558  H     
48   H        25.4003   -2.7953   33.7227  H     
49   H        26.6523   -3.9668   33.2543  H     
50   H        31.4242   -0.1477   41.0589  H     
51   H        31.7173   -1.9182   41.0892  H     
52   H        33.6179    0.0672   40.2669  H     
53   H        33.7367   -1.6876   39.9652  H     
54   H        33.0114    0.4629   38.0396  H     
55   H        33.4386   -1.2492   37.7139  H     
56   H        28.4980    0.5424   33.0382  H     
57   H        30.1215    2.4576   31.5717  H     
58   H        27.4498    1.3472   30.6849  H     
59   H        28.7557    1.9785   29.7011  H     
60   H        28.1228   -3.2344   30.4632  H     
61   H        27.2160   -1.0146   30.6021  H     
62   H        31.0922    0.5851   30.0864  H     
63   H        31.9830   -1.6521   29.9566  H     
64   H        30.5082   -3.5744   30.1535  H     
65   H        27.2572    2.9948   32.5394  H     
66   H        28.8482    3.3194   34.4442  H     
67   H        29.8902    4.2781   33.4207  H     
68   H        27.2988    4.3974   31.0628  H     
69   H        27.5439    5.5221   33.0980  H     
70   H        27.2653    4.8389   34.5855  H     
71   H        27.8857    7.0826   34.7874  H     
72   H        29.0575    6.0290   35.5620  H     
73   H        28.4130    7.4140   32.1208  H     
74   H        31.3064    6.7078   35.0930  H     
75   H        32.9756    7.7665   33.7212  H     
76   H        32.3968    8.6776   31.5783  H     
@<TRIPOS>BOND
     1    1    2 2
     2    1    5 1
     3    2    3 1
     4    2   14 1
     5    3    6 2
     6    4    5 2
     7    4    6 1
     8    5   16 1
     9    6    7 1
    10    7    8 1
    11    8    9 1
    12   10   11 1
    13   10   14 1
    14   10   15 2
    15   11   12 1
    16   12   13 1
    17   13   14 1
    18   16   17 2
    19   16   18 am
    20   18   19 1
    21   19   20 1
    22   19   27 1
    23   20   21 1
    24   21   23 2
    25   21   24 1
    26   22   23 1
    27   22   26 2
    28   24   25 2
    29   25   26 1
    30   27   28 1
    31   27   29 1
    32   28   30 1
    33   30   31 1
    34   31   32 1
    35   32   33 2
    36   32   34 1
    37   33   37 1
    38   34   35 2
    39   35   36 1
    40   36   37 2
    41   37   38 1
    42   38   39 1
    43   38   40 1
    44   38   41 1
    45    1   42 1
    46    3   43 1
    47    4   44 1
    48    8   45 1
    49    8   46 1
    50    9   47 1
    51    9   48 1
    52    9   49 1
    53   11   50 1
    54   11   51 1
    55   12   52 1
    56   12   53 1
    57   13   54 1
    58   13   55 1
    59   18   56 1
    60   19   57 1
    61   20   58 1
    62   20   59 1
    63   22   60 1
    64   23   61 1
    65   24   62 1
    66   25   63 1
    67   26   64 1
    68   27   65 1
    69   28   66 1
    70   28   67 1
    71   29   68 1
    72   30   69 1
    73   30   70 1
    74   31   71 1
    75   31   72 1
    76   33   73 1
    77   34   74 1
    78   35   75 1
    79   36   76 1
@<TRIPOS>PROPERTY_DATA
  Total_Score	| 16.3091
  Crash		| -1.1507
  Polar		| 6.6720
  FragIndex	| 1
  FragRMSD	| 0.264

