@<TRIPOS>MOLECULE
BindingDB_26775
 84 87 0 0 0
SMALL
NO_CHARGES


@<TRIPOS>ATOM
1    C        31.0417    0.0401   36.0134  C     
2    C        31.1165   -1.0287   36.9339  C     
3    C        30.4398   -2.2256   36.6118  C     
4    C        29.6360   -1.2756   34.5380  C     
5    C        30.3200   -0.0631   34.8062  C     
6    C        29.6620   -2.3629   35.4499  C     
7    C        28.1379   -4.0866   34.2898  C     
8    C        26.9581   -3.1747   33.8612  C     
9    C        30.3274    0.9665   33.8718  C     
10   O        31.3179    1.6867   33.7835  O     
11   N        29.2739    1.1777   33.0691  N     
12   C        29.1746    2.1081   31.9645  C     
13   C        28.5397    1.3653   30.7419  C     
14   C        29.0448   -0.0139   30.5065  C     
15   C        28.6720   -2.4346   30.3739  C     
16   C        28.1798   -1.1398   30.5729  C     
17   C        30.4135   -0.2438   30.1984  C     
18   C        30.9040   -1.5409   30.0161  C     
19   C        30.0381   -2.6481   30.0838  C     
20   C        28.3425    3.3550   32.3980  C     
21   C        28.9221    4.0709   33.6469  C     
22   O        28.3129    4.3292   31.3532  O     
23   N        28.0897    5.2283   34.0443  N     
24   C        28.8220    6.4142   34.5454  C     
25   C        29.7991    7.0497   33.6173  C     
26   C        29.4649    7.5345   32.3249  C     
27   C        31.1162    7.2730   34.0993  C     
28   C        32.0643    7.9271   33.2944  C     
29   C        31.7161    8.3989   32.0185  C     
30   C        30.4025    8.2055   31.5050  C     
31   C        29.9888    8.7251   30.1726  C     
32   F        30.9633    9.4351   29.5173  F     
33   F        29.6307    7.6896   29.3456  F     
34   F        28.9065    9.5639   30.3004  F     
35   C        31.8580   -0.6889   40.9593  C     
36   C        33.2561   -0.0707   40.7141  C     
37   C        33.3278    0.6755   39.3585  C     
38   C        33.1610   -0.2826   38.1526  C     
39   N        31.8509   -0.9149   38.1025  N     
40   S        31.3635   -1.6872   39.5250  S     
41   O        29.7728   -1.7948   39.5589  O     
42   O        31.9915   -3.1467   39.6232  O     
43   N        29.0154   -3.5513   35.3028  N     
44   C        28.9545   -4.6259   33.0881  C     
45   H        31.5086    0.9246   36.2376  H     
46   H        30.5181   -3.0173   37.2404  H     
47   H        29.1496   -1.3940   33.6490  H     
48   H        27.6765   -4.9627   34.7600  H     
49   H        26.5225   -2.7026   34.7487  H     
50   H        26.1694   -3.7816   33.3818  H     
51   H        27.2817   -2.4020   33.1498  H     
52   H        28.4949    0.6161   33.2079  H     
53   H        30.1659    2.4507   31.6530  H     
54   H        27.4600    1.3422   30.8850  H     
55   H        28.7270    1.9435   29.8343  H     
56   H        28.0432   -3.2357   30.4268  H     
57   H        27.1800   -1.0137   30.7778  H     
58   H        31.0602    0.5499   30.1320  H     
59   H        31.8945   -1.6914   29.8142  H     
60   H        30.3939   -3.5943   29.9567  H     
61   H        27.3141    3.0501   32.6287  H     
62   H        28.9638    3.3856   34.4992  H     
63   H        29.9447    4.3994   33.4165  H     
64   H        27.4459    4.2314   30.9198  H     
65   H        27.5127    5.5259   33.2546  H     
66   H        27.4451    4.9143   34.7767  H     
67   H        28.0729    7.1648   34.8101  H     
68   H        29.3288    6.1352   35.4821  H     
69   H        28.5139    7.4088   31.9660  H     
70   H        31.3913    6.9678   35.0377  H     
71   H        33.0036    8.0910   33.6556  H     
72   H        32.4236    8.8735   31.4586  H     
73   H        31.8712   -1.3017   41.8541  H     
74   H        31.1321    0.1050   41.1116  H     
75   H        33.4866    0.6235   41.5293  H     
76   H        34.0054   -0.8661   40.7361  H     
77   H        32.5617    1.4608   39.3277  H     
78   H        34.3056    1.1710   39.2890  H     
79   H        33.3760    0.2803   37.2442  H     
80   H        33.9179   -1.0746   38.2178  H     
81   H        29.1564   -4.1621   36.0522  H     
82   H        28.2842   -4.9911   32.3119  H     
83   H        29.5872   -5.4611   33.4045  H     
84   H        29.5997   -3.8369   32.6783  H     
@<TRIPOS>BOND
     1    1    2 2
     2    1    5 1
     3    2    3 1
     4    2   39 1
     5    3    6 2
     6    4    5 2
     7    4    6 1
     8    5    9 1
     9    6   43 1
    10    7    8 1
    11    7   43 1
    12    7   44 1
    13    9   10 2
    14    9   11 am
    15   11   12 1
    16   12   13 1
    17   12   20 1
    18   13   14 1
    19   14   16 2
    20   14   17 1
    21   15   16 1
    22   15   19 2
    23   17   18 2
    24   18   19 1
    25   20   21 1
    26   20   22 1
    27   21   23 1
    28   23   24 1
    29   24   25 1
    30   25   26 2
    31   25   27 1
    32   26   30 1
    33   27   28 2
    34   28   29 1
    35   29   30 2
    36   30   31 1
    37   31   32 1
    38   31   33 1
    39   31   34 1
    40   35   36 1
    41   35   40 1
    42   36   37 1
    43   37   38 1
    44   38   39 1
    45   39   40 1
    46   40   41 2
    47   40   42 2
    48    1   45 1
    49    3   46 1
    50    4   47 1
    51    7   48 1
    52    8   49 1
    53    8   50 1
    54    8   51 1
    55   11   52 1
    56   12   53 1
    57   13   54 1
    58   13   55 1
    59   15   56 1
    60   16   57 1
    61   17   58 1
    62   18   59 1
    63   19   60 1
    64   20   61 1
    65   21   62 1
    66   21   63 1
    67   22   64 1
    68   23   65 1
    69   23   66 1
    70   24   67 1
    71   24   68 1
    72   26   69 1
    73   27   70 1
    74   28   71 1
    75   29   72 1
    76   35   73 1
    77   35   74 1
    78   36   75 1
    79   36   76 1
    80   37   77 1
    81   37   78 1
    82   38   79 1
    83   38   80 1
    84   43   81 1
    85   44   82 1
    86   44   83 1
    87   44   84 1
@<TRIPOS>PROPERTY_DATA
  Total_Score	| 16.9010
  Crash		| -2.5609
  Polar		| 6.5261
  FragIndex	| 1
  FragRMSD	| 0.730

