@<TRIPOS>MOLECULE
BindingDB_29761
 78 82 0 0 0
SMALL
NO_CHARGES


@<TRIPOS>ATOM
1    C        30.9626    0.1545   36.0528  C     
2    C        31.0767   -0.9332   36.9537  C     
3    C        30.7289   -2.2123   36.4739  C     
4    C        30.2202   -2.3978   35.1921  C     
5    C        30.0554   -1.3058   34.3215  C     
6    C        30.4533   -0.0134   34.7360  C     
7    C        30.3680    1.0477   33.8490  C     
8    N        31.5412   -0.7595   38.2307  N     
9    O        31.3199    1.8142   33.7745  O     
10   N        29.2982    1.1988   33.0763  N     
11   C        29.1442    2.1222   31.9822  C     
12   C        28.3029    3.3597   32.4211  C     
13   C        28.5076    1.3798   30.7636  C     
14   C        29.0459    0.0061   30.5323  C     
15   C        28.6932   -2.4173   30.3578  C     
16   C        28.1820   -1.1226   30.5446  C     
17   C        30.4153   -0.2050   30.2468  C     
18   C        30.9264   -1.5023   30.0673  C     
19   C        30.0598   -2.6118   30.1041  C     
20   C        28.8553    4.0852   33.6742  C     
21   N        27.9859    5.2448   33.9986  N     
22   O        28.2793    4.3154   31.3588  O     
23   C        28.6095    6.4005   34.6810  C     
24   C        29.6745    7.0306   33.8575  C     
25   C        29.3660    7.5842   32.5918  C     
26   C        31.0135    7.0968   34.3061  C     
27   C        32.0228    7.6218   33.4823  C     
28   C        31.6998    8.1293   32.2096  C     
29   C        30.3660    8.1098   31.7337  C     
30   C        29.9971    8.6024   30.3734  C     
31   F        31.0462    9.1195   29.6462  F     
32   F        29.4713    7.5648   29.6384  F     
33   F        29.0533    9.5971   30.4788  F     
34   C        31.6028   -0.8111   40.5402  C     
35   C        32.9579   -0.2700   40.0440  C     
36   C        32.8827   -0.3651   38.5070  C     
37   C        30.8450   -0.9820   39.3352  C     
38   O        29.6749   -1.3462   39.3721  O     
39   N        30.8032   -3.4113   37.0772  N     
40   C        30.3635   -4.3181   36.1857  C     
41   N        29.9844   -3.7165   35.0336  N     
42   C        29.4031   -4.3760   33.8942  C     
43   C        27.8582   -4.2400   33.8892  C     
44   H        31.2392    1.0855   36.3705  H     
45   H        29.7070   -1.4716   33.3749  H     
46   H        28.5519    0.6017   33.2526  H     
47   H        30.1259    2.4856   31.6591  H     
48   H        27.2751    3.0398   32.6317  H     
49   H        27.4242    1.3376   30.9115  H     
50   H        28.6758    1.9710   29.8549  H     
51   H        28.0613   -3.2221   30.3780  H     
52   H        27.1804   -1.0042   30.7243  H     
53   H        31.0636    0.5910   30.2081  H     
54   H        31.9221   -1.6430   29.8797  H     
55   H        30.4245   -3.5532   29.9487  H     
56   H        28.8515    3.4120   34.5373  H     
57   H        29.8842    4.3975   33.4774  H     
58   H        27.5657    5.5944   33.1317  H     
59   H        27.2360    4.9082   34.5991  H     
60   H        27.3928    4.2308   30.9577  H     
61   H        27.8202    7.1367   34.8694  H     
62   H        29.0017    6.0786   35.6460  H     
63   H        28.3998    7.5508   32.2541  H     
64   H        31.2723    6.7071   35.2171  H     
65   H        32.9940    7.6419   33.8133  H     
66   H        32.4571    8.5056   31.6340  H     
67   H        31.7225   -1.7743   41.0472  H     
68   H        31.1178   -0.1010   41.2191  H     
69   H        33.0862    0.7736   40.3536  H     
70   H        33.7918   -0.8609   40.4383  H     
71   H        33.5799   -1.1202   38.1300  H     
72   H        33.1205    0.6017   38.0538  H     
73   H        30.3112   -5.3218   36.3703  H     
74   H        29.7885   -3.9327   32.9658  H     
75   H        29.6924   -5.4385   33.8896  H     
76   H        27.4261   -4.8001   34.7271  H     
77   H        27.4695   -4.6371   32.9437  H     
78   H        27.5695   -3.1804   33.9752  H     
@<TRIPOS>BOND
     1    1    2 1
     2    1    6 2
     3    2    3 2
     4    2    8 1
     5    3    4 1
     6    3   39 1
     7    4    5 2
     8    4   41 1
     9    5    6 1
    10    6    7 1
    11    7    9 2
    12    7   10 am
    13    8   36 1
    14    8   37 1
    15   10   11 1
    16   11   12 1
    17   11   13 1
    18   12   20 1
    19   12   22 1
    20   13   14 1
    21   14   16 1
    22   14   17 2
    23   15   16 2
    24   15   19 1
    25   17   18 1
    26   18   19 2
    27   20   21 1
    28   21   23 1
    29   23   24 1
    30   24   25 1
    31   24   26 2
    32   25   29 2
    33   26   27 1
    34   27   28 2
    35   28   29 1
    36   29   30 1
    37   30   31 1
    38   30   32 1
    39   30   33 1
    40   34   35 1
    41   34   37 1
    42   35   36 1
    43   37   38 2
    44   39   40 2
    45   40   41 1
    46   41   42 1
    47   42   43 1
    48    1   44 1
    49    5   45 1
    50   10   46 1
    51   11   47 1
    52   12   48 1
    53   13   49 1
    54   13   50 1
    55   15   51 1
    56   16   52 1
    57   17   53 1
    58   18   54 1
    59   19   55 1
    60   20   56 1
    61   20   57 1
    62   21   58 1
    63   21   59 1
    64   22   60 1
    65   23   61 1
    66   23   62 1
    67   25   63 1
    68   26   64 1
    69   27   65 1
    70   28   66 1
    71   34   67 1
    72   34   68 1
    73   35   69 1
    74   35   70 1
    75   36   71 1
    76   36   72 1
    77   40   73 1
    78   42   74 1
    79   42   75 1
    80   43   76 1
    81   43   77 1
    82   43   78 1
@<TRIPOS>PROPERTY_DATA
  Total_Score	| 17.5902
  Crash		| -1.3944
  Polar		| 7.0923
  FragIndex	| 1
  FragRMSD	| 0.181

