@<TRIPOS>MOLECULE
BindingDB_29764
 78 82 0 0 0
SMALL
NO_CHARGES


@<TRIPOS>ATOM
1    C        30.9196    0.1473   36.0061  C     
2    C        30.9969   -0.9171   36.9399  C     
3    C        30.5899   -2.1938   36.4934  C     
4    C        30.0852   -2.4021   35.2160  C     
5    C        29.9585   -1.3341   34.3129  C     
6    C        30.4024   -0.0430   34.6970  C     
7    C        30.3731    1.0019   33.7875  C     
8    N        31.4628   -0.7167   38.2184  N     
9    O        31.3275    1.7697   33.7334  O     
10   N        29.3042    1.1833   33.0214  N     
11   C        29.1513    2.1250   31.9443  C     
12   C        28.2884    3.3483   32.4123  C     
13   C        28.5375    1.3895   30.7111  C     
14   C        29.0652    0.0144   30.4879  C     
15   C        28.7188   -2.4193   30.4085  C     
16   C        28.2153   -1.1163   30.5764  C     
17   C        30.4390   -0.2050   30.1970  C     
18   C        30.9463   -1.5096   30.0415  C     
19   C        30.0850   -2.6214   30.1378  C     
20   C        28.8595    4.0736   33.6661  C     
21   N        28.0574    5.2781   34.0124  N     
22   O        28.2060    4.3276   31.3675  O     
23   C        28.8359    6.4091   34.5865  C     
24   C        29.7890    7.0877   33.6594  C     
25   C        29.4263    7.5504   32.3681  C     
26   C        31.1201    7.2850   34.0959  C     
27   C        32.0635    7.9153   33.2637  C     
28   C        31.6863    8.3785   31.9906  C     
29   C        30.3534    8.2140   31.5212  C     
30   C        29.9245    8.6834   30.1729  C     
31   F        30.8513    9.4546   29.5092  F     
32   F        29.6627    7.5990   29.3728  F     
33   F        28.7807    9.4389   30.2654  F     
34   C        31.5431   -0.7619   40.5311  C     
35   C        32.8905   -0.2130   40.0234  C     
36   C        32.7530   -0.1711   38.4872  C     
37   C        30.8039   -1.0155   39.3261  C     
38   O        29.6595   -1.4473   39.3644  O     
39   C        30.6210   -3.4312   37.0554  C     
40   N        30.1853   -4.2883   36.2112  N     
41   N        29.8356   -3.7244   35.1192  N     
42   C        29.3447   -4.4316   33.9724  C     
43   C        27.8088   -4.3328   33.8262  C     
44   H        31.2185    1.0808   36.2963  H     
45   H        29.6074   -1.5119   33.3687  H     
46   H        28.5509    0.5905   33.1907  H     
47   H        30.1266    2.5078   31.6320  H     
48   H        27.2756    3.0127   32.6434  H     
49   H        27.4518    1.3546   30.8452  H     
50   H        28.7265    1.9803   29.8118  H     
51   H        28.0925   -3.2258   30.4784  H     
52   H        27.2208   -1.0034   30.7843  H     
53   H        31.0816    0.5858   30.1181  H     
54   H        31.9401   -1.6548   29.8473  H     
55   H        30.4527   -3.5675   30.0155  H     
56   H        28.8393    3.3912   34.5210  H     
57   H        29.9044    4.3517   33.4605  H     
58   H        27.5947    5.6204   33.1631  H     
59   H        27.3502    4.9894   34.7119  H     
60   H        27.2807    4.3087   31.0521  H     
61   H        28.1042    7.1545   34.9279  H     
62   H        29.3827    6.0730   35.4829  H     
63   H        28.4588    7.4163   32.0615  H     
64   H        31.4156    6.9675   35.0248  H     
65   H        33.0244    8.0365   33.5879  H     
66   H        32.3971    8.8278   31.4048  H     
67   H        31.6779   -1.6870   41.0970  H     
68   H        31.0265   -0.0286   41.1524  H     
69   H        33.0809    0.7869   40.4250  H     
70   H        33.7115   -0.8713   40.3208  H     
71   H        33.5311   -0.7757   38.0129  H     
72   H        32.8277    0.8595   38.1261  H     
73   H        30.9630   -3.6529   37.9609  H     
74   H        29.8239   -4.0350   33.0733  H     
75   H        29.6102   -5.4896   34.0367  H     
76   H        27.3192   -4.8827   34.6346  H     
77   H        27.5038   -4.7653   32.8742  H     
78   H        27.4774   -3.2944   33.8551  H     
@<TRIPOS>BOND
     1    1    2 1
     2    1    6 2
     3    2    3 2
     4    2    8 1
     5    3    4 1
     6    3   39 1
     7    4    5 2
     8    4   41 1
     9    5    6 1
    10    6    7 1
    11    7    9 2
    12    7   10 am
    13    8   36 1
    14    8   37 1
    15   10   11 1
    16   11   12 1
    17   11   13 1
    18   12   20 1
    19   12   22 1
    20   13   14 1
    21   14   16 1
    22   14   17 2
    23   15   16 2
    24   15   19 1
    25   17   18 1
    26   18   19 2
    27   20   21 1
    28   21   23 1
    29   23   24 1
    30   24   25 1
    31   24   26 2
    32   25   29 2
    33   26   27 1
    34   27   28 2
    35   28   29 1
    36   29   30 1
    37   30   31 1
    38   30   32 1
    39   30   33 1
    40   34   35 1
    41   34   37 1
    42   35   36 1
    43   37   38 2
    44   39   40 2
    45   40   41 1
    46   41   42 1
    47   42   43 1
    48    1   44 1
    49    5   45 1
    50   10   46 1
    51   11   47 1
    52   12   48 1
    53   13   49 1
    54   13   50 1
    55   15   51 1
    56   16   52 1
    57   17   53 1
    58   18   54 1
    59   19   55 1
    60   20   56 1
    61   20   57 1
    62   21   58 1
    63   21   59 1
    64   22   60 1
    65   23   61 1
    66   23   62 1
    67   25   63 1
    68   26   64 1
    69   27   65 1
    70   28   66 1
    71   34   67 1
    72   34   68 1
    73   35   69 1
    74   35   70 1
    75   36   71 1
    76   36   72 1
    77   39   73 1
    78   42   74 1
    79   42   75 1
    80   43   76 1
    81   43   77 1
    82   43   78 1
@<TRIPOS>PROPERTY_DATA
  Total_Score	| 17.3269
  Crash		| -1.1328
  Polar		| 6.9959
  FragIndex	| 1
  FragRMSD	| 0.187

