@<TRIPOS>MOLECULE
BindingDB_29758
 81 84 0 0 0
SMALL
NO_CHARGES


@<TRIPOS>ATOM
1    C        30.8297    0.0566   36.0672  C     
2    C        30.8587   -0.9963   37.0131  C     
3    C        30.3713   -2.2713   36.6314  C     
4    C        29.8889   -2.4969   35.3192  C     
5    C        29.8473   -1.4192   34.4136  C     
6    C        30.3167   -0.1312   34.7672  C     
7    C        30.3064    0.9020   33.8439  C     
8    N        29.5199   -3.7707   35.0024  N     
9    C        29.2927   -4.3275   33.7047  C     
10   C        27.8093   -4.2425   33.2696  C     
11   N        31.4060   -0.7868   38.2586  N     
12   O        31.2835    1.6393   33.7744  O     
13   N        29.2431    1.1073   33.0710  N     
14   C        29.1223    2.0548   31.9930  C     
15   C        28.2674    3.2877   32.4370  C     
16   C        28.5276    1.3502   30.7270  C     
17   C        29.0549   -0.0234   30.4781  C     
18   C        30.9353   -1.5385   30.0359  C     
19   C        30.4301   -0.2364   30.2178  C     
20   C        28.1952   -1.1489   30.5297  C     
21   C        28.6978   -2.4482   30.3385  C     
22   C        30.0682   -2.6453   30.0927  C     
23   C        28.8492    4.0402   33.6650  C     
24   N        28.0014    5.2078   34.0119  N     
25   O        28.1862    4.2396   31.3714  O     
26   C        28.6756    6.3480   34.6786  C     
27   C        29.7041    6.9932   33.8220  C     
28   C        29.3492    7.5444   32.5659  C     
29   C        31.0500    7.0899   34.2424  C     
30   C        32.0165    7.6911   33.4198  C     
31   C        31.6484    8.2233   32.1718  C     
32   C        30.3095    8.1367   31.7125  C     
33   C        29.8883    8.6493   30.3765  C     
34   F        30.9007    9.2238   29.6436  F     
35   F        29.3865    7.6168   29.6187  F     
36   F        28.9031    9.6014   30.5109  F     
37   O        30.3061   -3.3026   37.5383  O     
38   C        31.4770   -4.1497   37.5293  C     
39   C        31.6364   -0.7681   40.5597  C     
40   C        32.9575   -0.2497   39.9563  C     
41   C        32.7321   -0.2922   38.4316  C     
42   C        30.8058   -1.0071   39.4135  C     
43   O        29.6437   -1.3754   39.5301  O     
44   H        31.1591    0.9823   36.3450  H     
45   H        29.5076   -1.5770   33.4628  H     
46   H        29.5210   -4.4211   35.7283  H     
47   H        29.9379   -3.8609   32.9554  H     
48   H        29.5721   -5.3849   33.7483  H     
49   H        27.1744   -4.7423   34.0091  H     
50   H        27.6836   -4.7463   32.3065  H     
51   H        27.4901   -3.2027   33.1655  H     
52   H        28.4683    0.5533   33.2488  H     
53   H        30.1082    2.4314   31.7025  H     
54   H        27.2537    2.9595   32.6843  H     
55   H        27.4383    1.3219   30.8226  H     
56   H        28.7484    1.9539   29.8403  H     
57   H        31.9333   -1.6834   29.8662  H     
58   H        31.0780    0.5546   30.1698  H     
59   H        27.1969   -1.0320   30.7163  H     
60   H        28.0671   -3.2502   30.3919  H     
61   H        30.4334   -3.5917   29.9595  H     
62   H        28.8848    3.3731   34.5278  H     
63   H        29.8682    4.3604   33.4295  H     
64   H        27.5706    5.5608   33.1539  H     
65   H        27.2485    4.8804   34.6233  H     
66   H        27.3868    4.0033   30.8623  H     
67   H        27.9023    7.0827   34.9206  H     
68   H        29.1070    6.0066   35.6219  H     
69   H        28.3768    7.4821   32.2556  H     
70   H        31.3437    6.7055   35.1437  H     
71   H        32.9905    7.7485   33.7280  H     
72   H        32.3701    8.6501   31.5920  H     
73   H        31.6635   -4.5775   36.5250  H     
74   H        31.3032   -4.9749   38.2366  H     
75   H        32.3585   -3.5783   37.8599  H     
76   H        31.7904   -1.6940   41.1211  H     
77   H        31.1828   -0.0194   41.2150  H     
78   H        33.1607    0.7699   40.2975  H     
79   H        33.7953   -0.8908   40.2475  H     
80   H        33.4466   -0.9701   37.9557  H     
81   H        32.8483    0.7091   38.0071  H     
@<TRIPOS>BOND
     1    1    2 1
     2    1    6 2
     3    2    3 2
     4    2   11 1
     5    3    4 1
     6    3   37 1
     7    4    5 2
     8    4    8 1
     9    5    6 1
    10    6    7 1
    11    7   12 2
    12    7   13 am
    13    8    9 1
    14    9   10 1
    15   11   41 1
    16   11   42 1
    17   13   14 1
    18   14   15 1
    19   14   16 1
    20   15   23 1
    21   15   25 1
    22   16   17 1
    23   17   19 1
    24   17   20 2
    25   18   19 2
    26   18   22 1
    27   20   21 1
    28   21   22 2
    29   23   24 1
    30   24   26 1
    31   26   27 1
    32   27   28 1
    33   27   29 2
    34   28   32 2
    35   29   30 1
    36   30   31 2
    37   31   32 1
    38   32   33 1
    39   33   34 1
    40   33   35 1
    41   33   36 1
    42   37   38 1
    43   39   40 1
    44   39   42 1
    45   40   41 1
    46   42   43 2
    47    1   44 1
    48    5   45 1
    49    8   46 1
    50    9   47 1
    51    9   48 1
    52   10   49 1
    53   10   50 1
    54   10   51 1
    55   13   52 1
    56   14   53 1
    57   15   54 1
    58   16   55 1
    59   16   56 1
    60   18   57 1
    61   19   58 1
    62   20   59 1
    63   21   60 1
    64   22   61 1
    65   23   62 1
    66   23   63 1
    67   24   64 1
    68   24   65 1
    69   25   66 1
    70   26   67 1
    71   26   68 1
    72   28   69 1
    73   29   70 1
    74   30   71 1
    75   31   72 1
    76   38   73 1
    77   38   74 1
    78   38   75 1
    79   39   76 1
    80   39   77 1
    81   40   78 1
    82   40   79 1
    83   41   80 1
    84   41   81 1
@<TRIPOS>PROPERTY_DATA
  Total_Score	| 17.5572
  Crash		| -1.2194
  Polar		| 6.8613
  FragIndex	| 1
  FragRMSD	| 0.135

