@<TRIPOS>MOLECULE
BindingDB_29768
 80 84 0 0 0
SMALL
NO_CHARGES


@<TRIPOS>ATOM
1    C        30.8937    0.0898   36.1574  C     
2    C        31.0706   -0.9612   37.0778  C     
3    C        30.7842   -2.2800   36.6631  C     
4    C        30.1919   -2.5566   35.3940  C     
5    C        29.8958   -1.4474   34.5513  C     
6    C        30.3286   -0.1374   34.8791  C     
7    C        30.2864    0.8962   33.9480  C     
8    N        31.5430   -0.7017   38.3411  N     
9    O        31.2636    1.6334   33.8568  O     
10   N        29.2417    1.0605   33.1459  N     
11   C        29.1442    1.9665   32.0280  C     
12   C        28.3186    3.2401   32.4059  C     
13   C        28.5174    1.2069   30.8150  C     
14   C        29.0776   -0.1579   30.5852  C     
15   C        30.9666   -1.6240   30.0350  C     
16   C        30.4362   -0.3346   30.2390  C     
17   C        28.2658   -1.3080   30.7276  C     
18   C        28.7960   -2.5963   30.5226  C     
19   C        30.1490   -2.7533   30.1806  C     
20   C        28.8527    4.0198   33.6363  C     
21   N        27.9677    5.1758   33.9323  N     
22   O        28.3334    4.1624   31.3115  O     
23   C        28.5865    6.3449   34.5998  C     
24   C        29.6441    7.0002   33.7799  C     
25   C        29.3329    7.5476   32.5120  C     
26   C        30.9774    7.0796   34.2387  C     
27   C        31.9700    7.6865   33.4513  C     
28   C        31.6436    8.2217   32.1927  C     
29   C        30.3197    8.1549   31.6968  C     
30   C        29.9434    8.6809   30.3523  C     
31   F        30.9734    9.2739   29.6596  F     
32   F        29.4748    7.6537   29.5692  F     
33   F        28.9521    9.6235   30.4718  F     
34   C        31.6748   -0.7645   40.6451  C     
35   C        32.9835   -0.1506   40.1109  C     
36   C        32.8660   -0.2320   38.5742  C     
37   C        30.8909   -0.9705   39.4615  C     
38   O        29.7479   -1.4081   39.5205  O     
39   N        31.1175   -3.3175   37.4741  N     
40   C        30.9244   -4.5812   37.1438  C     
41   C        30.3670   -4.8938   35.9480  C     
42   C        29.9731   -3.9333   35.0738  C     
43   C        29.2746   -4.3580   33.8541  C     
44   C        27.7487   -4.2304   34.0472  C     
45   H        31.1674    1.0383   36.4336  H     
46   H        29.3866   -1.5902   33.6660  H     
47   H        28.4783    0.4833   33.3031  H     
48   H        30.1419    2.2986   31.7195  H     
49   H        27.2815    2.9524   32.6099  H     
50   H        27.4349    1.1431   30.9691  H     
51   H        28.6705    1.7932   29.9037  H     
52   H        31.9542   -1.7398   29.7879  H     
53   H        31.0490    0.4757   30.1260  H     
54   H        27.2830   -1.2167   30.9933  H     
55   H        28.1995   -3.4198   30.6383  H     
56   H        30.5371   -3.6878   30.0331  H     
57   H        28.8700    3.3745   34.5166  H     
58   H        29.8745    4.3460   33.4248  H     
59   H        27.5487    5.5005   33.0574  H     
60   H        27.2092    4.8414   34.5340  H     
61   H        27.4883    4.0277   30.8407  H     
62   H        27.7967    7.0781   34.7785  H     
63   H        28.9643    6.0327   35.5781  H     
64   H        28.3708    7.4949   32.1697  H     
65   H        31.2360    6.6950   35.1502  H     
66   H        32.9328    7.7334   33.7927  H     
67   H        32.3873    8.6536   31.6404  H     
68   H        31.8601   -1.7209   41.1430  H     
69   H        31.1711   -0.0879   41.3398  H     
70   H        33.0766    0.8909   40.4284  H     
71   H        33.8539   -0.7060   40.4712  H     
72   H        33.5971   -0.9377   38.1680  H     
73   H        33.0252    0.7499   38.1188  H     
74   H        31.2030   -5.2947   37.7746  H     
75   H        30.2230   -5.8584   35.7506  H     
76   H        29.6062   -3.7634   33.0038  H     
77   H        29.4907   -5.3989   33.5899  H     
78   H        27.3899   -4.9656   34.7718  H     
79   H        27.2264   -4.3950   33.1002  H     
80   H        27.5216   -3.2344   34.4274  H     
@<TRIPOS>BOND
     1    1    2 1
     2    1    6 2
     3    2    3 2
     4    2    8 1
     5    3    4 1
     6    3   39 1
     7    4    5 2
     8    4   42 1
     9    5    6 1
    10    6    7 1
    11    7    9 2
    12    7   10 am
    13    8   36 1
    14    8   37 1
    15   10   11 1
    16   11   12 1
    17   11   13 1
    18   12   20 1
    19   12   22 1
    20   13   14 1
    21   14   16 1
    22   14   17 2
    23   15   16 2
    24   15   19 1
    25   17   18 1
    26   18   19 2
    27   20   21 1
    28   21   23 1
    29   23   24 1
    30   24   25 1
    31   24   26 2
    32   25   29 2
    33   26   27 1
    34   27   28 2
    35   28   29 1
    36   29   30 1
    37   30   31 1
    38   30   32 1
    39   30   33 1
    40   34   35 1
    41   34   37 1
    42   35   36 1
    43   37   38 2
    44   39   40 2
    45   40   41 1
    46   41   42 2
    47   42   43 1
    48   43   44 1
    49    1   45 1
    50    5   46 1
    51   10   47 1
    52   11   48 1
    53   12   49 1
    54   13   50 1
    55   13   51 1
    56   15   52 1
    57   16   53 1
    58   17   54 1
    59   18   55 1
    60   19   56 1
    61   20   57 1
    62   20   58 1
    63   21   59 1
    64   21   60 1
    65   22   61 1
    66   23   62 1
    67   23   63 1
    68   25   64 1
    69   26   65 1
    70   27   66 1
    71   28   67 1
    72   34   68 1
    73   34   69 1
    74   35   70 1
    75   35   71 1
    76   36   72 1
    77   36   73 1
    78   40   74 1
    79   41   75 1
    80   43   76 1
    81   43   77 1
    82   44   78 1
    83   44   79 1
    84   44   80 1
@<TRIPOS>PROPERTY_DATA
  Total_Score	| 17.6325
  Crash		| -1.4738
  Polar		| 6.9675
  FragIndex	| 1
  FragRMSD	| 0.110

