@<TRIPOS>MOLECULE
BindingDB_29767
 78 82 0 0 0
SMALL
NO_CHARGES


@<TRIPOS>ATOM
1    C        30.9357    0.1586   36.0530  C     
2    C        31.0373   -0.9225   36.9804  C     
3    C        30.6353   -2.1996   36.5311  C     
4    C        30.1394   -2.3904   35.2485  C     
5    C        30.0153   -1.3176   34.3493  C     
6    C        30.4194   -0.0184   34.7404  C     
7    C        30.3478    1.0330   33.8499  C     
8    N        31.5275   -0.7350   38.2447  N     
9    O        31.1771    1.9405   33.9045  O     
10   N        29.3714    1.0956   32.9126  N     
11   C        29.2372    2.0672   31.8797  C     
12   C        28.3105    3.2301   32.3680  C     
13   C        28.6831    1.4060   30.5572  C     
14   C        29.1362    0.0158   30.3228  C     
15   C        30.9263   -1.6257   29.9526  C     
16   C        30.5021   -0.2886   30.0858  C     
17   C        28.2007   -1.0593   30.3658  C     
18   C        28.6343   -2.3924   30.2392  C     
19   C        29.9954   -2.6722   30.0286  C     
20   C        28.8674    3.9867   33.6117  C     
21   N        28.0096    5.1617   33.9962  N     
22   O        28.1836    4.1729   31.3060  O     
23   C        28.6988    6.2689   34.6959  C     
24   C        29.7049    6.9637   33.8541  C     
25   C        29.3510    7.5200   32.5934  C     
26   C        31.0643    7.0326   34.2545  C     
27   C        32.0284    7.5985   33.4196  C     
28   C        31.6592    8.1421   32.1723  C     
29   C        30.3083    8.0996   31.7396  C     
30   C        29.8859    8.6314   30.4083  C     
31   F        30.8990    9.1928   29.6671  F     
32   F        29.3580    7.6108   29.6550  F     
33   F        28.9240    9.5997   30.5679  F     
34   C        31.6659   -0.8032   40.5593  C     
35   C        33.0025   -0.2624   40.0257  C     
36   C        32.8351   -0.2345   38.4906  C     
37   C        30.8834   -1.0319   39.3707  C     
38   O        29.7344   -1.4110   39.4389  O     
39   O        30.7305   -3.3818   37.1967  O     
40   C        30.3027   -4.2590   36.2704  C     
41   C        29.9023   -3.7122   35.1212  C     
42   C        29.3701   -4.3949   33.9498  C     
43   C        27.8322   -4.2606   33.8424  C     
44   H        31.2243    1.0929   36.3601  H     
45   H        29.6783   -1.4999   33.3993  H     
46   H        28.6532    0.4465   33.0175  H     
47   H        30.2010    2.4989   31.6275  H     
48   H        27.3213    2.8262   32.6143  H     
49   H        27.5946    1.4392   30.5898  H     
50   H        28.9866    2.0221   29.6994  H     
51   H        31.9147   -1.8318   29.7906  H     
52   H        31.1904    0.4630   30.0328  H     
53   H        27.2104   -0.8753   30.5188  H     
54   H        27.9512   -3.1520   30.2969  H     
55   H        30.3057   -3.6476   29.9462  H     
56   H        28.9307    3.3126   34.4718  H     
57   H        29.8778    4.3210   33.3681  H     
58   H        27.5933    5.5382   33.1513  H     
59   H        27.2674    4.8250   34.6059  H     
60   H        27.2130    4.3271   31.2183  H     
61   H        27.9365    7.0077   34.9862  H     
62   H        29.1344    5.8857   35.6193  H     
63   H        28.3735    7.4729   32.2980  H     
64   H        31.3497    6.6479   35.1580  H     
65   H        33.0121    7.6216   33.7123  H     
66   H        32.3881    8.5456   31.5837  H     
67   H        31.8076   -1.7366   41.1080  H     
68   H        31.1801   -0.0734   41.2101  H     
69   H        33.2001    0.7438   40.4106  H     
70   H        33.8336   -0.9145   40.3136  H     
71   H        33.5837   -0.8723   38.0087  H     
72   H        32.9418    0.7877   38.1142  H     
73   H        30.2860   -5.2377   36.4391  H     
74   H        29.8284   -3.9815   33.0502  H     
75   H        29.6259   -5.4551   33.9828  H     
76   H        27.3466   -4.7427   34.6958  H     
77   H        27.4864   -4.7422   32.9277  H     
78   H        27.5357   -3.2102   33.8103  H     
@<TRIPOS>BOND
     1    1    2 1
     2    1    6 2
     3    2    3 2
     4    2    8 1
     5    3    4 1
     6    3   39 1
     7    4    5 2
     8    4   41 1
     9    5    6 1
    10    6    7 1
    11    7    9 2
    12    7   10 am
    13    8   36 1
    14    8   37 1
    15   10   11 1
    16   11   12 1
    17   11   13 1
    18   12   20 1
    19   12   22 1
    20   13   14 1
    21   14   16 1
    22   14   17 2
    23   15   16 2
    24   15   19 1
    25   17   18 1
    26   18   19 2
    27   20   21 1
    28   21   23 1
    29   23   24 1
    30   24   25 1
    31   24   26 2
    32   25   29 2
    33   26   27 1
    34   27   28 2
    35   28   29 1
    36   29   30 1
    37   30   31 1
    38   30   32 1
    39   30   33 1
    40   34   35 1
    41   34   37 1
    42   35   36 1
    43   37   38 2
    44   39   40 1
    45   40   41 2
    46   41   42 1
    47   42   43 1
    48    1   44 1
    49    5   45 1
    50   10   46 1
    51   11   47 1
    52   12   48 1
    53   13   49 1
    54   13   50 1
    55   15   51 1
    56   16   52 1
    57   17   53 1
    58   18   54 1
    59   19   55 1
    60   20   56 1
    61   20   57 1
    62   21   58 1
    63   21   59 1
    64   22   60 1
    65   23   61 1
    66   23   62 1
    67   25   63 1
    68   26   64 1
    69   27   65 1
    70   28   66 1
    71   34   67 1
    72   34   68 1
    73   35   69 1
    74   35   70 1
    75   36   71 1
    76   36   72 1
    77   40   73 1
    78   42   74 1
    79   42   75 1
    80   43   76 1
    81   43   77 1
    82   43   78 1
@<TRIPOS>PROPERTY_DATA
  Total_Score	| 17.1025
  Crash		| -1.3947
  Polar		| 6.4995
  FragIndex	| 1
  FragRMSD	| 0.180

