@<TRIPOS>MOLECULE
BindingDB_26502
 81 84 0 0 0
SMALL
NO_CHARGES


@<TRIPOS>ATOM
1    C        31.0158    0.0384   35.8235  C     
2    C        30.9648   -0.9811   36.8046  C     
3    C        30.0768   -2.0605   36.5759  C     
4    C        29.3080   -2.1644   35.4024  C     
5    C        29.4350   -1.1547   34.4250  C     
6    C        30.2514   -0.0182   34.6338  C     
7    C        30.3012    1.0127   33.6992  C     
8    O        31.3140    1.6962   33.6017  O     
9    N        29.2360    1.2845   32.9505  N     
10   C        29.1383    2.1976   31.8494  C     
11   C        28.5530    1.4467   30.6123  C     
12   C        29.0915    0.0731   30.4017  C     
13   C        30.9902   -1.4445   30.0649  C     
14   C        30.4741   -0.1371   30.1859  C     
15   C        28.2326   -1.0528   30.4483  C     
16   C        28.7436   -2.3555   30.3125  C     
17   C        30.1222   -2.5517   30.1225  C     
18   C        28.2720    3.4263   32.2746  C     
19   C        28.8009    4.1532   33.5427  C     
20   O        28.2446    4.3855   31.2101  O     
21   N        27.9013    5.2684   33.9335  N     
22   C        28.5344    6.4244   34.6101  C     
23   C        29.6049    7.0681   33.7998  C     
24   C        29.3134    7.6038   32.5234  C     
25   C        30.9363    7.1285   34.2670  C     
26   C        31.9481    7.6847   33.4699  C     
27   C        31.6437    8.1997   32.1968  C     
28   C        30.3204    8.1568   31.6963  C     
29   C        29.9603    8.6519   30.3356  C     
30   F        31.0053    9.2025   29.6316  F     
31   F        29.4771    7.6086   29.5833  F     
32   F        28.9841    9.6167   30.4189  F     
33   N        28.4992   -3.2505   35.2959  N     
34   C        27.9573   -3.8432   34.1170  C     
35   C        29.0998   -4.4535   33.2711  C     
36   C        31.8481   -0.7560   40.7886  C     
37   C        33.2411   -0.1308   40.5152  C     
38   C        33.3217    0.6085   39.1484  C     
39   C        33.0863   -0.3550   37.9539  C     
40   N        31.7635   -0.9353   37.9424  N     
41   S        31.3134   -1.7358   39.3685  S     
42   O        29.7303   -1.8200   39.4756  O     
43   O        31.9460   -3.1949   39.4352  O     
44   H        31.6103    0.8518   36.0021  H     
45   H        30.0226   -2.8256   37.2546  H     
46   H        28.9096   -1.2408   33.5552  H     
47   H        28.4356    0.7759   33.1455  H     
48   H        30.1278    2.5731   31.5641  H     
49   H        27.4628    1.4006   30.7200  H     
50   H        28.7517    2.0234   29.7034  H     
51   H        31.9945   -1.5885   29.9368  H     
52   H        31.1199    0.6587   30.1398  H     
53   H        27.2273   -0.9357   30.5977  H     
54   H        28.1126   -3.1534   30.3723  H     
55   H        30.4973   -3.4989   30.0397  H     
56   H        27.2422    3.0997   32.4674  H     
57   H        28.8577    3.4557   34.3804  H     
58   H        29.8107    4.5125   33.3273  H     
59   H        27.4617    4.1610   30.6599  H     
60   H        27.4232    5.6194   33.0975  H     
61   H        27.1943    4.8900   34.5680  H     
62   H        27.7533    7.1638   34.8043  H     
63   H        28.9050    6.0876   35.5865  H     
64   H        28.3521    7.5632   32.1728  H     
65   H        31.1807    6.7550   35.1859  H     
66   H        32.9108    7.7195   33.8168  H     
67   H        32.4047    8.5881   31.6335  H     
68   H        28.3792   -3.7752   36.0955  H     
69   H        27.2856   -4.6553   34.4250  H     
70   H        27.3688   -3.1396   33.5114  H     
71   H        29.7682   -3.6735   32.9134  H     
72   H        28.6792   -4.9869   32.4095  H     
73   H        29.6686   -5.1698   33.8792  H     
74   H        31.8860   -1.3909   41.6809  H     
75   H        31.1099    0.0316   40.9543  H     
76   H        33.4714    0.5813   41.3107  H     
77   H        34.0012   -0.9231   40.5413  H     
78   H        32.5771    1.4144   39.1167  H     
79   H        34.3155    1.0603   39.0491  H     
80   H        33.3136    0.1985   37.0424  H     
81   H        33.8156   -1.1663   37.9984  H     
@<TRIPOS>BOND
     1    1    2 2
     2    1    6 1
     3    2    3 1
     4    2   40 1
     5    3    4 2
     6    4    5 1
     7    4   33 1
     8    5    6 2
     9    6    7 1
    10    7    8 2
    11    7    9 am
    12    9   10 1
    13   10   11 1
    14   10   18 1
    15   11   12 1
    16   12   14 2
    17   12   15 1
    18   13   14 1
    19   13   17 2
    20   15   16 2
    21   16   17 1
    22   18   19 1
    23   18   20 1
    24   19   21 1
    25   21   22 1
    26   22   23 1
    27   23   24 2
    28   23   25 1
    29   24   28 1
    30   25   26 2
    31   26   27 1
    32   27   28 2
    33   28   29 1
    34   29   30 1
    35   29   31 1
    36   29   32 1
    37   33   34 1
    38   34   35 1
    39   36   37 1
    40   36   41 1
    41   37   38 1
    42   38   39 1
    43   39   40 1
    44   40   41 1
    45   41   42 2
    46   41   43 2
    47    1   44 1
    48    3   45 1
    49    5   46 1
    50    9   47 1
    51   10   48 1
    52   11   49 1
    53   11   50 1
    54   13   51 1
    55   14   52 1
    56   15   53 1
    57   16   54 1
    58   17   55 1
    59   18   56 1
    60   19   57 1
    61   19   58 1
    62   20   59 1
    63   21   60 1
    64   21   61 1
    65   22   62 1
    66   22   63 1
    67   24   64 1
    68   25   65 1
    69   26   66 1
    70   27   67 1
    71   33   68 1
    72   34   69 1
    73   34   70 1
    74   35   71 1
    75   35   72 1
    76   35   73 1
    77   36   74 1
    78   36   75 1
    79   37   76 1
    80   37   77 1
    81   38   78 1
    82   38   79 1
    83   39   80 1
    84   39   81 1
@<TRIPOS>PROPERTY_DATA
  Total_Score	| 16.2260
  Crash		| -2.6456
  Polar		| 6.7138
  FragIndex	| 1
  FragRMSD	| 0.386

