@<TRIPOS>MOLECULE
BindingDB_29765
 77 81 0 0 0
SMALL
NO_CHARGES


@<TRIPOS>ATOM
1    C        30.9082    0.2650   35.9793  C     
2    C        30.9941   -0.8150   36.8890  C     
3    C        30.5875   -2.0810   36.4167  C     
4    C        30.0917   -2.2698   35.1369  C     
5    C        29.9671   -1.1911   34.2499  C     
6    C        30.3958    0.0959   34.6650  C     
7    C        30.3336    1.1591   33.7875  C     
8    N        31.4798   -0.6481   38.1639  N     
9    O        31.2201    2.0061   33.8044  O     
10   N        29.2847    1.2595   32.9802  N     
11   C        29.1008    2.2211   31.9296  C     
12   C        28.2574    3.4349   32.4437  C     
13   C        28.4837    1.5270   30.6702  C     
14   C        28.9986    0.1443   30.4065  C     
15   C        28.6315   -2.2851   30.2600  C     
16   C        28.1347   -0.9802   30.4482  C     
17   C        30.3789   -0.0844   30.1857  C     
18   C        30.8775   -1.3903   30.0005  C     
19   C        30.0025   -2.4898   30.0307  C     
20   C        28.8764    4.1062   33.6976  C     
21   N        28.1164    5.3085   34.1156  N     
22   O        28.1773    4.4391   31.4286  O     
23   C        28.8909    6.3755   34.7828  C     
24   C        29.8677    7.0378   33.8735  C     
25   C        29.4508    7.5342   32.6129  C     
26   C        31.2270    7.1681   34.2341  C     
27   C        32.1399    7.7825   33.3552  C     
28   C        31.7068    8.2633   32.1067  C     
29   C        30.3538    8.1426   31.7092  C     
30   C        29.8746    8.6094   30.3763  C     
31   F        30.8376    9.2121   29.6017  F     
32   F        29.3978    7.5465   29.6518  F     
33   F        28.8602    9.5226   30.5303  F     
34   C        31.5877   -0.7226   40.4727  C     
35   C        32.9095   -0.1226   39.9570  C     
36   C        32.7774   -0.1190   38.4208  C     
37   C        30.8407   -0.9757   39.2747  C     
38   O        29.7019   -1.4193   39.3252  O     
39   N        30.6061   -3.2905   36.9870  N     
40   N        30.1702   -4.1266   36.1455  N     
41   N        29.8422   -3.5858   35.0384  N     
42   C        29.3402   -4.3046   33.9066  C     
43   C        27.8000   -4.2426   33.8294  C     
44   H        31.1935    1.1999   36.2891  H     
45   H        29.6075   -1.3549   33.3074  H     
46   H        28.5786    0.6066   33.1098  H     
47   H        30.0743    2.6139   31.6204  H     
48   H        27.2399    3.1103   32.6952  H     
49   H        27.3972    1.4949   30.7887  H     
50   H        28.6830    2.1482   29.7912  H     
51   H        27.9999   -3.0875   30.3171  H     
52   H        27.1360   -0.8597   30.6367  H     
53   H        31.0380    0.6988   30.1750  H     
54   H        31.8800   -1.5420   29.8714  H     
55   H        30.3616   -3.4372   29.8971  H     
56   H        28.8506    3.4089   34.5372  H     
57   H        29.9221    4.3403   33.4829  H     
58   H        27.6503    5.7247   33.3064  H     
59   H        27.3931    4.9995   34.7644  H     
60   H        27.4034    4.2131   30.8748  H     
61   H        28.1869    7.1289   35.1367  H     
62   H        29.3756    5.9531   35.6641  H     
63   H        28.4687    7.4379   32.3444  H     
64   H        31.5644    6.8208   35.1371  H     
65   H        33.1249    7.8640   33.6148  H     
66   H        32.3959    8.6892   31.4827  H     
67   H        31.7588   -1.6530   41.0201  H     
68   H        31.0552   -0.0170   41.1139  H     
69   H        33.0441    0.8957   40.3333  H     
70   H        33.7622   -0.7312   40.2749  H     
71   H        33.5411   -0.7560   37.9653  H     
72   H        32.8786    0.8977   38.0315  H     
73   H        29.7657   -3.8968   32.9863  H     
74   H        29.6447   -5.3530   33.9668  H     
75   H        27.3604   -4.6951   34.7217  H     
76   H        27.4561   -4.7915   32.9525  H     
77   H        27.4575   -3.2097   33.7484  H     
@<TRIPOS>BOND
     1    1    2 1
     2    1    6 2
     3    2    3 2
     4    2    8 1
     5    3    4 1
     6    3   39 1
     7    4    5 2
     8    4   41 1
     9    5    6 1
    10    6    7 1
    11    7    9 2
    12    7   10 am
    13    8   36 1
    14    8   37 1
    15   10   11 1
    16   11   12 1
    17   11   13 1
    18   12   20 1
    19   12   22 1
    20   13   14 1
    21   14   16 1
    22   14   17 2
    23   15   16 2
    24   15   19 1
    25   17   18 1
    26   18   19 2
    27   20   21 1
    28   21   23 1
    29   23   24 1
    30   24   25 1
    31   24   26 2
    32   25   29 2
    33   26   27 1
    34   27   28 2
    35   28   29 1
    36   29   30 1
    37   30   31 1
    38   30   32 1
    39   30   33 1
    40   34   35 1
    41   34   37 1
    42   35   36 1
    43   37   38 2
    44   39   40 2
    45   40   41 1
    46   41   42 1
    47   42   43 1
    48    1   44 1
    49    5   45 1
    50   10   46 1
    51   11   47 1
    52   12   48 1
    53   13   49 1
    54   13   50 1
    55   15   51 1
    56   16   52 1
    57   17   53 1
    58   18   54 1
    59   19   55 1
    60   20   56 1
    61   20   57 1
    62   21   58 1
    63   21   59 1
    64   22   60 1
    65   23   61 1
    66   23   62 1
    67   25   63 1
    68   26   64 1
    69   27   65 1
    70   28   66 1
    71   34   67 1
    72   34   68 1
    73   35   69 1
    74   35   70 1
    75   36   71 1
    76   36   72 1
    77   42   73 1
    78   42   74 1
    79   43   75 1
    80   43   76 1
    81   43   77 1
@<TRIPOS>PROPERTY_DATA
  Total_Score	| 16.5857
  Crash		| -1.2847
  Polar		| 6.8214
  FragIndex	| 1
  FragRMSD	| 0.156

