@<TRIPOS>MOLECULE
BindingDB_29762
 79 83 0 0 0
SMALL
NO_CHARGES


@<TRIPOS>ATOM
1    C        30.9195    0.1290   36.0681  C     
2    C        31.0594   -0.9726   36.9457  C     
3    C        30.6644   -2.2434   36.4723  C     
4    C        30.1225   -2.4117   35.2004  C     
5    C        29.9474   -1.3062   34.3505  C     
6    C        30.3561   -0.0152   34.7703  C     
7    C        30.2479    1.0693   33.9052  C     
8    N        31.5537   -0.8009   38.2140  N     
9    O        31.0642    1.9941   33.9777  O     
10   N        29.2463    1.1364   33.0304  N     
11   C        29.1318    2.0611   31.9298  C     
12   C        28.2952    3.3054   32.3537  C     
13   C        28.5147    1.3314   30.6901  C     
14   C        29.0303   -0.0402   30.4605  C     
15   C        30.8981   -1.5664   29.9827  C     
16   C        30.4030   -0.2662   30.1823  C     
17   C        28.1635   -1.1647   30.5112  C     
18   C        28.6544   -2.4656   30.3011  C     
19   C        30.0233   -2.6702   30.0323  C     
20   C        28.8655    4.0522   33.5891  C     
21   N        28.0006    5.2135   33.9416  N     
22   O        28.2444    4.2240   31.2607  O     
23   C        28.6471    6.3578   34.6150  C     
24   C        29.7009    7.0098   33.7859  C     
25   C        29.3978    7.5068   32.4999  C     
26   C        31.0275    7.1356   34.2626  C     
27   C        32.0140    7.7455   33.4713  C     
28   C        31.6941    8.2410   32.1974  C     
29   C        30.3783    8.1267   31.6838  C     
30   C        30.0014    8.6263   30.3328  C     
31   F        31.0394    9.1784   29.6191  F     
32   F        29.4981    7.5952   29.5734  F     
33   F        29.0332    9.5954   30.4496  F     
34   C        31.6398   -0.8314   40.5224  C     
35   C        32.9984   -0.3162   40.0086  C     
36   C        32.8659   -0.3030   38.4710  C     
37   C        30.8908   -1.0701   39.3262  C     
38   O        29.7328   -1.4737   39.3744  O     
39   C        30.7286   -3.4873   37.0198  C     
40   C        30.2774   -4.3589   36.1177  C     
41   N        29.8849   -3.7279   35.0116  N     
42   C        29.3622   -4.3528   33.8269  C     
43   C        27.8221   -4.2291   33.7245  C     
44   H        31.2041    1.0540   36.3971  H     
45   H        29.5626   -1.4501   33.4151  H     
46   H        28.5392    0.4781   33.1239  H     
47   H        30.1227    2.4037   31.6270  H     
48   H        27.2712    2.9844   32.5741  H     
49   H        27.4224    1.2990   30.8131  H     
50   H        28.7170    1.9325   29.7990  H     
51   H        31.8893   -1.7133   29.7859  H     
52   H        31.0548    0.5263   30.1292  H     
53   H        27.1691   -1.0434   30.7181  H     
54   H        28.0195   -3.2626   30.3566  H     
55   H        30.3751   -3.6119   29.8744  H     
56   H        28.8901    3.3842   34.4445  H     
57   H        29.8852    4.3710   33.3651  H     
58   H        27.5388    5.5580   33.0973  H     
59   H        27.2749    4.8661   34.5858  H     
60   H        27.2864    4.3914   31.1008  H     
61   H        27.8730    7.0991   34.8239  H     
62   H        29.0372    6.0119   35.5770  H     
63   H        28.4413    7.4155   32.1453  H     
64   H        31.2782    6.7845   35.1881  H     
65   H        32.9716    7.8305   33.8283  H     
66   H        32.4299    8.6876   31.6533  H     
67   H        31.7514   -1.7559   41.0913  H     
68   H        31.1466   -0.0856   41.1484  H     
69   H        33.1982    0.6890   40.3911  H     
70   H        33.8088   -0.9780   40.3246  H     
71   H        33.6165   -0.9535   38.0103  H     
72   H        32.9831    0.7148   38.0869  H     
73   H        31.0771   -3.7139   37.9220  H     
74   H        30.2322   -5.3399   36.2702  H     
75   H        29.8210   -3.8969   32.9439  H     
76   H        29.6123   -5.4166   33.8069  H     
77   H        27.3499   -4.7314   34.5746  H     
78   H        27.4756   -4.7006   32.8011  H     
79   H        27.5122   -3.1797   33.7149  H     
@<TRIPOS>BOND
     1    1    2 1
     2    1    6 2
     3    2    3 2
     4    2    8 1
     5    3    4 1
     6    3   39 1
     7    4    5 2
     8    4   41 1
     9    5    6 1
    10    6    7 1
    11    7    9 2
    12    7   10 am
    13    8   36 1
    14    8   37 1
    15   10   11 1
    16   11   12 1
    17   11   13 1
    18   12   20 1
    19   12   22 1
    20   13   14 1
    21   14   16 1
    22   14   17 2
    23   15   16 2
    24   15   19 1
    25   17   18 1
    26   18   19 2
    27   20   21 1
    28   21   23 1
    29   23   24 1
    30   24   25 1
    31   24   26 2
    32   25   29 2
    33   26   27 1
    34   27   28 2
    35   28   29 1
    36   29   30 1
    37   30   31 1
    38   30   32 1
    39   30   33 1
    40   34   35 1
    41   34   37 1
    42   35   36 1
    43   37   38 2
    44   39   40 2
    45   40   41 1
    46   41   42 1
    47   42   43 1
    48    1   44 1
    49    5   45 1
    50   10   46 1
    51   11   47 1
    52   12   48 1
    53   13   49 1
    54   13   50 1
    55   15   51 1
    56   16   52 1
    57   17   53 1
    58   18   54 1
    59   19   55 1
    60   20   56 1
    61   20   57 1
    62   21   58 1
    63   21   59 1
    64   22   60 1
    65   23   61 1
    66   23   62 1
    67   25   63 1
    68   26   64 1
    69   27   65 1
    70   28   66 1
    71   34   67 1
    72   34   68 1
    73   35   69 1
    74   35   70 1
    75   36   71 1
    76   36   72 1
    77   39   73 1
    78   40   74 1
    79   42   75 1
    80   42   76 1
    81   43   77 1
    82   43   78 1
    83   43   79 1
@<TRIPOS>PROPERTY_DATA
  Total_Score	| 17.6080
  Crash		| -1.0932
  Polar		| 6.5727
  FragIndex	| 1
  FragRMSD	| 0.154

