@<TRIPOS>MOLECULE
BindingDB_29755
 77 80 0 0 0
SMALL
NO_CHARGES


@<TRIPOS>ATOM
1    C        30.8644    0.1534   36.0775  C     
2    C        30.8468   -0.8630   37.0667  C     
3    C        30.2800   -2.1214   36.7328  C     
4    C        29.8821   -2.4323   35.4168  C     
5    C        29.8652   -1.3823   34.4682  C     
6    C        30.3340   -0.0833   34.7810  C     
7    F        31.3221    1.3379   36.4055  F     
8    C        30.3381    0.8905   33.7806  C     
9    N        29.6030   -3.7383   35.1337  N     
10   C        29.3332   -4.3335   33.8630  C     
11   C        27.8552   -4.3371   33.4085  C     
12   N        31.3856   -0.6803   38.3228  N     
13   O        31.3154    1.6258   33.6601  O     
14   N        29.2514    1.0767   33.0370  N     
15   C        29.0982    2.0000   31.9329  C     
16   C        28.2535    3.2429   32.3670  C     
17   C        28.4671    1.2493   30.7026  C     
18   C        28.9458   -0.1418   30.4506  C     
19   C        28.5359   -2.5726   30.4513  C     
20   C        28.0764   -1.2522   30.6274  C     
21   C        30.2853   -0.3927   30.0691  C     
22   C        30.7434   -1.7096   29.9010  C     
23   C        29.8782   -2.7994   30.1013  C     
24   C        28.8394    3.9999   33.5890  C     
25   N        28.0067    5.1652   33.9861  N     
26   O        28.1831    4.1635   31.2721  O     
27   C        28.7049    6.2491   34.7167  C     
28   C        29.7180    6.9574   33.8910  C     
29   C        29.3689    7.4669   32.6170  C     
30   C        31.0572    7.0856   34.3187  C     
31   C        32.0203    7.6884   33.4935  C     
32   C        31.6587    8.1764   32.2253  C     
33   C        30.3219    8.0846   31.7695  C     
34   C        29.9036    8.5852   30.4301  C     
35   F        30.9130    9.1525   29.6880  F     
36   F        29.3906    7.5497   29.6801  F     
37   F        28.9271    9.5432   30.5726  F     
38   C        31.6766   -0.8619   40.6149  C     
39   C        32.9731   -0.2774   40.0240  C     
40   C        32.7628   -0.3246   38.4946  C     
41   C        30.8193   -0.9784   39.4791  C     
42   O        29.6609   -1.3899   39.5916  O     
43   H        30.2271   -2.8504   37.4487  H     
44   H        29.5758   -1.5696   33.5076  H     
45   H        29.7727   -4.3697   35.8436  H     
46   H        29.9229   -3.8294   33.0882  H     
47   H        29.6832   -5.3623   33.9217  H     
48   H        27.2611   -4.8599   34.1509  H     
49   H        27.7641   -4.8435   32.4500  H     
50   H        27.4706   -3.3228   33.2851  H     
51   H        28.4743    0.5428   33.2643  H     
52   H        30.0785    2.3661   31.6108  H     
53   H        27.2360    2.9111   32.5958  H     
54   H        27.3791    1.2562   30.8288  H     
55   H        28.6772    1.8306   29.7984  H     
56   H        27.9072   -3.3535   30.5941  H     
57   H        27.0865   -1.1030   30.8385  H     
58   H        30.9297    0.3855   29.9107  H     
59   H        31.7204   -1.8752   29.6417  H     
60   H        30.2164   -3.7529   29.9655  H     
61   H        28.9050    3.3241   34.4467  H     
62   H        29.8481    4.3261   33.3339  H     
63   H        27.5740    5.5716   33.1526  H     
64   H        27.2613    4.8276   34.6036  H     
65   H        27.2362    4.3578   31.1482  H     
66   H        27.9559    6.9747   35.0406  H     
67   H        29.1463    5.8326   35.6290  H     
68   H        28.3993    7.3924   32.2995  H     
69   H        31.3398    6.7394   35.2390  H     
70   H        32.9913    7.7590   33.8119  H     
71   H        32.3850    8.5940   31.6453  H     
72   H        31.8469   -1.8432   41.0606  H     
73   H        31.2399   -0.1929   41.3516  H     
74   H        33.0994    0.7538   40.3575  H     
75   H        33.8458   -0.8576   40.3359  H     
76   H        33.4076   -1.0869   38.0479  H     
77   H        33.0165    0.6430   38.0546  H     
@<TRIPOS>BOND
     1    1    2 1
     2    1    6 2
     3    1    7 1
     4    2    3 2
     5    2   12 1
     6    3    4 1
     7    4    5 2
     8    4    9 1
     9    5    6 1
    10    6    8 1
    11    8   13 2
    12    8   14 am
    13    9   10 1
    14   10   11 1
    15   12   40 1
    16   12   41 1
    17   14   15 1
    18   15   16 1
    19   15   17 1
    20   16   24 1
    21   16   26 1
    22   17   18 1
    23   18   20 1
    24   18   21 2
    25   19   20 2
    26   19   23 1
    27   21   22 1
    28   22   23 2
    29   24   25 1
    30   25   27 1
    31   27   28 1
    32   28   29 1
    33   28   30 2
    34   29   33 2
    35   30   31 1
    36   31   32 2
    37   32   33 1
    38   33   34 1
    39   34   35 1
    40   34   36 1
    41   34   37 1
    42   38   39 1
    43   38   41 1
    44   39   40 1
    45   41   42 2
    46    3   43 1
    47    5   44 1
    48    9   45 1
    49   10   46 1
    50   10   47 1
    51   11   48 1
    52   11   49 1
    53   11   50 1
    54   14   51 1
    55   15   52 1
    56   16   53 1
    57   17   54 1
    58   17   55 1
    59   19   56 1
    60   20   57 1
    61   21   58 1
    62   22   59 1
    63   23   60 1
    64   24   61 1
    65   24   62 1
    66   25   63 1
    67   25   64 1
    68   26   65 1
    69   27   66 1
    70   27   67 1
    71   29   68 1
    72   30   69 1
    73   31   70 1
    74   32   71 1
    75   38   72 1
    76   38   73 1
    77   39   74 1
    78   39   75 1
    79   40   76 1
    80   40   77 1
@<TRIPOS>PROPERTY_DATA
  Total_Score	| 17.8693
  Crash		| -1.3047
  Polar		| 6.8917
  FragIndex	| 1
  FragRMSD	| 0.163

