@<TRIPOS>MOLECULE
BindingDB_29756
 77 80 0 0 0
SMALL
NO_CHARGES


@<TRIPOS>ATOM
1    C        30.8228    0.1360   36.0329  C     
2    C        30.8208   -0.8883   37.0065  C     
3    C        30.3515   -2.1709   36.6320  C     
4    C        29.9678   -2.4618   35.3049  C     
5    C        29.9253   -1.3970   34.3778  C     
6    C        30.3291   -0.0823   34.7252  C     
7    C        30.2965    0.9438   33.7782  C     
8    N        29.7027   -3.7629   34.9982  N     
9    C        29.4146   -4.2991   33.7009  C     
10   C        27.9038   -4.2596   33.3774  C     
11   N        31.3584   -0.6910   38.2631  N     
12   O        31.2754    1.6687   33.6576  O     
13   N        29.2121    1.1395   33.0338  N     
14   C        29.0682    2.0364   31.9104  C     
15   C        28.2451    3.3063   32.3246  C     
16   C        28.4449    1.2621   30.7010  C     
17   C        28.9845   -0.1138   30.4598  C     
18   C        30.8697   -1.6226   29.9984  C     
19   C        30.3550   -0.3209   30.1587  C     
20   C        28.1409   -1.2490   30.5524  C     
21   C        28.6554   -2.5460   30.3809  C     
22   C        30.0204   -2.7375   30.1061  C     
23   C        28.8094    4.0107   33.5916  C     
24   N        28.0003    5.2141   33.9605  N     
25   O        28.2603    4.2511   31.2460  O     
26   C        28.7010    6.3740   34.5702  C     
27   C        29.7348    7.0106   33.6977  C     
28   C        29.4195    7.5011   32.4028  C     
29   C        31.0583    7.1972   34.1627  C     
30   C        32.0275    7.8200   33.3631  C     
31   C        31.6850    8.3312   32.1070  C     
32   C        30.3724    8.1790   31.5983  C     
33   C        29.9846    8.6996   30.2528  C     
34   F        30.9790    9.3885   29.5960  F     
35   F        29.6122    7.6655   29.4283  F     
36   F        28.9233    9.5629   30.3753  F     
37   C        31.6610   -0.8565   40.5538  C     
38   C        32.9653   -0.3073   39.9473  C     
39   C        32.6599   -0.1361   38.4462  C     
40   C        30.8050   -1.0309   39.4125  C     
41   O        29.6698   -1.4741   39.5369  O     
42   H        31.1707    1.0653   36.2904  H     
43   H        30.3770   -2.9265   37.3182  H     
44   H        29.6153   -1.5763   33.4211  H     
45   H        29.8396   -4.4139   35.7109  H     
46   H        29.9900   -3.7876   32.9143  H     
47   H        29.7338   -5.3401   33.6913  H     
48   H        27.3163   -4.7246   34.1725  H     
49   H        27.7107   -4.7811   32.4388  H     
50   H        27.5726   -3.2296   33.2659  H     
51   H        28.4485    0.5728   33.2269  H     
52   H        30.0528    2.3866   31.5808  H     
53   H        27.2062    3.0309   32.5290  H     
54   H        27.3638    1.2083   30.8554  H     
55   H        28.6039    1.8518   29.7931  H     
56   H        31.8637   -1.7587   29.8043  H     
57   H        30.9937    0.4760   30.0915  H     
58   H        27.1430   -1.1405   30.7617  H     
59   H        28.0363   -3.3510   30.4685  H     
60   H        30.3906   -3.6840   29.9846  H     
61   H        28.7868    3.3172   34.4441  H     
62   H        29.8620    4.2572   33.4001  H     
63   H        27.4866    5.5588   33.1381  H     
64   H        27.3069    4.8926   34.6435  H     
65   H        27.3125    4.3850   31.0056  H     
66   H        27.9393    7.1161   34.8077  H     
67   H        29.1445    6.0882   35.5264  H     
68   H        28.4739    7.3717   32.0416  H     
69   H        31.3479    6.8776   35.0952  H     
70   H        32.9873    7.9014   33.6989  H     
71   H        32.4122    8.7985   31.5641  H     
72   H        31.8361   -1.8156   41.0511  H     
73   H        31.2287   -0.1509   41.2688  H     
74   H        33.2450    0.6487   40.3990  H     
75   H        33.7861   -1.0175   40.0955  H     
76   H        33.3980   -0.6720   37.8419  H     
77   H        32.6643    0.9224   38.1698  H     
@<TRIPOS>BOND
     1    1    2 1
     2    1    6 2
     3    2    3 2
     4    2   11 1
     5    3    4 1
     6    4    5 2
     7    4    8 1
     8    5    6 1
     9    6    7 1
    10    7   12 2
    11    7   13 am
    12    8    9 1
    13    9   10 1
    14   11   39 1
    15   11   40 1
    16   13   14 1
    17   14   15 1
    18   14   16 1
    19   15   23 1
    20   15   25 1
    21   16   17 1
    22   17   19 1
    23   17   20 2
    24   18   19 2
    25   18   22 1
    26   20   21 1
    27   21   22 2
    28   23   24 1
    29   24   26 1
    30   26   27 1
    31   27   28 1
    32   27   29 2
    33   28   32 2
    34   29   30 1
    35   30   31 2
    36   31   32 1
    37   32   33 1
    38   33   34 1
    39   33   35 1
    40   33   36 1
    41   37   38 1
    42   37   40 1
    43   38   39 1
    44   40   41 2
    45    1   42 1
    46    3   43 1
    47    5   44 1
    48    8   45 1
    49    9   46 1
    50    9   47 1
    51   10   48 1
    52   10   49 1
    53   10   50 1
    54   13   51 1
    55   14   52 1
    56   15   53 1
    57   16   54 1
    58   16   55 1
    59   18   56 1
    60   19   57 1
    61   20   58 1
    62   21   59 1
    63   22   60 1
    64   23   61 1
    65   23   62 1
    66   24   63 1
    67   24   64 1
    68   25   65 1
    69   26   66 1
    70   26   67 1
    71   28   68 1
    72   29   69 1
    73   30   70 1
    74   31   71 1
    75   37   72 1
    76   37   73 1
    77   38   74 1
    78   38   75 1
    79   39   76 1
    80   39   77 1
@<TRIPOS>PROPERTY_DATA
  Total_Score	| 17.5695
  Crash		| -1.0499
  Polar		| 6.9660
  FragIndex	| 1
  FragRMSD	| 0.139

