@<TRIPOS>MOLECULE
BindingDB_29757
 80 83 0 0 0
SMALL
NO_CHARGES


@<TRIPOS>ATOM
1    C        30.8996   -0.0065   36.0236  C     
2    C        31.0224   -1.1009   36.9076  C     
3    C        30.6344   -2.4053   36.4769  C     
4    C        30.0213   -2.5736   35.1972  C     
5    C        29.8925   -1.4354   34.3558  C     
6    C        30.3426   -0.1518   34.7364  C     
7    C        30.2773    0.9252   33.8542  C     
8    N        29.5769   -3.8059   34.8035  N     
9    C        29.3156   -4.2987   33.4846  C     
10   C        27.8230   -4.2141   33.0924  C     
11   N        31.5407   -0.8493   38.1617  N     
12   O        31.2349    1.6877   33.7983  O     
13   N        29.2294    1.0956   33.0564  N     
14   C        29.1151    2.0303   31.9677  C     
15   C        28.2877    3.2851   32.4031  C     
16   C        28.4823    1.3191   30.7312  C     
17   C        29.0031   -0.0500   30.4623  C     
18   C        28.6456   -2.4786   30.3216  C     
19   C        28.1425   -1.1770   30.5051  C     
20   C        30.3798   -0.2691   30.2013  C     
21   C        30.8854   -1.5754   30.0265  C     
22   C        30.0174   -2.6834   30.0913  C     
23   C        28.8589    4.0080   33.6554  C     
24   N        27.9818    5.1497   34.0228  N     
25   O        28.2749    4.2543   31.3478  O     
26   C        28.6056    6.2975   34.7196  C     
27   C        29.7126    6.9492   33.9692  C     
28   C        29.5599    7.2983   32.6033  C     
29   C        30.9567    7.2151   34.5937  C     
30   C        32.0091    7.8024   33.8781  C     
31   C        31.8526    8.1212   32.5153  C     
32   C        30.6156    7.8740   31.8605  C     
33   C        30.4868    8.1864   30.4050  C     
34   F        31.3866    7.4301   29.6881  F     
35   F        29.2433    7.9308   29.8695  F     
36   F        30.7501    9.5188   30.1755  F     
37   C        30.9469   -3.5626   37.3725  C     
38   C        31.6984   -0.7740   40.4652  C     
39   C        33.0098   -0.2114   39.8874  C     
40   C        32.8696   -0.3596   38.3589  C     
41   C        30.9006   -1.0377   39.3050  C     
42   O        29.7469   -1.4379   39.4024  O     
43   H        31.2070    0.9141   36.3424  H     
44   H        29.4742   -1.5501   33.4327  H     
45   H        29.4563   -4.4702   35.5005  H     
46   H        29.9450   -3.7799   32.7483  H     
47   H        29.6022   -5.3559   33.4742  H     
48   H        27.2189   -4.7942   33.7943  H     
49   H        27.6639   -4.6235   32.0919  H     
50   H        27.4734   -3.1821   33.0974  H     
51   H        28.4549    0.5304   33.2174  H     
52   H        30.1002    2.3872   31.6542  H     
53   H        27.2557    2.9867   32.6123  H     
54   H        27.3960    1.2829   30.8598  H     
55   H        28.6744    1.9226   29.8363  H     
56   H        28.0082   -3.2734   30.3644  H     
57   H        27.1407   -1.0559   30.6747  H     
58   H        31.0260    0.5244   30.1405  H     
59   H        31.8818   -1.7177   29.8537  H     
60   H        30.3824   -3.6284   29.9657  H     
61   H        28.9092    3.3244   34.5012  H     
62   H        29.8690    4.3583   33.4171  H     
63   H        27.5345    5.5049   33.1777  H     
64   H        27.2441    4.7980   34.6321  H     
65   H        27.3803    4.2256   30.9526  H     
66   H        27.8192    7.0397   34.8758  H     
67   H        28.9388    5.9623   35.7036  H     
68   H        28.6598    7.1181   32.1463  H     
69   H        31.1072    6.9752   35.5793  H     
70   H        32.9071    7.9810   34.3405  H     
71   H        32.6421    8.5280   32.0102  H     
72   H        31.9702   -3.4774   37.7516  H     
73   H        30.8934   -4.5280   36.8747  H     
74   H        30.2563   -3.5733   38.2168  H     
75   H        31.8676   -1.7048   41.0189  H     
76   H        31.2064   -0.0432   41.1149  H     
77   H        33.1300    0.8436   40.1594  H     
78   H        33.8737   -0.7704   40.2588  H     
79   H        33.6001   -1.0711   37.9673  H     
80   H        33.0226    0.6028   37.8635  H     
@<TRIPOS>BOND
     1    1    2 1
     2    1    6 2
     3    2    3 2
     4    2   11 1
     5    3    4 1
     6    3   37 1
     7    4    5 2
     8    4    8 1
     9    5    6 1
    10    6    7 1
    11    7   12 2
    12    7   13 am
    13    8    9 1
    14    9   10 1
    15   11   40 1
    16   11   41 1
    17   13   14 1
    18   14   15 1
    19   14   16 1
    20   15   23 1
    21   15   25 1
    22   16   17 1
    23   17   19 1
    24   17   20 2
    25   18   19 2
    26   18   22 1
    27   20   21 1
    28   21   22 2
    29   23   24 1
    30   24   26 1
    31   26   27 1
    32   27   28 1
    33   27   29 2
    34   28   32 2
    35   29   30 1
    36   30   31 2
    37   31   32 1
    38   32   33 1
    39   33   34 1
    40   33   35 1
    41   33   36 1
    42   38   39 1
    43   38   41 1
    44   39   40 1
    45   41   42 2
    46    1   43 1
    47    5   44 1
    48    8   45 1
    49    9   46 1
    50    9   47 1
    51   10   48 1
    52   10   49 1
    53   10   50 1
    54   13   51 1
    55   14   52 1
    56   15   53 1
    57   16   54 1
    58   16   55 1
    59   18   56 1
    60   19   57 1
    61   20   58 1
    62   21   59 1
    63   22   60 1
    64   23   61 1
    65   23   62 1
    66   24   63 1
    67   24   64 1
    68   25   65 1
    69   26   66 1
    70   26   67 1
    71   28   68 1
    72   29   69 1
    73   30   70 1
    74   31   71 1
    75   37   72 1
    76   37   73 1
    77   37   74 1
    78   38   75 1
    79   38   76 1
    80   39   77 1
    81   39   78 1
    82   40   79 1
    83   40   80 1
@<TRIPOS>PROPERTY_DATA
  Total_Score	| 18.0472
  Crash		| -1.4759
  Polar		| 7.1603
  FragIndex	| 1
  FragRMSD	| 0.491

