@<TRIPOS>MOLECULE
BindingDB_29763
 79 83 0 0 0
SMALL
NO_CHARGES


@<TRIPOS>ATOM
1    C        30.9061    0.1412   36.0156  C     
2    C        30.9961   -0.9287   36.9352  C     
3    C        30.6012   -2.2079   36.4787  C     
4    C        30.0880   -2.4072   35.2023  C     
5    C        29.9485   -1.3320   34.3129  C     
6    C        30.3761   -0.0402   34.7064  C     
7    C        30.3413    1.0049   33.8013  C     
8    N        31.4689   -0.7394   38.2143  N     
9    O        31.2872    1.7811   33.7442  O     
10   N        29.2775    1.1505   33.0187  N     
11   C        29.1317    2.0904   31.9362  C     
12   C        28.2868    3.3233   32.4023  C     
13   C        28.5039    1.3745   30.6954  C     
14   C        29.0050   -0.0124   30.4523  C     
15   C        28.6095   -2.4330   30.3274  C     
16   C        28.1296   -1.1242   30.5067  C     
17   C        30.3813   -0.2516   30.2066  C     
18   C        30.8616   -1.5628   30.0396  C     
19   C        29.9815   -2.6546   30.0965  C     
20   C        28.8724    4.0459   33.6470  C     
21   N        28.0507    5.2279   34.0176  N     
22   O        28.2297    4.2909   31.3513  O     
23   C        28.7398    6.3372   34.7229  C     
24   C        29.7570    7.0113   33.8737  C     
25   C        29.3902    7.5733   32.6292  C     
26   C        31.1191    7.0589   34.2562  C     
27   C        32.0792    7.6471   33.4152  C     
28   C        31.6956    8.1878   32.1756  C     
29   C        30.3472    8.1423   31.7525  C     
30   C        29.9096    8.6296   30.4110  C     
31   F        30.9079    9.2074   29.6616  F     
32   F        29.4210    7.5735   29.6803  F     
33   F        28.9123    9.5671   30.5406  F     
34   C        31.5644   -0.8085   40.5260  C     
35   C        32.9259   -0.3012   40.0152  C     
36   C        32.7517   -0.1740   38.4848  C     
37   C        30.8198   -1.0465   39.3258  C     
38   O        29.6666   -1.4544   39.3680  O     
39   N        30.6664   -3.4137   37.0598  N     
40   C        30.2504   -4.3242   36.2037  C     
41   C        29.8658   -3.7505   35.0557  C     
42   C        29.4026   -4.4253   33.8555  C     
43   C        27.8773   -4.2826   33.6433  C     
44   H        31.2019    1.0753   36.3060  H     
45   H        29.5839   -1.4986   33.3719  H     
46   H        28.5284    0.5531   33.1857  H     
47   H        30.1128    2.4673   31.6265  H     
48   H        27.2619    3.0106   32.6388  H     
49   H        27.4132    1.3618   30.8096  H     
50   H        28.7126    1.9720   29.7996  H     
51   H        27.9675   -3.2286   30.3851  H     
52   H        27.1273   -0.9878   30.6763  H     
53   H        31.0383    0.5277   30.1571  H     
54   H        31.8577   -1.7244   29.8748  H     
55   H        30.3302   -3.6083   29.9807  H     
56   H        28.8860    3.3711   34.5049  H     
57   H        29.9019    4.3395   33.4284  H     
58   H        27.6240    5.6150   33.1743  H     
59   H        27.2921    4.9046   34.6205  H     
60   H        27.3781    4.1355   30.8942  H     
61   H        27.9854    7.0754   35.0013  H     
62   H        29.1720    5.9532   35.6482  H     
63   H        28.4084    7.5438   32.3406  H     
64   H        31.4210    6.6550   35.1442  H     
65   H        33.0626    7.6677   33.7003  H     
66   H        32.4179    8.5924   31.5789  H     
67   H        31.6766   -1.7338   41.0954  H     
68   H        31.0703   -0.0548   41.1432  H     
69   H        33.1826    0.6650   40.4627  H     
70   H        33.7183   -1.0219   40.2502  H     
71   H        33.5416   -0.7245   37.9602  H     
72   H        32.7865    0.8780   38.1841  H     
73   H        31.0133   -3.5945   37.9483  H     
74   H        30.2405   -5.2977   36.3900  H     
75   H        29.9263   -4.0104   32.9901  H     
76   H        29.6423   -5.4928   33.8952  H     
77   H        27.3364   -4.8294   34.4185  H     
78   H        27.5991   -4.6944   32.6701  H     
79   H        27.5710   -3.2350   33.6731  H     
@<TRIPOS>BOND
     1    1    2 1
     2    1    6 2
     3    2    3 2
     4    2    8 1
     5    3    4 1
     6    3   39 1
     7    4    5 2
     8    4   41 1
     9    5    6 1
    10    6    7 1
    11    7    9 2
    12    7   10 am
    13    8   36 1
    14    8   37 1
    15   10   11 1
    16   11   12 1
    17   11   13 1
    18   12   20 1
    19   12   22 1
    20   13   14 1
    21   14   16 1
    22   14   17 2
    23   15   16 2
    24   15   19 1
    25   17   18 1
    26   18   19 2
    27   20   21 1
    28   21   23 1
    29   23   24 1
    30   24   25 1
    31   24   26 2
    32   25   29 2
    33   26   27 1
    34   27   28 2
    35   28   29 1
    36   29   30 1
    37   30   31 1
    38   30   32 1
    39   30   33 1
    40   34   35 1
    41   34   37 1
    42   35   36 1
    43   37   38 2
    44   39   40 1
    45   40   41 2
    46   41   42 1
    47   42   43 1
    48    1   44 1
    49    5   45 1
    50   10   46 1
    51   11   47 1
    52   12   48 1
    53   13   49 1
    54   13   50 1
    55   15   51 1
    56   16   52 1
    57   17   53 1
    58   18   54 1
    59   19   55 1
    60   20   56 1
    61   20   57 1
    62   21   58 1
    63   21   59 1
    64   22   60 1
    65   23   61 1
    66   23   62 1
    67   25   63 1
    68   26   64 1
    69   27   65 1
    70   28   66 1
    71   34   67 1
    72   34   68 1
    73   35   69 1
    74   35   70 1
    75   36   71 1
    76   36   72 1
    77   39   73 1
    78   40   74 1
    79   42   75 1
    80   42   76 1
    81   43   77 1
    82   43   78 1
    83   43   79 1
@<TRIPOS>PROPERTY_DATA
  Total_Score	| 17.9507
  Crash		| -1.2994
  Polar		| 6.9701
  FragIndex	| 1
  FragRMSD	| 0.165

