@<TRIPOS>MOLECULE
BindingDB_50300100
 55 58 0 0 0
SMALL
NO_CHARGES


@<TRIPOS>ATOM
1    N        75.2031   53.0423   43.8319  N     
2    C        75.4203   53.0203   42.4785  C     
3    N        76.5080   52.3511   41.9975  N     
4    C        76.0023   52.4235   44.7043  C     
5    C        77.0858   51.7090   44.2253  C     
6    C        77.3373   51.6934   42.8591  C     
7    N        78.4069   50.9016   42.6400  N     
8    N        78.8350   50.4272   43.7803  N     
9    C        78.0577   50.8936   44.7827  C     
10   O        75.7634   52.4796   45.9020  O     
11   C        74.4927   53.7311   41.5588  C     
12   C        74.8978   55.1829   41.2274  C     
13   C        74.0547   55.4724   39.9656  C     
14   N        74.0655   54.2087   39.1934  N     
15   C        74.3178   53.0986   40.1548  C     
16   C        74.6841   56.1979   42.3819  C     
17   C        72.9963   54.0139   38.1580  C     
18   C        71.7491   53.3014   38.5702  C     
19   C        70.8559   53.8681   39.5112  C     
20   C        69.7152   53.1652   39.9413  C     
21   C        69.4311   51.8930   39.4142  C     
22   C        70.2928   51.3229   38.4628  C     
23   C        71.4357   52.0259   38.0383  C     
24   C        78.9528   50.5398   41.3613  C     
25   C        80.4923   50.7408   41.2087  C     
26   C        80.8994   52.2293   41.3717  C     
27   C        81.3212   49.8297   42.1576  C     
28   H        74.4388   53.5330   44.1731  H     
29   H        78.1563   50.6614   45.7744  H     
30   H        73.5000   53.7518   42.0295  H     
31   H        75.9558   55.2071   40.9413  H     
32   H        73.0422   55.7576   40.2440  H     
33   H        74.4947   56.2794   39.3781  H     
34   H        74.9308   54.2675   38.6529  H     
35   H        75.2282   52.5881   39.8239  H     
36   H        73.5222   52.3515   40.1917  H     
37   H        73.6487   56.1862   42.7291  H     
38   H        74.9285   57.2071   42.0454  H     
39   H        75.3355   55.9474   43.2219  H     
40   H        72.7148   54.9797   37.7370  H     
41   H        73.4733   53.4697   37.3408  H     
42   H        71.0290   54.7977   39.8993  H     
43   H        69.0863   53.5846   40.6292  H     
44   H        68.6026   51.3830   39.7255  H     
45   H        70.0866   50.3994   38.0753  H     
46   H        72.0532   51.5846   37.3513  H     
47   H        78.7103   49.4908   41.1755  H     
48   H        78.4629   51.1161   40.5679  H     
49   H        80.7528   50.4467   40.1838  H     
50   H        80.3827   52.8410   40.6298  H     
51   H        81.9765   52.3511   41.2300  H     
52   H        80.6332   52.5859   42.3699  H     
53   H        81.2045   50.1501   43.1959  H     
54   H        82.3836   49.8688   41.8894  H     
55   H        80.9944   48.7912   42.0717  H     
@<TRIPOS>BOND
     1    1    2 1
     2    1    4 1
     3    2    3 2
     4   11    2 1
     5    3    6 1
     6    4    5 1
     7    4   10 2
     8    5    6 2
     9    5    9 1
    10    6    7 1
    11    7    8 1
    12    7   24 1
    13    8    9 2
    14   11   12 1
    15   11   15 1
    16   12   13 1
    17   12   16 1
    18   13   14 1
    19   14   15 1
    20   14   17 1
    21   17   18 1
    22   18   19 2
    23   18   23 1
    24   19   20 1
    25   20   21 2
    26   21   22 1
    27   22   23 2
    28   24   25 1
    29   25   26 1
    30   25   27 1
    31    1   28 1
    32    9   29 1
    33   11   30 1
    34   12   31 1
    35   13   32 1
    36   13   33 1
    37   14   34 1
    38   15   35 1
    39   15   36 1
    40   16   37 1
    41   16   38 1
    42   16   39 1
    43   17   40 1
    44   17   41 1
    45   19   42 1
    46   20   43 1
    47   21   44 1
    48   22   45 1
    49   23   46 1
    50   24   47 1
    51   24   48 1
    52   25   49 1
    53   26   50 1
    54   26   51 1
    55   26   52 1
    56   27   53 1
    57   27   54 1
    58   27   55 1
@<TRIPOS>PROPERTY_DATA
  Total_Score	| 7.5837
  Crash		| -1.8193
  Polar		| 2.2079
  FragIndex	| 1
  FragRMSD	| 0.732

