@<TRIPOS>MOLECULE
BindingDB_50300109
 59 63 0 0 0
SMALL
NO_CHARGES


@<TRIPOS>ATOM
1    N        75.1500   52.9113   44.0682  N     
2    C        75.4460   52.9710   42.7296  C     
3    N        76.5894   52.3721   42.2541  N     
4    C        75.9376   52.3052   44.9540  C     
5    C        77.0873   51.6827   44.4992  C     
6    C        77.4106   51.7209   43.1410  C     
7    N        78.5603   51.0232   42.9897  N     
8    N        78.9531   50.5780   44.1504  N     
9    C        78.0905   50.9487   45.1092  C     
10   O        75.6212   52.2918   46.1353  O     
11   C        74.5175   53.6959   41.8171  C     
12   C        74.9109   55.1709   41.5597  C     
13   C        74.2653   55.4598   40.1909  C     
14   N        74.5207   54.2170   39.4280  N     
15   C        74.3603   53.0952   40.3938  C     
16   C        74.4875   56.1649   42.6737  C     
17   C        73.7531   54.0938   38.1505  C     
18   C        79.2970   50.7571   41.7878  C     
19   C        78.4541   50.2064   40.6196  C     
20   C        79.3632   50.4044   39.3847  C     
21   C        80.2557   51.6324   39.6994  C     
22   C        80.0053   51.9871   41.1873  C     
23   C        74.3846   53.2521   37.1052  C     
24   N        73.8056   52.8323   35.9553  N     
25   N        74.6633   52.1727   35.2340  N     
26   C        75.8476   52.1241   35.8667  C     
27   C        75.7029   52.8044   37.0665  C     
28   C        72.4510   53.0395   35.5518  C     
29   C        77.0501   51.4672   35.3388  C     
30   H        74.3453   53.3570   44.3859  H     
31   H        78.1698   50.7261   46.1037  H     
32   H        73.5149   53.6966   42.2716  H     
33   H        75.9933   55.2456   41.4291  H     
34   H        73.1906   55.6433   40.2950  H     
35   H        74.7360   56.3202   39.7093  H     
36   H        75.5141   54.2492   39.1759  H     
37   H        75.1134   52.3324   40.1747  H     
38   H        73.3730   52.6219   40.3044  H     
39   H        73.4209   56.0862   42.8840  H     
40   H        74.7110   57.1867   42.3736  H     
41   H        75.0420   55.9445   43.5880  H     
42   H        72.7520   53.7044   38.3637  H     
43   H        73.6248   55.0833   37.7125  H     
44   H        80.0731   50.0131   42.0020  H     
45   H        78.1980   49.1473   40.7629  H     
46   H        77.5323   50.7939   40.5009  H     
47   H        79.9949   49.5158   39.2391  H     
48   H        78.7601   50.5655   38.4813  H     
49   H        81.3163   51.3933   39.5282  H     
50   H        79.9862   52.4786   39.0588  H     
51   H        79.3664   52.8794   41.2545  H     
52   H        80.9496   52.1901   41.7098  H     
53   H        76.4300   52.9542   37.7692  H     
54   H        71.7774   52.5594   36.2629  H     
55   H        72.2621   52.6170   34.5638  H     
56   H        72.2324   54.1073   35.5207  H     
57   H        76.8532   50.4030   35.2014  H     
58   H        77.8936   51.5872   36.0197  H     
59   H        77.3120   51.9080   34.3764  H     
@<TRIPOS>BOND
     1    1    2 1
     2    1    4 1
     3    2    3 2
     4   11    2 1
     5    3    6 1
     6    4    5 1
     7    4   10 2
     8    5    6 2
     9    5    9 1
    10    6    7 1
    11    7    8 1
    12    7   18 1
    13    8    9 2
    14   11   12 1
    15   11   15 1
    16   12   13 1
    17   12   16 1
    18   13   14 1
    19   14   15 1
    20   14   17 1
    21   17   23 1
    22   18   19 1
    23   18   22 1
    24   19   20 1
    25   20   21 1
    26   21   22 1
    27   23   24 1
    28   23   27 2
    29   24   25 1
    30   24   28 1
    31   25   26 2
    32   26   27 1
    33   26   29 1
    34    1   30 1
    35    9   31 1
    36   11   32 1
    37   12   33 1
    38   13   34 1
    39   13   35 1
    40   14   36 1
    41   15   37 1
    42   15   38 1
    43   16   39 1
    44   16   40 1
    45   16   41 1
    46   17   42 1
    47   17   43 1
    48   18   44 1
    49   19   45 1
    50   19   46 1
    51   20   47 1
    52   20   48 1
    53   21   49 1
    54   21   50 1
    55   22   51 1
    56   22   52 1
    57   27   53 1
    58   28   54 1
    59   28   55 1
    60   28   56 1
    61   29   57 1
    62   29   58 1
    63   29   59 1
@<TRIPOS>PROPERTY_DATA
  Total_Score	| 8.6387
  Crash		| -1.6602
  Polar		| 2.1651
  FragIndex	| 1
  FragRMSD	| 0.685

