@<TRIPOS>MOLECULE
BindingDB_50300104
 55 59 0 0 0
SMALL
NO_CHARGES


@<TRIPOS>ATOM
1    N        75.2378   52.9415   43.8485  N     
2    C        75.5870   52.9485   42.5250  C     
3    N        76.7636   52.3691   42.1551  N     
4    C        76.0003   52.3793   44.7903  C     
5    C        77.1818   51.7627   44.4110  C     
6    C        77.5600   51.7755   43.0762  C     
7    N        78.7236   51.1074   42.9576  N     
8    N        79.0896   50.6905   44.1365  N     
9    C        78.1862   51.0612   45.0639  C     
10   O        75.6478   52.4056   45.9626  O     
11   C        74.6863   53.5372   41.5003  C     
12   C        74.8588   55.0619   41.3034  C     
13   C        74.1450   55.2740   39.9515  C     
14   N        74.5860   54.1287   39.1239  N     
15   C        74.8232   52.9887   40.0518  C     
16   C        74.3193   55.9535   42.4517  C     
17   C        73.7236   53.8302   37.9438  C     
18   C        74.3421   53.0554   36.8348  C     
19   N        73.5480   52.7456   35.7736  N     
20   C        73.9805   52.0806   34.6727  C     
21   C        75.3241   51.6849   34.5895  C     
22   C        76.1920   51.9843   35.6529  C     
23   C        75.7058   52.6722   36.7806  C     
24   C        79.4847   50.8573   41.7617  C     
25   C        78.6908   50.2621   40.5698  C     
26   C        79.3702   50.7942   39.2829  C     
27   C        80.5198   51.7167   39.7370  C     
28   C        80.1705   52.1130   41.1822  C     
29   H        74.4046   53.3604   44.1194  H     
30   H        78.2382   50.8587   46.0670  H     
31   H        73.6531   53.3428   41.8227  H     
32   H        75.9208   55.2923   41.1675  H     
33   H        73.0611   55.2695   40.0916  H     
34   H        74.4449   56.2203   39.4908  H     
35   H        75.4985   54.3981   38.7450  H     
36   H        75.8288   52.6130   39.8481  H     
37   H        74.1242   52.1627   39.9017  H     
38   H        73.2859   55.6954   42.6980  H     
39   H        74.3573   57.0052   42.1546  H     
40   H        74.9351   55.8288   43.3458  H     
41   H        72.8293   53.3005   38.2768  H     
42   H        73.3877   54.7671   37.5039  H     
43   H        73.3243   51.8849   33.9183  H     
44   H        75.6634   51.1956   33.7613  H     
45   H        77.1736   51.7164   35.6011  H     
46   H        76.3585   52.9021   37.5394  H     
47   H        80.2857   50.1445   41.9990  H     
48   H        78.7173   49.1676   40.6003  H     
49   H        77.6434   50.5802   40.5903  H     
50   H        79.7525   49.9761   38.6686  H     
51   H        78.6525   51.3648   38.6855  H     
52   H        81.4680   51.1736   39.7224  H     
53   H        80.6094   52.5966   39.0935  H     
54   H        79.4920   52.9714   41.1705  H     
55   H        81.0666   52.3796   41.7508  H     
@<TRIPOS>BOND
     1    1    2 1
     2    1    4 1
     3    2    3 2
     4   11    2 1
     5    3    6 1
     6    4    5 1
     7    4   10 2
     8    5    6 2
     9    5    9 1
    10    6    7 1
    11    7    8 1
    12    7   24 1
    13    8    9 2
    14   11   12 1
    15   11   15 1
    16   12   13 1
    17   12   16 1
    18   13   14 1
    19   14   15 1
    20   14   17 1
    21   17   18 1
    22   18   19 2
    23   18   23 1
    24   19   20 1
    25   20   21 2
    26   21   22 1
    27   22   23 2
    28   24   25 1
    29   24   28 1
    30   25   26 1
    31   26   27 1
    32   27   28 1
    33    1   29 1
    34    9   30 1
    35   11   31 1
    36   12   32 1
    37   13   33 1
    38   13   34 1
    39   14   35 1
    40   15   36 1
    41   15   37 1
    42   16   38 1
    43   16   39 1
    44   16   40 1
    45   17   41 1
    46   17   42 1
    47   20   43 1
    48   21   44 1
    49   22   45 1
    50   23   46 1
    51   24   47 1
    52   25   48 1
    53   25   49 1
    54   26   50 1
    55   26   51 1
    56   27   52 1
    57   27   53 1
    58   28   54 1
    59   28   55 1
@<TRIPOS>PROPERTY_DATA
  Total_Score	| 8.6648
  Crash		| -0.9723
  Polar		| 2.1694
  FragIndex	| 1
  FragRMSD	| 0.751

