@<TRIPOS>MOLECULE
BindingDB_50300113
 60 65 0 0 0
SMALL
NO_CHARGES


@<TRIPOS>ATOM
1    N        75.1267   52.9148   43.9913  N     
2    C        75.4556   53.0046   42.6617  C     
3    N        76.6289   52.4460   42.2243  N     
4    C        75.9093   52.3167   44.8866  C     
5    C        77.0707   51.7065   44.4498  C     
6    C        77.4295   51.7750   43.1067  C     
7    N        78.5475   51.0330   42.9473  N     
8    N        78.9044   50.5506   44.1050  N     
9    C        78.0398   50.9300   45.0587  C     
10   O        75.5806   52.2868   46.0648  O     
11   C        74.5468   53.6883   41.7026  C     
12   C        74.9471   55.1497   41.3931  C     
13   C        74.2359   55.3823   40.0437  C     
14   N        74.5230   54.1397   39.2833  N     
15   C        74.4435   53.0359   40.2893  C     
16   C        74.5945   56.1876   42.4896  C     
17   C        73.7328   53.9718   38.0171  C     
18   C        79.2936   50.7749   41.7405  C     
19   C        78.4806   50.1848   40.5557  C     
20   C        79.1994   50.6662   39.2728  C     
21   C        80.3396   51.6091   39.7275  C     
22   C        79.9785   52.0287   41.1615  C     
23   C        74.3309   53.1383   36.9333  C     
24   C        75.6705   52.6764   36.9604  C     
25   C        76.2150   51.9749   35.8628  C     
26   C        73.5398   52.8583   35.7947  C     
27   C        74.0789   52.1662   34.6950  C     
28   C        75.4274   51.7277   34.7254  C     
29   N        75.9088   51.0888   33.6244  N     
30   C        75.1680   50.8684   32.5475  C     
31   C        73.8696   51.2941   32.5161  C     
32   N        73.3569   51.9227   33.5667  N     
33   H        74.2985   53.3245   44.2976  H     
34   H        78.0869   50.6701   46.0442  H     
35   H        73.5321   53.7049   42.1300  H     
36   H        76.0279   55.1991   41.2151  H     
37   H        73.1563   55.5119   40.1780  H     
38   H        74.6502   56.2531   39.5274  H     
39   H        75.5052   54.2231   39.0185  H     
40   H        75.2548   52.3248   40.0994  H     
41   H        73.4948   52.4940   40.2161  H     
42   H        73.5197   56.2102   42.6835  H     
43   H        74.9169   57.1817   42.1734  H     
44   H        75.1121   55.9372   43.4173  H     
45   H        72.7431   53.5655   38.2604  H     
46   H        73.5686   54.9612   37.5747  H     
47   H        80.0898   50.0559   41.9733  H     
48   H        78.4407   49.0912   40.6160  H     
49   H        77.4498   50.5633   40.5621  H     
50   H        79.5959   49.8226   38.7052  H     
51   H        78.4962   51.2151   38.6407  H     
52   H        81.2915   51.0659   39.7237  H     
53   H        80.4274   52.4811   39.0781  H     
54   H        79.2843   52.8730   41.1490  H     
55   H        80.8691   52.3021   41.7362  H     
56   H        76.2613   52.8593   37.7746  H     
57   H        77.1865   51.6648   35.8926  H     
58   H        72.5674   53.1824   35.7451  H     
59   H        75.5637   50.4008   31.7657  H     
60   H        73.3063   51.1419   31.7147  H     
@<TRIPOS>BOND
     1    1    2 1
     2    1    4 1
     3    2    3 2
     4   11    2 1
     5    3    6 1
     6    4    5 1
     7    4   10 2
     8    5    6 2
     9    5    9 1
    10    6    7 1
    11    7    8 1
    12    7   18 1
    13    8    9 2
    14   11   12 1
    15   11   15 1
    16   12   13 1
    17   12   16 1
    18   13   14 1
    19   14   15 1
    20   14   17 1
    21   17   23 1
    22   18   19 1
    23   18   22 1
    24   19   20 1
    25   20   21 1
    26   21   22 1
    27   23   24 2
    28   23   26 1
    29   24   25 1
    30   25   28 2
    31   26   27 2
    32   27   28 1
    33   27   32 1
    34   28   29 1
    35   29   30 2
    36   30   31 1
    37   31   32 2
    38    1   33 1
    39    9   34 1
    40   11   35 1
    41   12   36 1
    42   13   37 1
    43   13   38 1
    44   14   39 1
    45   15   40 1
    46   15   41 1
    47   16   42 1
    48   16   43 1
    49   16   44 1
    50   17   45 1
    51   17   46 1
    52   18   47 1
    53   19   48 1
    54   19   49 1
    55   20   50 1
    56   20   51 1
    57   21   52 1
    58   21   53 1
    59   22   54 1
    60   22   55 1
    61   24   56 1
    62   25   57 1
    63   26   58 1
    64   30   59 1
    65   31   60 1
@<TRIPOS>PROPERTY_DATA
  Total_Score	| 8.5251
  Crash		| -1.5242
  Polar		| 2.0943
  FragIndex	| 1
  FragRMSD	| 0.686

