@<TRIPOS>MOLECULE
BindingDB_50300108
 57 61 0 0 0
SMALL
NO_CHARGES


@<TRIPOS>ATOM
1    N        75.2733   52.9885   43.8506  N     
2    C        75.6078   52.9826   42.5198  C     
3    N        76.7647   52.3673   42.1341  N     
4    C        76.0385   52.4243   44.7887  C     
5    C        77.2014   51.7765   44.4004  C     
6    C        77.5561   51.7576   43.0569  C     
7    N        78.6926   51.0445   42.9281  N     
8    N        79.0641   50.6367   44.1107  N     
9    C        78.1910   51.0540   45.0484  C     
10   O        75.6954   52.4579   45.9625  O     
11   C        74.7152   53.5794   41.4888  C     
12   C        74.9082   55.0946   41.2718  C     
13   C        74.2182   55.3303   39.9071  C     
14   N        74.4738   54.1064   39.1090  N     
15   C        74.8655   53.0273   40.0478  C     
16   C        74.3738   55.9942   42.4167  C     
17   C        73.4982   53.7466   38.0319  C     
18   C        72.2838   52.9499   38.3616  C     
19   C        71.5977   52.9998   39.5972  C     
20   N        70.5041   52.2051   39.7785  N     
21   C        70.0131   51.3774   38.8136  C     
22   C        70.6825   51.3450   37.5733  C     
23   N        71.7862   52.1169   37.4046  N     
24   C        79.3961   50.7248   41.7149  C     
25   C        78.5321   50.0805   40.6106  C     
26   C        79.3003   50.3301   39.2964  C     
27   C        80.3035   51.4731   39.5809  C     
28   C        80.0388   51.9471   41.0235  C     
29   C        68.8626   50.5019   39.1082  C     
30   H        74.4503   53.4243   44.1277  H     
31   H        78.2484   50.8522   46.0478  H     
32   H        73.6772   53.3907   41.7879  H     
33   H        75.9813   55.2959   41.1533  H     
34   H        73.1484   55.5085   40.0237  H     
35   H        74.6680   56.1961   39.4109  H     
36   H        75.3373   54.3278   38.6054  H     
37   H        75.9106   52.7935   39.8235  H     
38   H        74.2892   52.1088   39.9301  H     
39   H        73.3266   55.7622   42.6368  H     
40   H        74.4494   57.0453   42.1294  H     
41   H        74.9665   55.8393   43.3212  H     
42   H        73.1835   54.6596   37.5224  H     
43   H        74.0761   53.1793   37.2928  H     
44   H        71.9129   53.5978   40.3682  H     
45   H        70.3771   50.7261   36.8200  H     
46   H        80.2055   50.0271   41.9550  H     
47   H        78.3757   49.0135   40.7922  H     
48   H        77.5500   50.5570   40.5470  H     
49   H        79.8249   49.4224   38.9863  H     
50   H        78.6038   50.6131   38.5047  H     
51   H        81.3281   51.1020   39.4883  H     
52   H        80.1724   52.3037   38.8838  H     
53   H        79.3439   52.7912   41.0203  H     
54   H        80.9639   52.2524   41.5216  H     
55   H        69.1195   49.8198   39.9228  H     
56   H        68.5819   49.9041   38.2370  H     
57   H        68.0029   51.1047   39.4066  H     
@<TRIPOS>BOND
     1    1    2 1
     2    1    4 1
     3    2    3 2
     4   11    2 1
     5    3    6 1
     6    4    5 1
     7    4   10 2
     8    5    6 2
     9    5    9 1
    10    6    7 1
    11    7    8 1
    12    7   24 1
    13    8    9 2
    14   11   12 1
    15   11   15 1
    16   12   13 1
    17   12   16 1
    18   13   14 1
    19   14   15 1
    20   14   17 1
    21   17   18 1
    22   18   19 2
    23   18   23 1
    24   19   20 1
    25   20   21 2
    26   21   22 1
    27   21   29 1
    28   22   23 2
    29   24   25 1
    30   24   28 1
    31   25   26 1
    32   26   27 1
    33   27   28 1
    34    1   30 1
    35    9   31 1
    36   11   32 1
    37   12   33 1
    38   13   34 1
    39   13   35 1
    40   14   36 1
    41   15   37 1
    42   15   38 1
    43   16   39 1
    44   16   40 1
    45   16   41 1
    46   17   42 1
    47   17   43 1
    48   19   44 1
    49   22   45 1
    50   24   46 1
    51   25   47 1
    52   25   48 1
    53   26   49 1
    54   26   50 1
    55   27   51 1
    56   27   52 1
    57   28   53 1
    58   28   54 1
    59   29   55 1
    60   29   56 1
    61   29   57 1
@<TRIPOS>PROPERTY_DATA
  Total_Score	| 8.6852
  Crash		| -0.7861
  Polar		| 2.2380
  FragIndex	| 1
  FragRMSD	| 0.724

