@<TRIPOS>MOLECULE
BindingDB_50300106
 58 62 0 0 0
SMALL
NO_CHARGES


@<TRIPOS>ATOM
1    N        75.1835   52.9159   43.9948  N     
2    C        75.5140   52.9589   42.6640  C     
3    N        76.6811   52.3819   42.2599  N     
4    C        75.9577   52.3269   44.9087  C     
5    C        77.1308   51.7146   44.4998  C     
6    C        77.4877   51.7510   43.1586  C     
7    N        78.6386   51.0628   43.0070  N     
8    N        79.0134   50.6202   44.1772  N     
9    C        78.1316   50.9888   45.1224  C     
10   O        75.6197   52.3197   46.0836  O     
11   C        74.6163   53.6123   41.6742  C     
12   C        74.8891   55.1229   41.4781  C     
13   C        74.2288   55.3855   40.1088  C     
14   N        74.6202   54.2126   39.2864  N     
15   C        74.6797   53.0549   40.2207  C     
16   C        74.3879   56.0463   42.6196  C     
17   C        73.8240   54.0015   38.0351  C     
18   C        74.4822   53.1994   36.9597  C     
19   C        73.7545   52.8729   35.7903  C     
20   N        74.3305   52.1527   34.7956  N     
21   C        75.6144   51.7024   34.8301  C     
22   C        76.3933   52.0145   35.9663  C     
23   C        75.8276   52.7640   37.0180  C     
24   C        79.3752   50.8077   41.7945  C     
25   C        78.5535   50.1772   40.6459  C     
26   C        79.1974   50.6693   39.3283  C     
27   C        80.3221   51.6509   39.7192  C     
28   C        80.0141   52.0647   41.1679  C     
29   C        76.1191   50.9429   33.6568  C     
30   F        77.4226   50.5213   33.7780  F     
31   F        75.3446   49.8279   33.4471  F     
32   F        76.0424   51.7334   32.5363  F     
33   H        74.3584   53.3360   44.2858  H     
34   H        78.1891   50.7600   46.1162  H     
35   H        73.5843   53.4907   42.0249  H     
36   H        75.9667   55.2845   41.3687  H     
37   H        73.1402   55.4563   40.2101  H     
38   H        74.6066   56.3101   39.6650  H     
39   H        75.5818   54.4072   38.9964  H     
40   H        75.6139   52.5317   40.0141  H     
41   H        73.8613   52.3452   40.0643  H     
42   H        73.3264   55.8890   42.8182  H     
43   H        74.5415   57.0943   42.3533  H     
44   H        74.9510   55.8418   43.5324  H     
45   H        72.8689   53.5360   38.2997  H     
46   H        73.5821   54.9743   37.6070  H     
47   H        72.7844   53.1738   35.6756  H     
48   H        77.3678   51.7118   36.0368  H     
49   H        76.4124   53.0035   37.8210  H     
50   H        80.1962   50.1152   42.0224  H     
51   H        78.5799   49.0849   40.7063  H     
52   H        77.5078   50.4950   40.6814  H     
53   H        79.6044   49.8339   38.7511  H     
54   H        78.4518   51.1822   38.7130  H     
55   H        81.2913   51.1455   39.6776  H     
56   H        80.3524   52.5202   39.0553  H     
57   H        79.3160   52.9053   41.1687  H     
58   H        80.9223   52.3581   41.7004  H     
@<TRIPOS>BOND
     1    1    2 1
     2    1    4 1
     3    2    3 2
     4   11    2 1
     5    3    6 1
     6    4    5 1
     7    4   10 2
     8    5    6 2
     9    5    9 1
    10    6    7 1
    11    7    8 1
    12    7   24 1
    13    8    9 2
    14   11   12 1
    15   11   15 1
    16   12   13 1
    17   12   16 1
    18   13   14 1
    19   14   15 1
    20   14   17 1
    21   17   18 1
    22   18   19 2
    23   18   23 1
    24   19   20 1
    25   20   21 2
    26   21   22 1
    27   21   29 1
    28   22   23 2
    29   24   25 1
    30   24   28 1
    31   25   26 1
    32   26   27 1
    33   27   28 1
    34   29   30 1
    35   29   31 1
    36   29   32 1
    37    1   33 1
    38    9   34 1
    39   11   35 1
    40   12   36 1
    41   13   37 1
    42   13   38 1
    43   14   39 1
    44   15   40 1
    45   15   41 1
    46   16   42 1
    47   16   43 1
    48   16   44 1
    49   17   45 1
    50   17   46 1
    51   19   47 1
    52   22   48 1
    53   23   49 1
    54   24   50 1
    55   25   51 1
    56   25   52 1
    57   26   53 1
    58   26   54 1
    59   27   55 1
    60   27   56 1
    61   28   57 1
    62   28   58 1
@<TRIPOS>PROPERTY_DATA
  Total_Score	| 8.8613
  Crash		| -1.5076
  Polar		| 2.1662
  FragIndex	| 1
  FragRMSD	| 0.734

