@<TRIPOS>MOLECULE
BindingDB_50300105
 59 63 0 0 0
SMALL
NO_CHARGES


@<TRIPOS>ATOM
1    N        75.2393   52.9825   43.9074  N     
2    C        75.5917   53.0127   42.5839  C     
3    N        76.7459   52.3919   42.1987  N     
4    C        75.9708   52.3659   44.8370  C     
5    C        77.1356   51.7173   44.4529  C     
6    C        77.5221   51.7460   43.1198  C     
7    N        78.6673   51.0400   42.9982  N     
8    N        79.0018   50.5849   44.1766  N     
9    C        78.1005   50.9639   45.0998  C     
10   O        75.6061   52.3583   46.0034  O     
11   C        74.7106   53.6743   41.5853  C     
12   C        74.9244   55.1959   41.4320  C     
13   C        74.1966   55.4926   40.1069  C     
14   N        74.4311   54.3083   39.2432  N     
15   C        74.8666   53.1881   40.1208  C     
16   C        74.4342   56.0670   42.6148  C     
17   C        73.3906   53.9985   38.2053  C     
18   C        72.2361   53.1446   38.6277  C     
19   C        72.0897   51.8341   38.1064  C     
20   N        71.0615   51.0446   38.4943  N     
21   C        70.1117   51.4475   39.3719  C     
22   C        70.1774   52.7506   39.9077  C     
23   C        71.2324   53.5984   39.5150  C     
24   C        79.4193   50.7744   41.8007  C     
25   C        78.6042   50.1409   40.6512  C     
26   C        79.4070   50.4463   39.3680  C     
27   C        80.4066   51.5762   39.7198  C     
28   C        80.0727   52.0154   41.1594  C     
29   O        69.1292   50.5769   39.7460  O     
30   C        67.8845   50.7368   39.0458  C     
31   H        74.4234   53.4227   44.1837  H     
32   H        78.1246   50.7275   46.0956  H     
33   H        73.6713   53.4917   41.8827  H     
34   H        75.9874   55.3958   41.2823  H     
35   H        73.1304   55.6479   40.2910  H     
36   H        74.6037   56.3926   39.6300  H     
37   H        75.2602   54.5566   38.6989  H     
38   H        75.9141   52.9870   39.8760  H     
39   H        74.3042   52.2639   39.9692  H     
40   H        73.3907   55.8418   42.8558  H     
41   H        74.5133   57.1255   42.3531  H     
42   H        75.0519   55.8829   43.4960  H     
43   H        73.0023   54.9276   37.7820  H     
44   H        73.9278   53.5076   37.3869  H     
45   H        72.7688   51.4549   37.4440  H     
46   H        69.4685   53.0800   40.5672  H     
47   H        71.2535   54.5533   39.8810  H     
48   H        80.2307   50.0740   42.0468  H     
49   H        78.4861   49.0642   40.7911  H     
50   H        77.6104   50.5922   40.5803  H     
51   H        79.9513   49.5539   39.0412  H     
52   H        78.7376   50.7554   38.5613  H     
53   H        81.4328   51.1970   39.6740  H     
54   H        80.3186   52.4178   39.0272  H     
55   H        79.3762   52.8559   41.1311  H     
56   H        80.9728   52.3222   41.6999  H     
57   H        67.4089   51.6922   39.2878  H     
58   H        67.2145   49.9359   39.3679  H     
59   H        68.0092   50.6575   37.9608  H     
@<TRIPOS>BOND
     1    1    2 1
     2    1    4 1
     3    2    3 2
     4   11    2 1
     5    3    6 1
     6    4    5 1
     7    4   10 2
     8    5    6 2
     9    5    9 1
    10    6    7 1
    11    7    8 1
    12    7   24 1
    13    8    9 2
    14   11   12 1
    15   11   15 1
    16   12   13 1
    17   12   16 1
    18   13   14 1
    19   14   15 1
    20   14   17 1
    21   17   18 1
    22   18   19 2
    23   18   23 1
    24   19   20 1
    25   20   21 2
    26   21   22 1
    27   21   29 1
    28   22   23 2
    29   24   25 1
    30   24   28 1
    31   25   26 1
    32   26   27 1
    33   27   28 1
    34   29   30 1
    35    1   31 1
    36    9   32 1
    37   11   33 1
    38   12   34 1
    39   13   35 1
    40   13   36 1
    41   14   37 1
    42   15   38 1
    43   15   39 1
    44   16   40 1
    45   16   41 1
    46   16   42 1
    47   17   43 1
    48   17   44 1
    49   19   45 1
    50   22   46 1
    51   23   47 1
    52   24   48 1
    53   25   49 1
    54   25   50 1
    55   26   51 1
    56   26   52 1
    57   27   53 1
    58   27   54 1
    59   28   55 1
    60   28   56 1
    61   30   57 1
    62   30   58 1
    63   30   59 1
@<TRIPOS>PROPERTY_DATA
  Total_Score	| 9.2952
  Crash		| -1.2045
  Polar		| 2.2052
  FragIndex	| 1
  FragRMSD	| 0.729

