@<TRIPOS>MOLECULE
BindingDB_50300107
 57 61 0 0 0
SMALL
NO_CHARGES


@<TRIPOS>ATOM
1    N        75.2404   52.9877   43.8135  N     
2    C        75.5883   52.9831   42.4863  C     
3    N        76.7286   52.3382   42.1013  N     
4    C        75.9744   52.3871   44.7535  C     
5    C        77.1271   51.7164   44.3724  C     
6    C        77.5051   51.7150   43.0325  C     
7    N        78.6451   50.9980   42.9201  N     
8    N        78.9799   50.5565   44.1034  N     
9    C        78.0882   50.9609   45.0251  C     
10   O        75.6064   52.4055   45.9211  O     
11   C        74.6707   53.5656   41.4731  C     
12   C        74.7974   55.0922   41.2480  C     
13   C        73.9922   55.2680   39.9400  C     
14   N        74.3800   54.1011   39.1051  N     
15   C        74.8228   53.0139   40.0254  C     
16   C        74.3071   55.9981   42.4061  C     
17   C        73.4632   53.7239   37.9873  C     
18   C        72.2827   52.8901   38.3467  C     
19   C        72.3256   51.4815   38.2631  C     
20   N        71.2369   50.7394   38.5823  N     
21   C        70.0846   51.3087   39.0189  C     
22   N        70.0174   52.6636   39.1164  N     
23   C        71.0663   53.4583   38.7870  C     
24   C        79.4166   50.7259   41.7384  C     
25   C        78.6398   50.0584   40.5793  C     
26   C        79.4403   50.3959   39.2969  C     
27   C        80.4334   51.5226   39.6697  C     
28   C        80.0540   51.9752   41.0957  C     
29   C        68.9435   50.4547   39.3805  C     
30   H        74.4239   53.4397   44.0805  H     
31   H        78.1198   50.7404   46.0216  H     
32   H        73.6465   53.3381   41.7944  H     
33   H        75.8446   55.3350   41.0426  H     
34   H        72.9185   55.2673   40.1637  H     
35   H        74.2537   56.2049   39.4367  H     
36   H        75.2327   54.4089   38.6271  H     
37   H        75.8745   52.8112   39.7700  H     
38   H        74.2527   52.0814   39.9178  H     
39   H        73.2864   55.7316   42.6916  H     
40   H        74.3285   57.0427   42.0907  H     
41   H        74.9651   55.8873   43.2704  H     
42   H        73.1107   54.6329   37.4967  H     
43   H        74.0590   53.2015   37.2313  H     
44   H        73.1688   51.0028   37.9351  H     
45   H        70.9607   54.4683   38.8731  H     
46   H        80.2368   50.0515   42.0079  H     
47   H        78.5593   48.9729   40.7262  H     
48   H        77.6255   50.4765   40.5026  H     
49   H        79.9843   49.5148   38.9418  H     
50   H        78.7545   50.7229   38.5101  H     
51   H        81.4579   51.1371   39.6653  H     
52   H        80.3722   52.3565   38.9652  H     
53   H        79.3364   52.8057   41.0475  H     
54   H        80.9340   52.3023   41.6591  H     
55   H        68.5988   49.9088   38.4999  H     
56   H        68.1181   51.0532   39.7691  H     
57   H        69.2501   49.7382   40.1459  H     
@<TRIPOS>BOND
     1    1    2 1
     2    1    4 1
     3    2    3 2
     4   11    2 1
     5    3    6 1
     6    4    5 1
     7    4   10 2
     8    5    6 2
     9    5    9 1
    10    6    7 1
    11    7    8 1
    12    7   24 1
    13    8    9 2
    14   11   12 1
    15   11   15 1
    16   12   13 1
    17   12   16 1
    18   13   14 1
    19   14   15 1
    20   14   17 1
    21   17   18 1
    22   18   19 2
    23   18   23 1
    24   19   20 1
    25   20   21 2
    26   21   22 1
    27   21   29 1
    28   22   23 2
    29   24   25 1
    30   24   28 1
    31   25   26 1
    32   26   27 1
    33   27   28 1
    34    1   30 1
    35    9   31 1
    36   11   32 1
    37   12   33 1
    38   13   34 1
    39   13   35 1
    40   14   36 1
    41   15   37 1
    42   15   38 1
    43   16   39 1
    44   16   40 1
    45   16   41 1
    46   17   42 1
    47   17   43 1
    48   19   44 1
    49   23   45 1
    50   24   46 1
    51   25   47 1
    52   25   48 1
    53   26   49 1
    54   26   50 1
    55   27   51 1
    56   27   52 1
    57   28   53 1
    58   28   54 1
    59   29   55 1
    60   29   56 1
    61   29   57 1
@<TRIPOS>PROPERTY_DATA
  Total_Score	| 8.7380
  Crash		| -0.8151
  Polar		| 2.1975
  FragIndex	| 1
  FragRMSD	| 0.705

