@<TRIPOS>MOLECULE
BindingDB_50300112
 60 65 0 0 0
SMALL
NO_CHARGES


@<TRIPOS>ATOM
1    N        75.3660   52.9686   43.7882  N     
2    C        75.8065   53.0445   42.4921  C     
3    N        76.9639   52.4049   42.1425  N     
4    C        76.0272   52.2960   44.7354  C     
5    C        77.1946   51.6317   44.3881  C     
6    C        77.6621   51.7003   43.0780  C     
7    N        78.8203   51.0081   43.0109  N     
8    N        79.0848   50.5265   44.1960  N     
9    C        78.1264   50.8683   45.0744  C     
10   O        75.6106   52.3074   45.8865  O     
11   C        75.1448   53.8881   41.4605  C     
12   C        73.9122   54.7138   41.9191  C     
13   C        73.0482   54.7829   40.6393  C     
14   N        73.2055   53.4348   40.0527  N     
15   C        74.6467   53.1197   40.2021  C     
16   C        74.2712   56.1068   42.5052  C     
17   C        72.6187   53.2188   38.6934  C     
18   C        79.6875   50.7830   41.8769  C     
19   C        79.0350   49.9254   40.7603  C     
20   C        78.9084   50.8418   39.5314  C     
21   C        80.0827   51.8186   39.6642  C     
22   C        80.1880   52.0767   41.1783  C     
23   C        71.2396   52.6640   38.8005  C     
24   C        71.0434   51.2758   39.0060  C     
25   C        69.7507   50.7381   39.1324  C     
26   C        70.1056   53.5109   38.7332  C     
27   C        68.8072   52.9742   38.8486  C     
28   C        68.6317   51.5820   39.0452  C     
29   N        67.3604   51.1037   39.1252  N     
30   C        66.2935   51.8861   39.0268  C     
31   C        66.4575   53.2281   38.8508  C     
32   N        67.6802   53.7368   38.7668  N     
33   H        74.5614   53.4475   44.0411  H     
34   H        78.1125   50.6123   46.0628  H     
35   H        75.9043   54.6002   41.1231  H     
36   H        73.3387   54.1575   42.6679  H     
37   H        72.0015   54.9990   40.8789  H     
38   H        73.4327   55.5523   39.9604  H     
39   H        72.7180   52.7958   40.6836  H     
40   H        75.2101   53.4596   39.3257  H     
41   H        74.7704   52.0357   40.2984  H     
42   H        75.0065   56.0010   43.3078  H     
43   H        73.3774   56.5886   42.9125  H     
44   H        74.6947   56.7467   41.7241  H     
45   H        72.6326   54.1436   38.1085  H     
46   H        73.2379   52.5033   38.1386  H     
47   H        80.5786   50.2436   42.2195  H     
48   H        79.6848   49.0812   40.5119  H     
49   H        78.0609   49.5254   41.0506  H     
50   H        78.9562   50.2796   38.5959  H     
51   H        77.9633   51.3893   39.5667  H     
52   H        80.9997   51.3541   39.2900  H     
53   H        79.9045   52.7401   39.1072  H     
54   H        79.5716   52.9372   41.4443  H     
55   H        81.2211   52.3067   41.4505  H     
56   H        71.8455   50.6463   39.0697  H     
57   H        69.6285   49.7350   39.2827  H     
58   H        70.2225   54.5193   38.5992  H     
59   H        65.3886   51.4853   39.0812  H     
60   H        65.6689   53.8261   38.7771  H     
@<TRIPOS>BOND
     1    1    2 1
     2    1    4 1
     3    2    3 2
     4   11    2 1
     5    3    6 1
     6    4    5 1
     7    4   10 2
     8    5    6 2
     9    5    9 1
    10    6    7 1
    11    7    8 1
    12    7   18 1
    13    8    9 2
    14   11   12 1
    15   11   15 1
    16   12   13 1
    17   12   16 1
    18   13   14 1
    19   14   15 1
    20   14   17 1
    21   17   23 1
    22   18   19 1
    23   18   22 1
    24   19   20 1
    25   20   21 1
    26   21   22 1
    27   23   24 2
    28   23   26 1
    29   24   25 1
    30   25   28 2
    31   26   27 2
    32   27   28 1
    33   27   32 1
    34   28   29 1
    35   29   30 2
    36   30   31 1
    37   31   32 2
    38    1   33 1
    39    9   34 1
    40   11   35 1
    41   12   36 1
    42   13   37 1
    43   13   38 1
    44   14   39 1
    45   15   40 1
    46   15   41 1
    47   16   42 1
    48   16   43 1
    49   16   44 1
    50   17   45 1
    51   17   46 1
    52   18   47 1
    53   19   48 1
    54   19   49 1
    55   20   50 1
    56   20   51 1
    57   21   52 1
    58   21   53 1
    59   22   54 1
    60   22   55 1
    61   24   56 1
    62   25   57 1
    63   26   58 1
    64   30   59 1
    65   31   60 1
@<TRIPOS>PROPERTY_DATA
  Total_Score	| 8.1969
  Crash		| -1.8567
  Polar		| 2.1266
  FragIndex	| 1
  FragRMSD	| 0.914

