@<TRIPOS>MOLECULE
BindingDB_50300101
 52 55 0 0 0
SMALL
NO_CHARGES


@<TRIPOS>ATOM
1    N        75.1980   52.9923   43.8381  N     
2    C        75.4803   53.0447   42.4974  C     
3    N        76.6289   52.4684   42.0457  N     
4    C        76.0058   52.3994   44.7184  C     
5    C        77.1538   51.7733   44.2563  C     
6    C        77.4523   51.8173   42.9047  C     
7    N        78.5772   51.0997   42.6943  N     
8    N        78.9904   50.6324   43.8418  N     
9    C        78.1611   51.0158   44.8298  C     
10   O        75.7277   52.4005   45.9096  O     
11   C        74.5585   53.7119   41.5451  C     
12   C        74.8779   55.1993   41.2844  C     
13   C        74.0454   55.4743   40.0129  C     
14   N        74.1966   54.2551   39.1843  N     
15   C        74.5560   53.1371   40.1065  C     
16   C        74.5717   56.1539   42.4676  C     
17   C        73.1588   54.0133   38.1283  C     
18   C        71.9673   53.2136   38.5371  C     
19   C        71.0032   53.7303   39.4335  C     
20   C        69.9389   52.9323   39.8881  C     
21   C        69.8303   51.5960   39.4682  C     
22   C        70.7691   51.0676   38.5637  C     
23   C        71.8276   51.8704   38.1003  C     
24   C        79.2387   50.8268   41.4406  C     
25   C        78.2907   50.1383   40.4198  C     
26   C        79.8944   52.1007   40.8489  C     
27   H        74.3912   53.4173   44.1658  H     
28   H        78.2491   50.7651   45.8156  H     
29   H        73.5383   53.6335   41.9357  H     
30   H        75.9359   55.3024   41.0305  H     
31   H        72.9973   55.6463   40.2674  H     
32   H        74.4285   56.3470   39.4795  H     
33   H        75.0572   54.4335   38.6529  H     
34   H        75.5474   52.7846   39.8052  H     
35   H        73.8855   52.2756   40.0606  H     
36   H        73.5308   56.0739   42.7803  H     
37   H        74.7763   57.1856   42.1727  H     
38   H        75.2135   55.9077   43.3174  H     
39   H        72.8091   54.9582   37.7102  H     
40   H        73.6787   53.5119   37.3088  H     
41   H        71.0664   54.6957   39.7660  H     
42   H        69.2511   53.3194   40.5390  H     
43   H        69.0681   51.0089   39.8115  H     
44   H        70.6980   50.0945   38.2641  H     
45   H        72.5091   51.4617   37.4589  H     
46   H        80.0546   50.1175   41.6332  H     
47   H        77.8410   49.2495   40.8637  H     
48   H        78.8506   49.8287   39.5362  H     
49   H        77.4937   50.8140   40.1086  H     
50   H        79.1377   52.8417   40.5903  H     
51   H        80.4577   51.8522   39.9495  H     
52   H        80.5805   52.5401   41.5750  H     
@<TRIPOS>BOND
     1    1    2 1
     2    1    4 1
     3    2    3 2
     4   11    2 1
     5    3    6 1
     6    4    5 1
     7    4   10 2
     8    5    6 2
     9    5    9 1
    10    6    7 1
    11    7    8 1
    12    7   24 1
    13    8    9 2
    14   11   12 1
    15   11   15 1
    16   12   13 1
    17   12   16 1
    18   13   14 1
    19   14   15 1
    20   14   17 1
    21   17   18 1
    22   18   19 2
    23   18   23 1
    24   19   20 1
    25   20   21 2
    26   21   22 1
    27   22   23 2
    28   24   25 1
    29   24   26 1
    30    1   27 1
    31    9   28 1
    32   11   29 1
    33   12   30 1
    34   13   31 1
    35   13   32 1
    36   14   33 1
    37   15   34 1
    38   15   35 1
    39   16   36 1
    40   16   37 1
    41   16   38 1
    42   17   39 1
    43   17   40 1
    44   19   41 1
    45   20   42 1
    46   21   43 1
    47   22   44 1
    48   23   45 1
    49   24   46 1
    50   25   47 1
    51   25   48 1
    52   25   49 1
    53   26   50 1
    54   26   51 1
    55   26   52 1
@<TRIPOS>PROPERTY_DATA
  Total_Score	| 7.8666
  Crash		| -1.2070
  Polar		| 2.1474
  FragIndex	| 1
  FragRMSD	| 0.496

