@<TRIPOS>MOLECULE
BindingDB_50300111
 59 64 0 0 0
SMALL
NO_CHARGES


@<TRIPOS>ATOM
1    N        75.0244   52.9194   44.0977  N     
2    C        75.3432   53.0137   42.7687  C     
3    N        76.4810   52.4142   42.3152  N     
4    C        75.7761   52.2543   44.9735  C     
5    C        76.9147   51.6099   44.5192  C     
6    C        77.2656   51.6979   43.1784  C     
7    N        78.3972   50.9770   43.0059  N     
8    N        78.7549   50.4669   44.1559  N     
9    C        77.8842   50.8283   45.1144  C     
10   O        75.4545   52.2260   46.1524  O     
11   C        74.4589   53.8026   41.8658  C     
12   C        75.0701   55.1625   41.4570  C     
13   C        74.3920   55.4315   40.1000  C     
14   N        74.3152   54.1107   39.4197  N     
15   C        74.1083   53.1184   40.5141  C     
16   C        74.8752   56.3057   42.4861  C     
17   C        75.4706   53.8141   38.5043  C     
18   C        79.1394   50.7484   41.7949  C     
19   C        78.3102   50.1006   40.6537  C     
20   C        78.9951   50.5770   39.3638  C     
21   C        79.4086   52.0243   39.6912  C     
22   C        79.7837   52.0256   41.1888  C     
23   C        75.2541   52.6086   37.6750  C     
24   C        74.6500   52.5642   36.4128  C     
25   N        75.6210   51.3564   38.0127  N     
26   C        75.2472   50.5583   36.9979  C     
27   N        74.6533   51.2781   36.0152  N     
28   C        74.1802   50.7013   34.8917  C     
29   C        74.2899   49.3627   34.7507  C     
30   C        74.8835   48.6073   35.7415  C     
31   C        75.3774   49.1800   36.8634  C     
32   H        74.2280   53.3687   44.4224  H     
33   H        77.9378   50.5693   46.0986  H     
34   H        73.5120   53.9973   42.3842  H     
35   H        76.1409   55.0479   41.2766  H     
36   H        73.3708   55.7997   40.2508  H     
37   H        74.9351   56.1917   39.5276  H     
38   H        73.4727   54.1210   38.8352  H     
39   H        74.6964   52.2114   40.3605  H     
40   H        73.0553   52.8240   40.5079  H     
41   H        73.8178   56.4667   42.7003  H     
42   H        75.2957   57.2348   42.0971  H     
43   H        75.3845   56.0647   43.4193  H     
44   H        75.6187   54.6633   37.8313  H     
45   H        76.3923   53.6815   39.0799  H     
46   H        79.9658   50.0557   42.0134  H     
47   H        78.3163   49.0096   40.7246  H     
48   H        77.2752   50.4537   40.6688  H     
49   H        79.8766   49.9621   39.1554  H     
50   H        78.3121   50.5404   38.5063  H     
51   H        80.2380   52.3547   39.0580  H     
52   H        78.5473   52.6807   39.5369  H     
53   H        79.4285   52.9419   41.6704  H     
54   H        80.8727   51.9911   41.2975  H     
55   H        74.2696   53.3561   35.8935  H     
56   H        73.7548   51.2500   34.1818  H     
57   H        73.9364   48.9164   33.9365  H     
58   H        74.9468   47.6211   35.6280  H     
59   H        75.8075   48.6375   37.5774  H     
@<TRIPOS>BOND
     1    1    2 1
     2    1    4 1
     3    2    3 2
     4   11    2 1
     5    3    6 1
     6    4    5 1
     7    4   10 2
     8    5    6 2
     9    5    9 1
    10    6    7 1
    11    7    8 1
    12    7   18 1
    13    8    9 2
    14   11   12 1
    15   11   15 1
    16   12   13 1
    17   12   16 1
    18   13   14 1
    19   14   15 1
    20   14   17 1
    21   17   23 1
    22   18   19 1
    23   18   22 1
    24   19   20 1
    25   20   21 1
    26   21   22 1
    27   23   24 2
    28   23   25 1
    29   24   27 1
    30   25   26 2
    31   26   27 1
    32   26   31 1
    33   27   28 1
    34   28   29 2
    35   29   30 1
    36   30   31 2
    37    1   32 1
    38    9   33 1
    39   11   34 1
    40   12   35 1
    41   13   36 1
    42   13   37 1
    43   14   38 1
    44   15   39 1
    45   15   40 1
    46   16   41 1
    47   16   42 1
    48   16   43 1
    49   17   44 1
    50   17   45 1
    51   18   46 1
    52   19   47 1
    53   19   48 1
    54   20   49 1
    55   20   50 1
    56   21   51 1
    57   21   52 1
    58   22   53 1
    59   22   54 1
    60   24   55 1
    61   28   56 1
    62   29   57 1
    63   30   58 1
    64   31   59 1
@<TRIPOS>PROPERTY_DATA
  Total_Score	| 7.8671
  Crash		| -1.9459
  Polar		| 2.0194
  FragIndex	| 1
  FragRMSD	| 0.863

