@<TRIPOS>MOLECULE
BindingDB_50300102
 56 60 0 0 0
SMALL
NO_CHARGES


@<TRIPOS>ATOM
1    N        75.2422   53.0440   44.0727  N     
2    C        75.3878   53.0191   42.7108  C     
3    N        76.4350   52.3358   42.1703  N     
4    C        76.0884   52.4289   44.8990  C     
5    C        77.1435   51.7117   44.3524  C     
6    C        77.3080   51.6645   42.9698  C     
7    N        78.3485   50.8448   42.6936  N     
8    N        78.8076   50.3897   43.8316  N     
9    C        78.1328   50.8997   44.8729  C     
10   O        75.8995   52.4772   46.1089  O     
11   C        74.4140   53.7453   41.8558  C     
12   C        74.8173   55.2210   41.5916  C     
13   C        74.1447   55.5085   40.2383  C     
14   N        74.4492   54.2767   39.4791  N     
15   C        74.1720   53.1668   40.4287  C     
16   C        74.4372   56.2280   42.7045  C     
17   C        73.8101   54.1707   38.1317  C     
18   C        74.4726   53.2674   37.1429  C     
19   C        75.8222   52.8482   37.2513  C     
20   C        76.4118   52.0479   36.2535  C     
21   C        75.6627   51.6592   35.1286  C     
22   C        74.3292   52.0793   34.9961  C     
23   C        73.7468   52.8873   35.9880  C     
24   C        78.8081   50.3387   41.4090  C     
25   C        78.6578   51.2661   40.1754  C     
26   C        79.8692   52.2183   40.2510  C     
27   C        80.9619   51.4563   41.0358  C     
28   C        80.3409   50.0864   41.3674  C     
29   H        74.4878   53.5229   44.4543  H     
30   H        78.2958   50.6810   45.8613  H     
31   H        73.4480   53.7352   42.3728  H     
32   H        75.8992   55.2845   41.4353  H     
33   H        73.0626   55.6525   40.3473  H     
34   H        74.5803   56.3894   39.7584  H     
35   H        75.4621   54.3039   39.3310  H     
36   H        74.8189   52.3202   40.1865  H     
37   H        73.1324   52.8249   40.3478  H     
38   H        73.3760   56.1579   42.9495  H     
39   H        74.6553   57.2472   42.3794  H     
40   H        75.0222   56.0213   43.6029  H     
41   H        72.7606   53.8783   38.2560  H     
42   H        73.8022   55.1588   37.6729  H     
43   H        76.3990   53.1356   38.0434  H     
44   H        77.3873   51.7559   36.3408  H     
45   H        76.0951   51.0809   34.4050  H     
46   H        73.7866   51.8079   34.1715  H     
47   H        72.7806   53.1987   35.8599  H     
48   H        78.2746   49.3991   41.2192  H     
49   H        78.7215   50.6694   39.2573  H     
50   H        77.7165   51.8117   40.1423  H     
51   H        80.2143   52.5038   39.2525  H     
52   H        79.5867   53.1239   40.7958  H     
53   H        81.8768   51.3398   40.4505  H     
54   H        81.2055   51.9911   41.9610  H     
55   H        80.7443   49.6826   42.2998  H     
56   H        80.5745   49.3710   40.5694  H     
@<TRIPOS>BOND
     1    1    2 1
     2    1    4 1
     3    2    3 2
     4   11    2 1
     5    3    6 1
     6    4    5 1
     7    4   10 2
     8    5    6 2
     9    5    9 1
    10    6    7 1
    11    7    8 1
    12    7   24 1
    13    8    9 2
    14   11   12 1
    15   11   15 1
    16   12   13 1
    17   12   16 1
    18   13   14 1
    19   14   15 1
    20   14   17 1
    21   17   18 1
    22   18   19 2
    23   18   23 1
    24   19   20 1
    25   20   21 2
    26   21   22 1
    27   22   23 2
    28   24   25 1
    29   24   28 1
    30   25   26 1
    31   26   27 1
    32   27   28 1
    33    1   29 1
    34    9   30 1
    35   11   31 1
    36   12   32 1
    37   13   33 1
    38   13   34 1
    39   14   35 1
    40   15   36 1
    41   15   37 1
    42   16   38 1
    43   16   39 1
    44   16   40 1
    45   17   41 1
    46   17   42 1
    47   19   43 1
    48   20   44 1
    49   21   45 1
    50   22   46 1
    51   23   47 1
    52   24   48 1
    53   25   49 1
    54   25   50 1
    55   26   51 1
    56   26   52 1
    57   27   53 1
    58   27   54 1
    59   28   55 1
    60   28   56 1
@<TRIPOS>PROPERTY_DATA
  Total_Score	| 7.7269
  Crash		| -1.9422
  Polar		| 2.1684
  FragIndex	| 1
  FragRMSD	| 0.946

