@<TRIPOS>MOLECULE
BindingDB_50300110
 55 59 0 0 0
SMALL
NO_CHARGES


@<TRIPOS>ATOM
1    N        75.1951   52.8788   44.1857  N     
2    C        75.4591   52.9552   42.8434  C     
3    N        76.6099   52.3937   42.3501  N     
4    C        76.0072   52.2690   45.0470  C     
5    C        77.1616   51.6711   44.5623  C     
6    C        77.4626   51.7457   43.2047  C     
7    N        78.6207   51.0751   43.0121  N     
8    N        79.0362   50.6057   44.1571  N     
9    C        78.1857   50.9388   45.1393  C     
10   O        75.7348   52.2686   46.2385  O     
11   C        74.5075   53.6787   41.9543  C     
12   C        74.9624   55.1355   41.6650  C     
13   C        74.5963   55.3354   40.1816  C     
14   N        74.8956   54.0132   39.5857  N     
15   C        74.3136   53.0462   40.5460  C     
16   C        74.3757   56.2007   42.6249  C     
17   C        74.5405   53.8799   38.1394  C     
18   C        79.3359   50.8496   41.7858  C     
19   C        78.4938   50.2324   40.6474  C     
20   C        79.2041   50.6404   39.3355  C     
21   C        80.2781   51.6851   39.7154  C     
22   C        79.9528   52.1141   41.1561  C     
23   C        74.3697   52.4881   37.6667  C     
24   N        73.2710   52.0371   37.0340  N     
25   O        73.3790   50.7549   36.8044  O     
26   C        74.5683   50.3164   37.2760  C     
27   C        75.2363   51.4130   37.8072  C     
28   C        74.9959   48.9094   37.2518  C     
29   H        74.3898   53.3033   44.5273  H     
30   H        78.2868   50.6876   46.1257  H     
31   H        73.5220   53.6954   42.4404  H     
32   H        76.0517   55.2049   41.7290  H     
33   H        73.5381   55.5932   40.0739  H     
34   H        75.2049   56.1235   39.7344  H     
35   H        75.9091   53.8887   39.6470  H     
36   H        74.8238   52.0851   40.4565  H     
37   H        73.2453   52.8971   40.3450  H     
38   H        73.2882   56.1172   42.6902  H     
39   H        74.6296   57.2046   42.2744  H     
40   H        74.7947   56.0696   43.6279  H     
41   H        73.6228   54.4319   37.9237  H     
42   H        75.3438   54.3324   37.5557  H     
43   H        80.1682   50.1596   41.9937  H     
44   H        78.4394   49.1443   40.7486  H     
45   H        77.4795   50.6423   40.6654  H     
46   H        79.6650   49.7736   38.8528  H     
47   H        78.4864   51.0788   38.6387  H     
48   H        81.2698   51.2252   39.6869  H     
49   H        80.2693   52.5415   39.0364  H     
50   H        79.2311   52.9333   41.1427  H     
51   H        80.8484   52.4338   41.6977  H     
52   H        76.1553   51.4129   38.2485  H     
53   H        74.2923   48.3060   37.8312  H     
54   H        75.9944   48.7915   37.6772  H     
55   H        75.0049   48.5486   36.2220  H     
@<TRIPOS>BOND
     1    1    2 1
     2    1    4 1
     3    2    3 2
     4   11    2 1
     5    3    6 1
     6    4    5 1
     7    4   10 2
     8    5    6 2
     9    5    9 1
    10    6    7 1
    11    7    8 1
    12    7   18 1
    13    8    9 2
    14   11   12 1
    15   11   15 1
    16   12   13 1
    17   12   16 1
    18   13   14 1
    19   14   15 1
    20   14   17 1
    21   17   23 1
    22   18   19 1
    23   18   22 1
    24   19   20 1
    25   20   21 1
    26   21   22 1
    27   23   24 2
    28   23   27 1
    29   24   25 1
    30   25   26 1
    31   26   27 2
    32   26   28 1
    33    1   29 1
    34    9   30 1
    35   11   31 1
    36   12   32 1
    37   13   33 1
    38   13   34 1
    39   14   35 1
    40   15   36 1
    41   15   37 1
    42   16   38 1
    43   16   39 1
    44   16   40 1
    45   17   41 1
    46   17   42 1
    47   18   43 1
    48   19   44 1
    49   19   45 1
    50   20   46 1
    51   20   47 1
    52   21   48 1
    53   21   49 1
    54   22   50 1
    55   22   51 1
    56   27   52 1
    57   28   53 1
    58   28   54 1
    59   28   55 1
@<TRIPOS>PROPERTY_DATA
  Total_Score	| 8.0759
  Crash		| -1.7052
  Polar		| 2.1575
  FragIndex	| 1
  FragRMSD	| 0.735

