@<TRIPOS>MOLECULE
BindingDB_50300103
 59 63 0 0 0
SMALL
NO_CHARGES


@<TRIPOS>ATOM
1    N        75.2838   52.9917   43.9271  N     
2    C        75.6402   53.0347   42.6033  C     
3    N        76.7955   52.4231   42.2155  N     
4    C        76.0194   52.3736   44.8544  C     
5    C        77.1841   51.7298   44.4598  C     
6    C        77.5640   51.7689   43.1257  C     
7    N        78.7077   51.0657   42.9915  N     
8    N        79.0481   50.5976   44.1651  N     
9    C        78.1524   50.9658   45.0930  C     
10   O        75.6356   52.3408   46.0163  O     
11   C        74.7230   53.6252   41.5917  C     
12   C        74.8259   55.1575   41.3779  C     
13   C        74.0074   55.3196   40.0703  C     
14   N        74.4720   54.1964   39.2235  N     
15   C        74.8928   53.0947   40.1405  C     
16   C        74.3297   56.0354   42.5466  C     
17   C        73.6540   53.8492   38.0165  C     
18   C        72.6920   52.7194   38.1613  C     
19   C        71.4109   52.9234   38.7178  C     
20   C        70.5145   51.8460   38.9144  C     
21   C        70.9265   50.5370   38.5626  C     
22   C        72.1868   50.3241   37.9765  C     
23   C        73.0546   51.4105   37.7641  C     
24   C        79.4571   50.8210   41.7919  C     
25   C        78.6645   50.1859   40.6216  C     
26   C        79.4641   50.5403   39.3442  C     
27   C        80.4608   51.6606   39.7348  C     
28   C        80.0896   52.0838   41.1706  C     
29   C        69.1753   52.1039   39.4892  C     
30   H        74.4526   53.4178   44.1986  H     
31   H        78.1753   50.7183   46.0864  H     
32   H        73.6950   53.3926   41.9093  H     
33   H        75.8676   55.4335   41.1712  H     
34   H        72.9309   55.2607   40.2716  H     
35   H        74.2272   56.2767   39.5948  H     
36   H        75.3512   54.5511   38.8261  H     
37   H        75.9316   52.8748   39.8934  H     
38   H        74.3230   52.1741   40.0259  H     
39   H        73.3099   55.7613   42.8330  H     
40   H        74.3444   57.0914   42.2549  H     
41   H        74.9906   55.9075   43.4090  H     
42   H        73.1058   54.7306   37.6668  H     
43   H        74.3699   53.6176   37.2229  H     
44   H        71.1208   53.8631   38.9924  H     
45   H        70.2997   49.7397   38.6955  H     
46   H        72.4820   49.3790   37.7313  H     
47   H        73.9805   51.2352   37.3607  H     
48   H        80.2791   50.1391   42.0271  H     
49   H        78.5755   49.1026   40.7433  H     
50   H        77.6555   50.6103   40.5570  H     
51   H        80.0074   49.6616   38.9815  H     
52   H        78.7851   50.8811   38.5525  H     
53   H        81.4867   51.2747   39.7114  H     
54   H        80.3926   52.5149   39.0523  H     
55   H        79.3695   52.9107   41.1403  H     
56   H        80.9764   52.4083   41.7240  H     
57   H        69.2850   52.6075   40.4520  H     
58   H        68.6026   51.1869   39.6453  H     
59   H        68.6097   52.7538   38.8164  H     
@<TRIPOS>BOND
     1    1    2 1
     2    1    4 1
     3    2    3 2
     4   11    2 1
     5    3    6 1
     6    4    5 1
     7    4   10 2
     8    5    6 2
     9    5    9 1
    10    6    7 1
    11    7    8 1
    12    7   24 1
    13    8    9 2
    14   11   12 1
    15   11   15 1
    16   12   13 1
    17   12   16 1
    18   13   14 1
    19   14   15 1
    20   14   17 1
    21   17   18 1
    22   18   19 2
    23   18   23 1
    24   19   20 1
    25   20   21 2
    26   20   29 1
    27   21   22 1
    28   22   23 2
    29   24   25 1
    30   24   28 1
    31   25   26 1
    32   26   27 1
    33   27   28 1
    34    1   30 1
    35    9   31 1
    36   11   32 1
    37   12   33 1
    38   13   34 1
    39   13   35 1
    40   14   36 1
    41   15   37 1
    42   15   38 1
    43   16   39 1
    44   16   40 1
    45   16   41 1
    46   17   42 1
    47   17   43 1
    48   19   44 1
    49   21   45 1
    50   22   46 1
    51   23   47 1
    52   24   48 1
    53   25   49 1
    54   25   50 1
    55   26   51 1
    56   26   52 1
    57   27   53 1
    58   27   54 1
    59   28   55 1
    60   28   56 1
    61   29   57 1
    62   29   58 1
    63   29   59 1
@<TRIPOS>PROPERTY_DATA
  Total_Score	| 9.2290
  Crash		| -0.9511
  Polar		| 2.2017
  FragIndex	| 1
  FragRMSD	| 0.725

