@<TRIPOS>MOLECULE
BindingDB_50300099
 40 43 0 0 0
SMALL
NO_CHARGES


@<TRIPOS>ATOM
1    N        75.1813   52.9486   43.9755  N     
2    C        75.4689   53.0048   42.6375  C     
3    N        76.6129   52.4074   42.1639  N     
4    C        75.9791   52.3481   44.8601  C     
5    C        74.4940   53.6606   41.7384  C     
6    C        74.7851   55.0978   41.4814  C     
7    C        74.8737   56.0187   42.5542  C     
8    C        75.0728   57.3936   42.3173  C     
9    C        75.1869   57.8690   40.9979  C     
10   C        75.1029   56.9675   39.9212  C     
11   C        74.9034   55.5946   40.1591  C     
12   O        75.6661   52.3334   46.0420  O     
13   C        77.1367   51.7447   44.4060  C     
14   C        77.4570   51.7791   43.0491  C     
15   N        78.6262   51.1100   42.8996  N     
16   N        79.0269   50.6848   44.0670  N     
17   C        78.1604   51.0483   45.0256  C     
18   C        79.3784   50.8476   41.7048  C     
19   C        78.5837   50.2287   40.5354  C     
20   C        79.4265   50.5324   39.2747  C     
21   C        80.4029   51.6681   39.6610  C     
22   C        80.0213   52.1049   41.0888  C     
23   H        74.3616   53.3556   44.2945  H     
24   H        74.4485   53.0841   40.8094  H     
25   H        73.4958   53.6030   42.1800  H     
26   H        74.7829   55.6966   43.5206  H     
27   H        75.1258   58.0449   43.1049  H     
28   H        75.3229   58.8681   40.8241  H     
29   H        75.1786   57.3158   38.9638  H     
30   H        74.8330   54.9621   39.3584  H     
31   H        78.2491   50.8469   46.0223  H     
32   H        80.1958   50.1559   41.9474  H     
33   H        78.4464   49.1492   40.6815  H     
34   H        77.6012   50.7093   40.4502  H     
35   H        79.9830   49.6404   38.9645  H     
36   H        78.7834   50.8400   38.4444  H     
37   H        81.4317   51.3039   39.6477  H     
38   H        80.3204   52.5100   38.9650  H     
39   H        79.3098   52.9338   41.0468  H     
40   H        80.8995   52.4217   41.6614  H     
@<TRIPOS>BOND
     1    1    2 1
     2    1    4 1
     3    2    3 2
     4    2    5 1
     5    3   14 1
     6    4   12 2
     7    4   13 1
     8    5    6 1
     9    6    7 2
    10    6   11 1
    11    7    8 1
    12    8    9 2
    13    9   10 1
    14   10   11 2
    15   13   14 2
    16   13   17 1
    17   14   15 1
    18   15   16 1
    19   15   18 1
    20   16   17 2
    21   18   19 1
    22   18   22 1
    23   19   20 1
    24   20   21 1
    25   21   22 1
    26    1   23 1
    27    5   24 1
    28    5   25 1
    29    7   26 1
    30    8   27 1
    31    9   28 1
    32   10   29 1
    33   11   30 1
    34   17   31 1
    35   18   32 1
    36   19   33 1
    37   19   34 1
    38   20   35 1
    39   20   36 1
    40   21   37 1
    41   21   38 1
    42   22   39 1
    43   22   40 1
@<TRIPOS>PROPERTY_DATA
  Total_Score	| 7.8578
  Crash		| -0.4645
  Polar		| 2.1495
  FragIndex	| 1
  FragRMSD	| 0.607

