@<TRIPOS>MOLECULE
BindingDB_32522
 47 49 0 0 0
SMALL
NO_CHARGES


@<TRIPOS>ATOM
1    C        42.2534   62.8531   83.3236  C     
2    C        42.4165   63.1010   84.7088  C     
3    C        44.5941   61.9964   84.6456  C     
4    C        44.4156   61.7778   83.2681  C     
5    C        45.3597   61.1352   82.4824  C     
6    O        45.4980   59.9395   82.7188  O     
7    C        46.7695   60.9550   80.4739  C     
8    C        46.2089   63.1634   81.3838  C     
9    C        45.7414   63.6878   80.0087  C     
10   N        46.0476   61.7181   81.4855  N     
11   C        43.5855   62.6657   85.3616  C     
12   N        43.2622   62.2109   82.6801  N     
13   C        46.3942   62.8882   78.8496  C     
14   C        41.0948   63.2357   82.5819  C     
15   C        39.4216   64.9037   81.8796  C     
16   C        38.7563   63.9522   81.0690  C     
17   C        39.2911   62.6444   81.0084  C     
18   C        40.4405   62.2999   81.7455  C     
19   C        40.5592   64.5485   82.6315  C     
20   C        47.2188   60.6467   77.9689  C     
21   C        46.2943   61.3332   79.0264  C     
22   C        44.8295   60.8326   78.7929  C     
23   C        37.5291   64.3078   80.3136  C     
24   F        39.0074   66.1406   81.9358  F     
25   H        41.6937   63.5664   85.2540  H     
26   H        45.4496   61.6996   85.1254  H     
27   H        47.8357   61.1695   80.5842  H     
28   H        46.6608   59.8735   80.5985  H     
29   H        47.2665   63.4043   81.5199  H     
30   H        45.6781   63.7220   82.1563  H     
31   H        44.6529   63.6211   79.9355  H     
32   H        46.0226   64.7406   79.9189  H     
33   H        43.7053   62.8363   86.3636  H     
34   H        45.9406   63.1976   77.9037  H     
35   H        47.4504   63.1737   78.8124  H     
36   H        38.8504   61.9307   80.4239  H     
37   H        40.7891   61.3402   81.6707  H     
38   H        41.0197   65.2725   83.1957  H     
39   H        48.2589   60.9564   78.0972  H     
40   H        46.9102   60.9160   76.9553  H     
41   H        47.1802   59.5575   78.0582  H     
42   H        44.7750   59.7451   78.8769  H     
43   H        44.4794   61.1147   77.7966  H     
44   H        44.1402   61.2569   79.5238  H     
45   H        36.7380   64.6200   81.0009  H     
46   H        37.1490   63.4691   79.7255  H     
47   H        37.7312   65.1319   79.6257  H     
@<TRIPOS>BOND
     1    1    2 1
     2    1   12 2
     3    1   14 1
     4    2   11 2
     5    3    4 2
     6    3   11 1
     7    4    5 1
     8    4   12 1
     9    5    6 2
    10    5   10 1
    11    7   10 1
    12    7   21 1
    13    8    9 1
    14    8   10 1
    15    9   13 1
    16   13   21 1
    17   14   18 2
    18   14   19 1
    19   15   16 1
    20   15   19 2
    21   15   24 1
    22   16   17 2
    23   16   23 1
    24   17   18 1
    25   20   21 1
    26   21   22 1
    27    2   25 1
    28    3   26 1
    29    7   27 1
    30    7   28 1
    31    8   29 1
    32    8   30 1
    33    9   31 1
    34    9   32 1
    35   11   33 1
    36   13   34 1
    37   13   35 1
    38   17   36 1
    39   18   37 1
    40   19   38 1
    41   20   39 1
    42   20   40 1
    43   20   41 1
    44   22   42 1
    45   22   43 1
    46   22   44 1
    47   23   45 1
    48   23   46 1
    49   23   47 1
@<TRIPOS>PROPERTY_DATA
  Total_Score	| 9.4049
  Crash		| -0.3538
  Polar		| 2.0885
  FragIndex	| 1
  FragRMSD	| 1.351

