@<TRIPOS>MOLECULE
BindingDB_32520
 44 46 0 0 0
SMALL
NO_CHARGES


@<TRIPOS>ATOM
1    C        42.2979   62.9539   83.4462  C     
2    C        42.4535   63.1048   84.8458  C     
3    C        44.5973   61.9431   84.7348  C     
4    C        44.4258   61.8102   83.3395  C     
5    C        45.3323   61.1621   82.5161  C     
6    O        45.5132   59.9789   82.7790  O     
7    C        46.5774   60.9361   80.4156  C     
8    C        46.1393   63.1704   81.3436  C     
9    C        45.6862   63.7245   79.9713  C     
10   N        45.9433   61.7315   81.4589  N     
11   C        43.6049   62.6035   85.4806  C     
12   N        43.2975   62.3157   82.7749  N     
13   C        46.2858   62.8918   78.8085  C     
14   C        41.1564   63.4083   82.7171  C     
15   C        39.3234   62.9487   81.1359  C     
16   C        38.8888   64.2826   81.2225  C     
17   C        39.5853   65.1826   82.0473  C     
18   C        40.7019   64.7489   82.7873  C     
19   C        40.4439   62.5204   81.8709  C     
20   C        46.9210   60.5917   77.9020  C     
21   C        46.0812   61.3458   78.9840  C     
22   C        44.5757   60.9584   78.7945  C     
23   Cl       37.5378   64.7948   80.3401  Cl    
24   H        41.7319   63.5530   85.4148  H     
25   H        45.4353   61.5864   85.2060  H     
26   H        47.6593   61.0871   80.4887  H     
27   H        46.4092   59.8617   80.5371  H     
28   H        47.2069   63.3799   81.4655  H     
29   H        45.6285   63.7463   82.1168  H     
30   H        44.5951   63.7179   79.9140  H     
31   H        46.0177   64.7626   79.8803  H     
32   H        43.7199   62.7155   86.4893  H     
33   H        45.8441   63.2302   77.8666  H     
34   H        47.3569   63.1106   78.7616  H     
35   H        38.8296   62.2834   80.5358  H     
36   H        39.2895   66.1595   82.1094  H     
37   H        41.1939   65.4381   83.3586  H     
38   H        40.7268   61.5405   81.7861  H     
39   H        47.9900   60.7704   78.0404  H     
40   H        46.6499   60.9275   76.8978  H     
41   H        46.7501   59.5138   77.9587  H     
42   H        44.4359   59.8776   78.8756  H     
43   H        44.2216   61.2721   77.8095  H     
44   H        43.9410   61.4297   79.5462  H     
@<TRIPOS>BOND
     1    1    2 1
     2    1   12 2
     3    1   14 1
     4    2   11 2
     5    3    4 2
     6    3   11 1
     7    4    5 1
     8    4   12 1
     9    5    6 2
    10    5   10 1
    11    7   10 1
    12    7   21 1
    13    8    9 1
    14    8   10 1
    15    9   13 1
    16   13   21 1
    17   14   18 2
    18   14   19 1
    19   15   16 1
    20   15   19 2
    21   16   17 2
    22   16   23 1
    23   17   18 1
    24   20   21 1
    25   21   22 1
    26    2   24 1
    27    3   25 1
    28    7   26 1
    29    7   27 1
    30    8   28 1
    31    8   29 1
    32    9   30 1
    33    9   31 1
    34   11   32 1
    35   13   33 1
    36   13   34 1
    37   15   35 1
    38   17   36 1
    39   18   37 1
    40   19   38 1
    41   20   39 1
    42   20   40 1
    43   20   41 1
    44   22   42 1
    45   22   43 1
    46   22   44 1
@<TRIPOS>PROPERTY_DATA
  Total_Score	| 8.7353
  Crash		| -0.3160
  Polar		| 2.2150
  FragIndex	| 1
  FragRMSD	| 0.176

