@<TRIPOS>MOLECULE
BindingDB_32521
 48 50 0 0 0
SMALL
NO_CHARGES


@<TRIPOS>ATOM
1    C        42.4776   62.9624   83.5519  C     
2    C        42.6339   63.0409   84.9562  C     
3    C        44.7381   61.8264   84.7822  C     
4    C        44.5697   61.7736   83.3820  C     
5    C        45.4808   61.1577   82.5364  C     
6    O        45.6314   59.9561   82.7366  O     
7    C        46.6854   61.0023   80.4039  C     
8    C        46.2618   63.1985   81.4060  C     
9    C        45.6513   63.7562   80.0984  C     
10   N        46.0998   61.7550   81.5018  N     
11   C        43.7624   62.4705   85.5613  C     
12   N        43.4543   62.3338   82.8381  N     
13   C        46.1304   62.9572   78.8599  C     
14   C        41.3618   63.5181   82.8611  C     
15   C        39.7028   65.3084   82.5055  C     
16   C        39.1889   64.6394   81.3655  C     
17   C        39.7828   63.4243   80.9671  C     
18   C        40.8375   62.8683   81.7085  C     
19   C        40.7577   64.7452   83.2452  C     
20   C        44.5343   60.9296   79.0033  C     
21   C        46.0257   61.3978   79.0373  C     
22   C        46.7752   60.6946   77.8618  C     
23   O        38.2599   65.3111   80.6056  O     
24   C        37.0338   64.6368   80.2738  C     
25   F        36.2120   65.5579   79.6889  F     
26   F        37.2351   63.6332   79.3515  F     
27   F        36.3850   64.1332   81.3779  F     
28   H        41.9394   63.5148   85.5373  H     
29   H        45.5663   61.4265   85.2285  H     
30   H        47.7572   61.2180   80.3748  H     
31   H        46.5989   59.9211   80.5307  H     
32   H        47.3325   63.4266   81.4174  H     
33   H        45.8312   63.7416   82.2477  H     
34   H        44.5631   63.7284   80.1634  H     
35   H        45.9546   64.8001   79.9911  H     
36   H        43.8787   62.5259   86.5678  H     
37   H        45.5518   63.2789   77.9891  H     
38   H        47.1733   63.2285   78.6696  H     
39   H        39.3207   66.2097   82.7899  H     
40   H        39.4738   62.9633   80.1111  H     
41   H        41.2400   61.9834   81.3804  H     
42   H        41.1194   65.2621   84.0522  H     
43   H        44.4657   59.8443   79.1131  H     
44   H        44.0607   61.2050   78.0594  H     
45   H        43.9560   61.3784   79.8093  H     
46   H        47.8271   60.9837   77.8427  H     
47   H        46.3334   60.9678   76.9008  H     
48   H        46.7273   59.6079   77.9611  H     
@<TRIPOS>BOND
     1    1    2 1
     2    1   12 2
     3    1   14 1
     4    2   11 2
     5    3    4 2
     6    3   11 1
     7    4    5 1
     8    4   12 1
     9    5    6 2
    10    5   10 1
    11    7   10 1
    12    7   21 1
    13    8    9 1
    14    8   10 1
    15    9   13 1
    16   13   21 1
    17   14   18 2
    18   14   19 1
    19   15   16 1
    20   15   19 2
    21   16   17 2
    22   16   23 1
    23   17   18 1
    24   20   21 1
    25   21   22 1
    26   23   24 1
    27   24   25 1
    28   24   26 1
    29   24   27 1
    30    2   28 1
    31    3   29 1
    32    7   30 1
    33    7   31 1
    34    8   32 1
    35    8   33 1
    36    9   34 1
    37    9   35 1
    38   11   36 1
    39   13   37 1
    40   13   38 1
    41   15   39 1
    42   17   40 1
    43   18   41 1
    44   19   42 1
    45   20   43 1
    46   20   44 1
    47   20   45 1
    48   22   46 1
    49   22   47 1
    50   22   48 1
@<TRIPOS>PROPERTY_DATA
  Total_Score	| 9.7011
  Crash		| -1.0461
  Polar		| 2.2108
  FragIndex	| 1
  FragRMSD	| 0.182

