@<TRIPOS>MOLECULE
BindingDB_32524
 51 54 0 0 0
SMALL
NO_CHARGES


@<TRIPOS>ATOM
1    C        42.3908   62.9594   83.4844  C     
2    C        42.5488   63.1547   84.8741  C     
3    C        44.6777   61.9592   84.7759  C     
4    C        44.5093   61.8200   83.3814  C     
5    C        45.3960   61.1498   82.5579  C     
6    O        45.5329   59.9579   82.8022  O     
7    C        46.2432   63.1139   81.3671  C     
8    C        45.6692   63.7646   80.0859  C     
9    N        45.9397   61.6896   81.4498  N     
10   C        43.6958   62.6462   85.5139  C     
11   N        43.3782   62.3112   82.8109  N     
12   C        46.1048   62.9774   78.8270  C     
13   C        41.2352   63.3567   82.7684  C     
14   C        39.3862   62.7792   81.2672  C     
15   C        39.6716   65.0759   81.9869  C     
16   C        40.7860   64.6956   82.7604  C     
17   C        40.5147   62.4031   82.0145  C     
18   C        45.7511   61.4670   78.9684  C     
19   C        46.3069   60.8560   80.3036  C     
20   C        48.1878   59.6693   79.0115  C     
21   C        47.8379   60.5588   80.2357  C     
22   C        46.1787   60.6206   77.7282  C     
23   C        47.6993   60.3056   77.6857  C     
24   C        38.9553   64.1245   81.2220  C     
25   C        37.7771   64.4815   80.3840  C     
26   F        37.5253   65.8279   80.3046  F     
27   F        37.9633   64.0468   79.0959  F     
28   F        36.6484   63.8827   80.8878  F     
29   H        41.8256   63.6237   85.4260  H     
30   H        45.5056   61.5857   85.2488  H     
31   H        47.3303   63.2392   81.3655  H     
32   H        45.8810   63.6870   82.2250  H     
33   H        44.5773   63.7894   80.1454  H     
34   H        46.0290   64.7946   80.0117  H     
35   H        43.8078   62.7618   86.5225  H     
36   H        45.5936   63.3973   77.9553  H     
37   H        47.1813   63.1072   78.6785  H     
38   H        38.8870   62.0589   80.7374  H     
39   H        39.3911   66.0595   81.9895  H     
40   H        41.2871   65.4142   83.2907  H     
41   H        40.8004   61.4197   82.0071  H     
42   H        44.6556   61.4130   79.0182  H     
43   H        45.8182   59.8765   80.3875  H     
44   H        49.2698   59.5240   78.9656  H     
45   H        47.7230   58.6873   79.1333  H     
46   H        48.4112   61.4876   80.1679  H     
47   H        48.1452   60.0425   81.1514  H     
48   H        45.6332   59.6714   77.7470  H     
49   H        45.8920   61.1359   76.8056  H     
50   H        48.2617   61.2218   77.4916  H     
51   H        47.8980   59.6141   76.8612  H     
@<TRIPOS>BOND
     1    1    2 1
     2    1   11 2
     3    1   13 1
     4    2   10 2
     5    3    4 2
     6    3   10 1
     7    4    5 1
     8    4   11 1
     9    5    6 2
    10    5    9 1
    11    7    8 1
    12    7    9 1
    13    8   12 1
    14    9   19 1
    15   12   18 1
    16   13   16 2
    17   13   17 1
    18   14   17 2
    19   14   24 1
    20   15   16 1
    21   15   24 2
    22   18   19 1
    23   18   22 1
    24   19   21 1
    25   20   21 1
    26   20   23 1
    27   22   23 1
    28   24   25 1
    29   25   26 1
    30   25   27 1
    31   25   28 1
    32    2   29 1
    33    3   30 1
    34    7   31 1
    35    7   32 1
    36    8   33 1
    37    8   34 1
    38   10   35 1
    39   12   36 1
    40   12   37 1
    41   14   38 1
    42   15   39 1
    43   16   40 1
    44   17   41 1
    45   18   42 1
    46   19   43 1
    47   20   44 1
    48   20   45 1
    49   21   46 1
    50   21   47 1
    51   22   48 1
    52   22   49 1
    53   23   50 1
    54   23   51 1
@<TRIPOS>PROPERTY_DATA
  Total_Score	| 10.3648
  Crash		| -0.6877
  Polar		| 2.1539
  FragIndex	| 1
  FragRMSD	| 0.503

