@<TRIPOS>MOLECULE
BindingDB_32523
 50 53 0 0 0
SMALL
NO_CHARGES


@<TRIPOS>ATOM
1    C        42.2797   63.0537   83.5945  C     
2    C        42.5207   63.1278   84.9917  C     
3    C        44.6270   61.9414   84.7293  C     
4    C        44.4030   61.8968   83.3374  C     
5    C        45.2330   61.1979   82.4686  C     
6    O        45.3103   59.9970   82.6997  O     
7    C        46.1514   63.1515   81.3045  C     
8    C        45.7367   63.7660   79.9503  C     
9    N        45.8465   61.7260   81.3929  N     
10   C        43.6944   62.5899   85.5487  C     
11   N        43.2561   62.4609   82.8419  N     
12   C        46.3135   62.9437   78.7693  C     
13   C        41.0827   63.5548   82.9592  C     
14   C        39.3379   63.5798   81.2230  C     
15   C        38.9010   64.8490   81.6328  C     
16   C        39.5428   65.4709   82.7107  C     
17   C        40.6216   64.8454   83.3435  C     
18   C        40.3787   62.8852   81.8952  C     
19   N        40.6031   61.5884   81.5196  N     
20   O        40.1634   61.1312   80.4922  O     
21   O        41.1296   60.6980   82.3182  O     
22   C        45.9467   61.4399   78.9102  C     
23   C        46.3510   60.8775   80.3140  C     
24   C        48.3988   59.7047   79.2867  C     
25   C        47.8830   60.6104   80.4346  C     
26   C        46.5251   60.5673   77.7540  C     
27   C        48.0424   60.2794   77.8892  C     
28   H        41.8386   63.5562   85.6175  H     
29   H        45.4656   61.5156   85.1520  H     
30   H        47.2277   63.2864   81.4332  H     
31   H        45.6844   63.7531   82.0864  H     
32   H        44.6481   63.7938   79.8774  H     
33   H        46.1150   64.7883   79.8935  H     
34   H        43.8584   62.6432   86.5595  H     
35   H        45.9173   63.3452   77.8327  H     
36   H        47.3954   63.0662   78.7535  H     
37   H        38.8230   63.1479   80.4472  H     
38   H        38.1343   65.3213   81.1490  H     
39   H        39.2447   66.4094   82.9900  H     
40   H        41.1003   65.3829   84.0756  H     
41   H        44.8512   61.3739   78.8314  H     
42   H        45.8725   59.8837   80.3695  H     
43   H        49.4831   59.6016   79.3692  H     
44   H        47.9580   58.7100   79.3917  H     
45   H        48.4407   61.5510   80.4117  H     
46   H        48.0950   60.1262   81.3913  H     
47   H        45.9946   59.6072   77.7381  H     
48   H        46.3359   61.0510   76.7900  H     
49   H        48.6093   61.2024   77.7225  H     
50   H        48.3434   59.5664   77.1241  H     
@<TRIPOS>BOND
     1    1    2 1
     2    1   11 2
     3    1   13 1
     4    2   10 2
     5    3    4 2
     6    3   10 1
     7    4    5 1
     8    4   11 1
     9    5    6 2
    10    5    9 1
    11    7    8 1
    12    7    9 1
    13    8   12 1
    14    9   23 1
    15   12   22 1
    16   13   17 2
    17   13   18 1
    18   14   15 1
    19   14   18 2
    20   15   16 2
    21   16   17 1
    22   18   19 am
    23   19   20 2
    24   19   21 1
    25   22   23 1
    26   22   26 1
    27   23   25 1
    28   24   25 1
    29   24   27 1
    30   26   27 1
    31    2   28 1
    32    3   29 1
    33    7   30 1
    34    7   31 1
    35    8   32 1
    36    8   33 1
    37   10   34 1
    38   12   35 1
    39   12   36 1
    40   14   37 1
    41   15   38 1
    42   16   39 1
    43   17   40 1
    44   22   41 1
    45   23   42 1
    46   24   43 1
    47   24   44 1
    48   25   45 1
    49   25   46 1
    50   26   47 1
    51   26   48 1
    52   27   49 1
    53   27   50 1
@<TRIPOS>PROPERTY_DATA
  Total_Score	| 9.7401
  Crash		| -0.7653
  Polar		| 1.9509
  FragIndex	| 1
  FragRMSD	| 0.346

