@<TRIPOS>MOLECULE
BindingDB_32529
 52 55 0 0 0
SMALL
NO_CHARGES


@<TRIPOS>ATOM
1    C        39.8940   63.5790   81.8058  C     
2    C        37.9667   64.6316   80.7393  C     
3    C        38.8430   62.5402   79.8579  C     
4    C        39.8680   62.5565   80.8253  C     
5    C        38.9790   64.6527   81.7179  C     
6    C        37.8832   63.5659   79.8291  C     
7    Cl       39.0971   65.9510   82.7939  Cl    
8    Cl       41.0968   61.3994   80.7441  Cl    
9    O        40.6322   63.4062   82.9485  O     
10   C        41.7953   64.2204   83.0988  C     
11   C        42.8113   63.4037   83.7653  C     
12   C        42.9037   63.2930   85.1648  C     
13   C        44.8028   61.7849   84.8785  C     
14   C        44.6442   61.8751   83.4763  C     
15   C        45.4163   61.1730   82.5592  C     
16   O        45.5221   59.9710   82.7647  O     
17   C        43.9306   62.5041   85.7178  C     
18   N        43.6600   62.6818   82.9965  N     
19   C        46.3152   63.1015   81.3419  C     
20   C        45.6704   63.7954   80.1204  C     
21   C        45.9926   63.0201   78.8212  C     
22   N        45.9289   61.6982   81.4268  N     
23   C        45.5533   61.5274   78.9647  C     
24   C        46.1770   60.8684   80.2441  C     
25   C        47.8958   59.6139   78.8082  C     
26   C        47.6850   60.5071   80.0601  C     
27   C        45.8311   60.6614   77.6964  C     
28   C        47.3235   60.2768   77.5300  C     
29   H        37.2660   65.3722   80.6961  H     
30   H        38.7820   61.7794   79.1786  H     
31   H        37.1275   63.5445   79.1405  H     
32   H        42.1952   64.5177   82.1283  H     
33   H        41.5649   65.1183   83.6752  H     
34   H        42.2678   63.8094   85.7783  H     
35   H        45.5348   61.2024   85.2922  H     
36   H        44.0336   62.4426   86.7319  H     
37   H        47.4010   63.1653   81.2524  H     
38   H        46.0713   63.6786   82.2370  H     
39   H        44.5869   63.8506   80.2631  H     
40   H        46.0419   64.8184   80.0397  H     
41   H        45.4715   63.4911   77.9829  H     
42   H        47.0634   63.0797   78.6371  H     
43   H        44.4642   61.5447   79.0941  H     
44   H        45.6530   59.9108   80.3376  H     
45   H        48.9591   59.4303   78.6684  H     
46   H        47.4034   58.6498   78.9694  H     
47   H        48.2965   61.4105   79.9459  H     
48   H        48.0413   59.9709   80.9402  H     
49   H        45.2450   59.7380   77.7764  H     
50   H        45.4891   61.1935   76.8050  H     
51   H        47.9054   61.1701   77.2910  H     
52   H        47.4227   59.5829   76.6884  H     
@<TRIPOS>BOND
     1    1    4 2
     2    1    5 1
     3    1    9 1
     4    2    5 2
     5    2    6 1
     6    3    4 1
     7    3    6 2
     8    4    8 1
     9    5    7 1
    10    9   10 1
    11   10   11 1
    12   11   12 1
    13   11   18 2
    14   12   17 2
    15   13   14 2
    16   13   17 1
    17   14   15 1
    18   14   18 1
    19   15   16 2
    20   15   22 1
    21   19   20 1
    22   19   22 1
    23   20   21 1
    24   21   23 1
    25   22   24 1
    26   23   24 1
    27   23   27 1
    28   24   26 1
    29   25   26 1
    30   25   28 1
    31   27   28 1
    32    2   29 1
    33    3   30 1
    34    6   31 1
    35   10   32 1
    36   10   33 1
    37   12   34 1
    38   13   35 1
    39   17   36 1
    40   19   37 1
    41   19   38 1
    42   20   39 1
    43   20   40 1
    44   21   41 1
    45   21   42 1
    46   23   43 1
    47   24   44 1
    48   25   45 1
    49   25   46 1
    50   26   47 1
    51   26   48 1
    52   27   49 1
    53   27   50 1
    54   28   51 1
    55   28   52 1
@<TRIPOS>PROPERTY_DATA
  Total_Score	| 8.2118
  Crash		| -2.3533
  Polar		| 2.1941
  FragIndex	| 1
  FragRMSD	| 0.629

