@<TRIPOS>MOLECULE
BindingDB_32518
 41 43 0 0 0
SMALL
NO_CHARGES


@<TRIPOS>ATOM
1    C        42.1449   62.9085   83.6362  C     
2    C        42.4528   63.0651   85.0084  C     
3    C        44.5640   61.8923   84.6617  C     
4    C        44.2530   61.7471   83.2851  C     
5    C        45.0819   61.0812   82.3752  C     
6    O        45.6950   60.1312   82.8568  O     
7    C        46.9961   61.0510   79.3185  C     
8    C        45.8592   60.3912   80.1458  C     
9    C        44.7187   62.5514   80.4032  C     
10   C        45.7887   63.2666   79.5390  C     
11   N        45.2115   61.3385   81.0495  N     
12   C        43.6560   62.5431   85.5170  C     
13   N        43.0591   62.2527   82.8672  N     
14   C        46.5097   62.3080   78.5442  C     
15   C        45.6488   61.9574   77.2996  C     
16   C        40.9988   63.4790   83.0023  C     
17   C        39.2155   63.4921   81.3023  C     
18   C        38.8452   64.7947   81.6727  C     
19   C        39.5205   65.4354   82.7211  C     
20   C        40.5858   64.7862   83.3727  C     
21   C        40.2782   62.8311   81.9576  C     
22   Cl       40.5739   61.2261   81.4931  Cl    
23   H        41.8143   63.5476   85.6465  H     
24   H        45.4519   61.5413   85.0432  H     
25   H        47.8007   61.3393   80.0019  H     
26   H        47.4118   60.3223   78.6178  H     
27   H        45.1061   59.9859   79.4650  H     
28   H        46.2944   59.5260   80.6491  H     
29   H        44.3760   63.3089   81.1026  H     
30   H        43.8652   62.2866   79.7759  H     
31   H        45.3174   64.0868   78.9931  H     
32   H        46.5288   63.7071   80.2149  H     
33   H        43.8882   62.6542   86.5074  H     
34   H        47.4007   62.8234   78.1708  H     
35   H        46.2384   61.3770   76.5831  H     
36   H        45.3112   62.8662   76.7993  H     
37   H        44.7676   61.3751   77.5694  H     
38   H        38.6871   63.0225   80.5581  H     
39   H        38.0758   65.2756   81.1974  H     
40   H        39.2478   66.3765   83.0101  H     
41   H        41.0748   65.3000   84.1103  H     
@<TRIPOS>BOND
     1    1    2 1
     2    1   13 2
     3    1   16 1
     4    2   12 2
     5    3    4 2
     6    3   12 1
     7    4    5 1
     8    4   13 1
     9    5    6 2
    10    5   11 1
    11    7    8 1
    12    7   14 1
    13    8   11 1
    14    9   10 1
    15    9   11 1
    16   10   14 1
    17   14   15 1
    18   16   20 2
    19   16   21 1
    20   17   18 1
    21   17   21 2
    22   18   19 2
    23   19   20 1
    24   21   22 1
    25    2   23 1
    26    3   24 1
    27    7   25 1
    28    7   26 1
    29    8   27 1
    30    8   28 1
    31    9   29 1
    32    9   30 1
    33   10   31 1
    34   10   32 1
    35   12   33 1
    36   14   34 1
    37   15   35 1
    38   15   36 1
    39   15   37 1
    40   17   38 1
    41   18   39 1
    42   19   40 1
    43   20   41 1
@<TRIPOS>PROPERTY_DATA
  Total_Score	| 7.1752
  Crash		| -1.2429
  Polar		| 2.1639
  FragIndex	| 1
  FragRMSD	| 0.727

