@<TRIPOS>MOLECULE
BindingDB_32519
 44 46 0 0 0
SMALL
NO_CHARGES


@<TRIPOS>ATOM
1    C        42.3514   63.0408   83.5630  C     
2    C        42.5255   63.1488   84.9635  C     
3    C        44.6333   61.9325   84.7951  C     
4    C        44.4566   61.8681   83.3964  C     
5    C        45.3385   61.2073   82.5578  C     
6    O        45.4401   60.0059   82.7892  O     
7    C        46.4812   60.9028   80.4140  C     
8    C        46.1007   63.1775   81.3091  C     
9    C        45.7338   63.7335   79.9108  C     
10   N        45.8711   61.7413   81.4407  N     
11   C        43.6690   62.5993   85.5711  C     
12   N        43.3365   62.4202   82.8555  N     
13   C        46.3886   62.8795   78.7982  C     
14   C        41.1939   63.5388   82.8881  C     
15   C        39.3616   63.3474   81.2525  C     
16   C        38.9033   64.6311   81.5877  C     
17   C        39.5733   65.3689   82.5741  C     
18   C        40.7053   64.8309   83.2104  C     
19   C        40.4923   62.7958   81.8932  C     
20   Cl       40.8962   61.2063   81.4502  Cl    
21   C        44.5955   61.0231   78.6690  C     
22   C        46.1033   61.3423   78.9540  C     
23   C        46.9740   60.5532   77.9216  C     
24   H        41.8197   63.6016   85.5488  H     
25   H        45.4564   61.5236   85.2501  H     
26   H        47.5691   60.9379   80.5538  H     
27   H        46.1905   59.8489   80.5085  H     
28   H        47.1640   63.3703   81.4868  H     
29   H        45.5542   63.7784   82.0359  H     
30   H        44.6474   63.7386   79.7910  H     
31   H        46.0797   64.7689   79.8275  H     
32   H        43.7930   62.6729   86.5825  H     
33   H        46.0225   63.2306   77.8292  H     
34   H        47.4691   63.0541   78.8268  H     
35   H        38.8566   62.8140   80.5403  H     
36   H        38.0816   65.0249   81.1235  H     
37   H        39.2403   66.3020   82.8290  H     
38   H        41.1805   65.4088   83.9083  H     
39   H        44.4045   59.9453   78.6909  H     
40   H        44.3139   61.3918   77.6806  H     
41   H        43.9405   61.4882   79.4096  H     
42   H        48.0404   60.6640   78.1438  H     
43   H        46.7996   60.9253   76.9065  H     
44   H        46.7346   59.4846   77.9389  H     
@<TRIPOS>BOND
     1    1    2 1
     2    1   12 2
     3    1   14 1
     4    2   11 2
     5    3    4 2
     6    3   11 1
     7    4    5 1
     8    4   12 1
     9    5    6 2
    10    5   10 1
    11    7   10 1
    12    7   22 1
    13    8    9 1
    14    8   10 1
    15    9   13 1
    16   13   22 1
    17   14   18 2
    18   14   19 1
    19   15   16 1
    20   15   19 2
    21   16   17 2
    22   17   18 1
    23   19   20 1
    24   21   22 1
    25   22   23 1
    26    2   24 1
    27    3   25 1
    28    7   26 1
    29    7   27 1
    30    8   28 1
    31    8   29 1
    32    9   30 1
    33    9   31 1
    34   11   32 1
    35   13   33 1
    36   13   34 1
    37   15   35 1
    38   16   36 1
    39   17   37 1
    40   18   38 1
    41   21   39 1
    42   21   40 1
    43   21   41 1
    44   23   42 1
    45   23   43 1
    46   23   44 1
@<TRIPOS>PROPERTY_DATA
  Total_Score	| 8.5031
  Crash		| -0.8410
  Polar		| 2.1186
  FragIndex	| 1
  FragRMSD	| 0.254

