@<TRIPOS>MOLECULE
BindingDB_32528
 48 50 0 0 0
SMALL
NO_CHARGES


@<TRIPOS>ATOM
1    C        40.5989   64.2307   81.6915  C     
2    C        38.1677   64.3913   81.4253  C     
3    C        39.4454   62.9770   79.9233  C     
4    C        40.6272   63.3259   80.6038  C     
5    C        39.3410   64.7126   82.1332  C     
6    C        38.2214   63.5427   80.3119  C     
7    Cl       39.1435   65.6477   83.5261  Cl    
8    Cl       42.0817   62.6347   80.0925  Cl    
9    O        41.8137   64.7507   82.0899  O     
10   C        42.2377   64.8656   83.4526  C     
11   C        43.0178   63.7169   83.9585  C     
12   C        43.1635   63.4218   85.3316  C     
13   C        44.7942   61.7025   84.7461  C     
14   C        44.6338   62.0082   83.3704  C     
15   C        45.2475   61.2927   82.3323  C     
16   O        45.5272   60.1218   82.5810  O     
17   Cl       36.8099   63.2372   79.4468  Cl    
18   C        44.0597   62.4109   85.7167  C     
19   N        43.7446   62.9925   83.0696  N     
20   C        45.3194   60.8113   79.9351  C     
21   C        45.7662   63.1209   80.7654  C     
22   C        45.9438   63.4456   79.2618  C     
23   C        46.8582   62.4035   78.5701  C     
24   N        45.4078   61.7352   81.0639  N     
25   C        47.7764   60.2313   79.6229  C     
26   C        46.5343   60.9005   78.9453  C     
27   C        46.1864   60.0740   77.6632  C     
28   H        37.2661   64.7806   81.7200  H     
29   H        39.4776   62.3400   79.1254  H     
30   H        42.9063   65.7263   83.4806  H     
31   H        41.3900   65.1347   84.0948  H     
32   H        42.6498   63.9535   86.0429  H     
33   H        45.4418   60.9730   85.0582  H     
34   H        44.1840   62.1948   86.7045  H     
35   H        45.1782   59.7672   80.2350  H     
36   H        44.4084   61.0742   79.3907  H     
37   H        46.7100   63.3471   81.2797  H     
38   H        45.0253   63.8324   81.1278  H     
39   H        44.9666   63.4449   78.7714  H     
40   H        46.3619   64.4469   79.1384  H     
41   H        46.7831   62.5654   77.4947  H     
42   H        47.8889   62.6484   78.8340  H     
43   H        48.0449   60.7628   80.5398  H     
44   H        48.6423   60.2483   78.9558  H     
45   H        47.5730   59.1894   79.8848  H     
46   H        45.9423   59.0386   77.9162  H     
47   H        47.0389   60.0618   76.9762  H     
48   H        45.3325   60.5098   77.1371  H     
@<TRIPOS>BOND
     1    1    4 2
     2    1    5 1
     3    1    9 1
     4    2    5 2
     5    2    6 1
     6    3    4 1
     7    3    6 2
     8    4    8 1
     9    5    7 1
    10    6   17 1
    11    9   10 1
    12   10   11 1
    13   11   12 1
    14   11   19 2
    15   12   18 2
    16   13   14 2
    17   13   18 1
    18   14   15 1
    19   14   19 1
    20   15   16 2
    21   15   24 1
    22   20   24 1
    23   20   26 1
    24   21   22 1
    25   21   24 1
    26   22   23 1
    27   23   26 1
    28   25   26 1
    29   26   27 1
    30    2   28 1
    31    3   29 1
    32   10   30 1
    33   10   31 1
    34   12   32 1
    35   13   33 1
    36   18   34 1
    37   20   35 1
    38   20   36 1
    39   21   37 1
    40   21   38 1
    41   22   39 1
    42   22   40 1
    43   23   41 1
    44   23   42 1
    45   25   43 1
    46   25   44 1
    47   25   45 1
    48   27   46 1
    49   27   47 1
    50   27   48 1
@<TRIPOS>PROPERTY_DATA
  Total_Score	| 3.5673
  Crash		| -4.8188
  Polar		| 2.2141
  FragIndex	| 1
  FragRMSD	| 1.117

