@<TRIPOS>MOLECULE
BindingDB_32525
 58 62 0 0 0
SMALL
NO_CHARGES


@<TRIPOS>ATOM
1    C        42.5641   63.1725   83.5790  C     
2    C        42.7227   63.1646   84.9836  C     
3    C        44.8424   61.9780   84.7294  C     
4    C        44.6739   61.9980   83.3266  C     
5    C        45.5080   61.3047   82.4441  C     
6    O        45.6838   60.1336   82.7695  O     
7    C        46.1391   63.1926   80.9978  C     
8    C        45.8932   63.5280   79.5084  C     
9    N        46.0564   61.7622   81.2906  N     
10   C        43.8677   62.5761   85.5514  C     
11   N        43.5542   62.5942   82.8431  N     
12   C        46.8280   62.6993   78.5911  C     
13   C        41.3857   63.6745   82.9308  C     
14   C        39.5578   65.3223   82.8631  C     
15   C        39.7413   63.6724   81.0909  C     
16   C        40.8721   63.1130   81.7191  C     
17   C        40.6910   64.7790   83.4872  C     
18   C        46.7376   61.1764   78.8811  C     
19   C        46.8571   60.8761   80.4247  C     
20   C        49.2588   59.9774   80.0374  C     
21   C        48.3435   60.8662   80.9142  C     
22   C        47.7505   60.3446   78.0300  C     
23   C        49.2101   60.4161   78.5518  C     
24   C        39.0812   64.7733   81.6604  C     
25   C        41.5130   62.0332   81.0785  C     
26   C        41.5320   60.7490   81.6726  C     
27   C        42.4104   59.7617   81.1859  C     
28   C        43.2656   60.0529   80.1112  C     
29   C        43.2327   61.3231   79.5175  C     
30   C        42.3598   62.3125   79.9802  C     
31   H        42.0042   63.5521   85.5983  H     
32   H        45.6565   61.5301   85.1620  H     
33   H        47.1376   63.5447   81.2729  H     
34   H        45.4444   63.8057   81.5753  H     
35   H        44.8482   63.3434   79.2379  H     
36   H        46.1118   64.5872   79.3462  H     
37   H        43.9779   62.5623   86.5692  H     
38   H        46.5501   62.8943   77.5490  H     
39   H        47.8542   63.0444   78.7319  H     
40   H        39.0828   66.1249   83.2756  H     
41   H        39.3888   63.2940   80.2037  H     
42   H        41.0292   65.2217   84.3443  H     
43   H        45.7580   60.8503   78.5153  H     
44   H        46.4964   59.8470   80.5237  H     
45   H        50.2922   60.0475   80.3955  H     
46   H        48.9381   58.9316   80.1218  H     
47   H        48.7571   61.8814   80.9162  H     
48   H        48.3863   60.4922   81.9394  H     
49   H        47.4419   59.2954   78.0430  H     
50   H        47.7311   60.6774   76.9875  H     
51   H        49.5959   61.4373   78.4563  H     
52   H        49.8448   59.7543   77.9566  H     
53   H        38.2603   65.1776   81.2040  H     
54   H        40.9427   60.5428   82.4900  H     
55   H        42.4452   58.8363   81.6171  H     
56   H        43.9021   59.3409   79.7480  H     
57   H        43.8831   61.5558   78.7720  H     
58   H        42.4211   63.2609   79.5970  H     
@<TRIPOS>BOND
     1    1    2 1
     2    1   11 2
     3    1   13 1
     4    2   10 2
     5    3    4 2
     6    3   10 1
     7    4    5 1
     8    4   11 1
     9    5    6 2
    10    5    9 1
    11    7    8 1
    12    7    9 1
    13    8   12 1
    14    9   19 1
    15   12   18 1
    16   13   16 2
    17   13   17 1
    18   14   17 2
    19   14   24 1
    20   15   16 1
    21   15   24 2
    22   16   25 1
    23   18   19 1
    24   18   22 1
    25   19   21 1
    26   20   21 1
    27   20   23 1
    28   22   23 1
    29   25   26 2
    30   25   30 1
    31   26   27 1
    32   27   28 2
    33   28   29 1
    34   29   30 2
    35    2   31 1
    36    3   32 1
    37    7   33 1
    38    7   34 1
    39    8   35 1
    40    8   36 1
    41   10   37 1
    42   12   38 1
    43   12   39 1
    44   14   40 1
    45   15   41 1
    46   17   42 1
    47   18   43 1
    48   19   44 1
    49   20   45 1
    50   20   46 1
    51   21   47 1
    52   21   48 1
    53   22   49 1
    54   22   50 1
    55   23   51 1
    56   23   52 1
    57   24   53 1
    58   26   54 1
    59   27   55 1
    60   28   56 1
    61   29   57 1
    62   30   58 1
@<TRIPOS>PROPERTY_DATA
  Total_Score	| 8.5204
  Crash		| -2.3788
  Polar		| 2.2262
  FragIndex	| 1
  FragRMSD	| 0.481

