@<TRIPOS>MOLECULE
BindingDB_35525
 37 40 0 0 0
SMALL
NO_CHARGES


@<TRIPOS>ATOM
1    C        12.1536   11.4608   -9.6288  C     
2    C        13.2537   11.4193  -10.5079  C     
3    C        14.3257   12.3184  -10.3458  C     
4    C        14.2976   13.2543   -9.2975  C     
5    C        13.1954   13.2903   -8.4237  C     
6    C        12.1054   12.3912   -8.5621  C     
7    C        11.0399   12.4933   -7.6466  C     
8    O        13.1589   14.2207   -7.4269  O     
9    C        12.1165   14.3115   -6.5581  C     
10   C        11.0196   13.4345   -6.6557  C     
11   O        10.0281   11.6200   -7.7433  O     
12   O        12.2308   15.2704   -5.6125  O     
13   C         8.7846   11.5140   -4.7362  C     
14   C         9.8153   12.3978   -4.7652  C     
15   C        10.8419   12.2371   -3.8199  C     
16   O        10.8153   11.2099   -2.9287  O     
17   C         9.8059   10.2937   -2.9116  C     
18   C         8.7412   10.4292   -3.8400  C     
19   C         7.6973    9.4739   -3.8036  C     
20   C         9.8309    9.2464   -1.9762  C     
21   C         8.7927    8.3035   -1.9656  C     
22   C         7.7250    8.4168   -2.8734  C     
23   O         7.7614   11.6613   -5.5749  O     
24   O        11.8884   13.0827   -3.7062  O     
25   C         9.8873   13.5206   -5.7194  C     
26   H        11.3865   10.8120   -9.7809  H     
27   H        13.2783   10.7364  -11.2654  H     
28   H        15.1243   12.2915  -10.9859  H     
29   H        15.0750   13.9100   -9.1744  H     
30   H         9.2393   12.1289   -8.0414  H     
31   H         6.9114    9.5362   -4.4545  H     
32   H        10.5998    9.1739   -1.3087  H     
33   H         8.8197    7.5374   -1.2957  H     
34   H         6.9701    7.7293   -2.8658  H     
35   H         7.7752   10.8475   -6.1303  H     
36   H         9.9312   14.4366   -5.1207  H     
37   H         8.9798   13.6313   -6.3230  H     
@<TRIPOS>BOND
     1    1    2 1
     2    1    6 2
     3    2    3 2
     4    3    4 1
     5    4    5 2
     6    5    6 1
     7    5    8 1
     8    6    7 1
     9    7   10 2
    10    7   11 1
    11    8    9 1
    12    9   10 1
    13    9   12 2
    14   10   25 1
    15   13   14 2
    16   13   18 1
    17   13   23 1
    18   14   15 1
    19   14   25 1
    20   15   16 1
    21   15   24 2
    22   16   17 1
    23   17   18 2
    24   17   20 1
    25   18   19 1
    26   19   22 2
    27   20   21 2
    28   21   22 1
    29    1   26 1
    30    2   27 1
    31    3   28 1
    32    4   29 1
    33   11   30 1
    34   19   31 1
    35   20   32 1
    36   21   33 1
    37   22   34 1
    38   23   35 1
    39   25   36 1
    40   25   37 1
@<TRIPOS>PROPERTY_DATA
  Total_Score	| 5.0781
  Crash		| -1.2701
  Polar		| 1.8474
  FragIndex	| 1
  FragRMSD	| 0.091

