@<TRIPOS>MOLECULE
BindingDB_2566
 31 33 0 0 0
SMALL
NO_CHARGES


@<TRIPOS>ATOM
1    C         7.7275    9.3712   -3.9003  C     
2    C         7.7384    8.4198   -2.8667  C     
3    C         8.7732    8.4198   -1.9157  C     
4    C         9.8063    9.3719   -2.0009  C     
5    C         8.7447   10.3573   -3.9865  C     
6    C         9.7855   10.3346   -3.0264  C     
7    C         8.7859   11.3336   -4.9964  C     
8    O         7.8081   11.3424   -5.9036  O     
9    C         9.8162   12.2177   -5.1082  C     
10   C         9.9163   13.1627   -6.2346  C     
11   O        10.7804   11.2686   -3.1193  O     
12   C        10.8156   12.1977   -4.1193  C     
13   O        11.8623   13.0550   -4.1145  O     
14   C        10.9761   12.8189   -7.2291  C     
15   C        11.8231   13.8356   -7.7242  C     
16   C        11.1101   11.5101   -7.7661  C     
17   C        12.0976   11.2265   -8.7258  C     
18   C        12.9199   12.2560   -9.2162  C     
19   C        12.7713   13.5598   -8.7248  C     
20   H         6.9689    9.3375   -4.5838  H     
21   H         6.9873    7.7268   -2.8080  H     
22   H         8.7746    7.7330   -1.1603  H     
23   H        10.5636    9.3629   -1.3156  H     
24   H         6.9792   11.5310   -5.4122  H     
25   H         8.9857   13.2356   -6.8039  H     
26   H        10.0711   14.1640   -5.8146  H     
27   H        11.7430   14.7936   -7.3764  H     
28   H        10.4852   10.7596   -7.4575  H     
29   H        12.2180   10.2756   -9.0751  H     
30   H        13.6177   12.0571   -9.9380  H     
31   H        13.3431   14.3199   -9.1011  H     
@<TRIPOS>BOND
     1    1    2 1
     2    1    5 2
     3    2    3 2
     4    3    4 1
     5    4    6 2
     6    5    6 1
     7    5    7 1
     8    6   11 1
     9    7    8 1
    10    7    9 2
    11    9   10 1
    12    9   12 1
    13   10   14 1
    14   11   12 1
    15   12   13 2
    16   14   15 2
    17   14   16 1
    18   15   19 1
    19   16   17 2
    20   17   18 1
    21   18   19 2
    22    1   20 1
    23    2   21 1
    24    3   22 1
    25    4   23 1
    26    8   24 1
    27   10   25 1
    28   10   26 1
    29   15   27 1
    30   16   28 1
    31   17   29 1
    32   18   30 1
    33   19   31 1
@<TRIPOS>PROPERTY_DATA
  Total_Score	| 4.7073
  Crash		| -0.6474
  Polar		| 1.0176
  FragIndex	| 1
  FragRMSD	| 0.830

