@<TRIPOS>MOLECULE
BindingDB_50226830
 56 60 0 0 0
SMALL
NO_CHARGES


@<TRIPOS>ATOM
1    C        14.1548   11.8611  -10.2203  C     
2    C        12.7709   11.5751  -10.2079  C     
3    C        11.9991   11.8635   -9.0764  C     
4    C        14.7633   12.3914   -9.0706  C     
5    C        13.9826   12.6586   -7.9361  C     
6    C        12.5889   12.4425   -7.9294  C     
7    C        11.8700   12.8229   -6.7847  C     
8    C        12.4224   13.1620   -5.5876  C     
9    C        13.8340   13.3427   -5.6537  C     
10   O        14.5481   13.1139   -6.7903  O     
11   O        14.6237   13.7438   -4.6418  O     
12   C        11.5843   13.4999   -4.3700  C     
13   O        10.6068   13.0772   -7.0160  O     
14   C        10.8373   12.3152   -3.7679  C     
15   C         9.6135   11.9291   -4.2693  C     
16   O        10.5736   10.4429   -2.2163  O     
17   C        11.2440   11.5558   -2.6335  C     
18   O        12.2154   11.8161   -1.7434  O     
19   O         8.8733   12.7804   -4.9829  O     
20   C         9.4823    9.9661   -2.8452  C     
21   C         8.9658   10.7142   -3.9314  C     
22   C         7.8392   10.1847   -4.6131  C     
23   C         7.2446    8.9701   -4.2215  C     
24   C         7.7702    8.2525   -3.1308  C     
25   C         8.8738    8.7659   -2.4318  C     
26   C        12.2916   14.5799   -3.5545  C     
27   C        13.0549   15.5698   -4.2240  C     
28   C        13.8448   16.5117   -3.5318  C     
29   C        13.9449   16.4783   -2.1251  C     
30   C        13.2160   15.4853   -1.4416  C     
31   C        12.4639   14.5452   -2.1505  C     
32   C        14.8002   17.4476   -1.3740  C     
33   C        13.9397   18.5517   -0.6966  C     
34   C        15.7623   16.7597   -0.3687  C     
35   H        14.7099   11.6685  -11.0551  H     
36   H        12.3327   11.1483  -11.0257  H     
37   H        11.0043   11.6389   -9.0793  H     
38   H        15.7784   12.5448   -9.0532  H     
39   H        10.7388   14.0918   -4.7251  H     
40   H        10.5943   13.7925   -7.6693  H     
41   H         8.3503   13.3247   -4.3584  H     
42   H         7.4681   10.6777   -5.4308  H     
43   H         6.4397    8.6057   -4.7216  H     
44   H         7.3617    7.3598   -2.8520  H     
45   H         9.2507    8.2465   -1.6262  H     
46   H        13.0771   15.6009   -5.2411  H     
47   H        14.3799   17.2036   -4.0676  H     
48   H        13.2723   15.4014   -0.4207  H     
49   H        12.1611   13.7373   -1.6353  H     
50   H        15.4565   17.9671   -2.0842  H     
51   H        13.2914   19.0335   -1.4358  H     
52   H        14.5879   19.3147   -0.2642  H     
53   H        13.3140   18.1308    0.0962  H     
54   H        15.2095   16.2959    0.4507  H     
55   H        16.4517   17.4884    0.0523  H     
56   H        16.3441   15.9878   -0.8800  H     
@<TRIPOS>BOND
     1    1    2 2
     2    1    4 1
     3    2    3 1
     4    3    6 2
     5    4    5 2
     6    5    6 1
     7    5   10 1
     8    6    7 1
     9    7    8 2
    10    7   13 1
    11    8    9 1
    12    8   12 1
    13    9   10 1
    14    9   11 2
    15   12   14 1
    16   12   26 1
    17   14   15 2
    18   14   17 1
    19   15   19 1
    20   15   21 1
    21   16   17 1
    22   16   20 1
    23   17   18 2
    24   20   21 2
    25   20   25 1
    26   21   22 1
    27   22   23 2
    28   23   24 1
    29   24   25 2
    30   26   27 2
    31   26   31 1
    32   27   28 1
    33   28   29 2
    34   29   30 1
    35   29   32 1
    36   30   31 2
    37   32   33 1
    38   32   34 1
    39    1   35 1
    40    2   36 1
    41    3   37 1
    42    4   38 1
    43   12   39 1
    44   13   40 1
    45   19   41 1
    46   22   42 1
    47   23   43 1
    48   24   44 1
    49   25   45 1
    50   27   46 1
    51   28   47 1
    52   30   48 1
    53   31   49 1
    54   32   50 1
    55   33   51 1
    56   33   52 1
    57   33   53 1
    58   34   54 1
    59   34   55 1
    60   34   56 1
@<TRIPOS>PROPERTY_DATA
  Total_Score	| 2.7968
  Crash		| -4.5244
  Polar		| 0.1668
  FragIndex	| 1
  FragRMSD	| 1.339

