@<TRIPOS>MOLECULE
BindingDB_11425
 43 45 0 0 0
SMALL
NO_CHARGES


@<TRIPOS>ATOM
1    C        -3.4540    3.7499   15.3627  C     
2    C        -3.4343    4.8728   14.6011  C     
3    N        -4.5842    5.4386   14.1167  N     
4    S        -6.0677    5.2318   14.9082  S     
5    O        -6.3624    6.3406   16.0078  O     
6    O        -7.2976    5.0491   13.9158  O     
7    C        -4.6109    3.1187   15.8023  C     
8    C        -5.8716    3.7079   15.6825  C     
9    C        -4.6559    1.8553   16.4268  C     
10   C        -5.9389    1.4309   16.7911  C     
11   S        -7.0546    2.6616   16.3533  S     
12   N        -5.6812   -1.3407   16.6276  N     
13   S        -6.3534   -0.0848   17.5156  S     
14   O        -5.6189   -0.0862   18.9252  O     
15   O        -7.9262   -0.2435   17.6851  O     
16   C        -2.1470    5.5210   14.3017  C     
17   C        -1.0752    7.7728   14.5734  C     
18   N        -2.0416    6.7762   15.0840  N     
19   C        -4.6693    5.8808   12.8255  C     
20   C        -4.5440    7.2554   12.5233  C     
21   C        -4.6178    7.7036   11.1880  C     
22   C        -4.8278    6.7758   10.1507  C     
23   C        -4.9684    5.4062   10.4438  C     
24   C        -4.8864    4.9601   11.7749  C     
25   O        -4.4915    9.0205   10.8788  O     
26   C        -0.9304    8.7769   15.4901  C     
27   C        -0.8006    9.6458   16.3000  C     
28   H        -2.5920    3.3351   15.6365  H     
29   H        -3.8234    1.2848   16.5918  H     
30   H        -5.3586   -2.1283   17.0924  H     
31   H        -5.3651   -1.1636   15.7284  H     
32   H        -1.2879    4.8976   14.5611  H     
33   H        -2.0775    5.7223   13.2314  H     
34   H        -0.0958    7.3204   14.4062  H     
35   H        -1.4413    8.1977   13.6336  H     
36   H        -2.9628    7.2242   15.1154  H     
37   H        -1.7793    6.5265   16.0398  H     
38   H        -4.3935    7.9289   13.2775  H     
39   H        -4.8833    7.0962    9.1813  H     
40   H        -5.1294    4.7360    9.6894  H     
41   H        -4.9930    3.9617   11.9789  H     
42   H        -5.1070    9.5008   11.4684  H     
43   H        -0.6992   10.3140   16.9264  H     
@<TRIPOS>BOND
     1    1    2 2
     2    1    7 1
     3    2    3 1
     4    2   16 1
     5    3    4 1
     6    3   19 1
     7    4    5 2
     8    4    6 2
     9    4    8 1
    10    7    8 2
    11    7    9 1
    12    8   11 1
    13    9   10 2
    14   10   11 1
    15   10   13 1
    16   12   13 am
    17   13   14 2
    18   13   15 2
    19   16   18 1
    20   17   18 1
    21   17   26 1
    22   19   20 2
    23   19   24 1
    24   20   21 1
    25   21   22 2
    26   21   25 1
    27   22   23 1
    28   23   24 2
    29   26   27 3
    30    1   28 1
    31    9   29 1
    32   12   30 1
    33   12   31 1
    34   16   32 1
    35   16   33 1
    36   17   34 1
    37   17   35 1
    38   18   36 1
    39   18   37 1
    40   20   38 1
    41   22   39 1
    42   23   40 1
    43   24   41 1
    44   25   42 1
    45   27   43 1
@<TRIPOS>PROPERTY_DATA
  Total_Score	| 5.1679
  Crash		| -1.8569
  Polar		| 1.5283
  FragIndex	| 1
  FragRMSD	| 0.445

