@<TRIPOS>MOLECULE
BindingDB_10126
 43 46 0 0 0
SMALL
NO_CHARGES


@<TRIPOS>ATOM
1    C        12.7841   -8.0157   10.4487  C     
2    C        14.0743   -7.4375   10.6440  C     
3    C        12.1771   -8.9041   11.3779  C     
4    C        14.1459   -8.6599   12.7218  C     
5    C        14.7940   -7.7851   11.8251  C     
6    C        16.0845   -7.3529   12.2501  C     
7    C        16.6203   -7.7507   13.5039  C     
8    C        15.8949   -8.5948   14.3704  C     
9    C        12.8901   -9.2202   12.5538  C     
10   C        12.6557   -9.9316   13.7160  C     
11   C        14.6394   -9.0579   13.9529  C     
12   O        11.6137  -10.4846   14.0405  O     
13   N        13.7005   -9.8375   14.5210  N     
14   C        10.8695   -9.4080   11.1129  C     
15   C        10.2826  -10.6029   11.5412  C     
16   C         8.8550   -9.5399   10.2086  C     
17   C         9.0240  -10.6822   10.9711  C     
18   N         9.9731   -8.8031   10.3049  N     
19   F        16.8425   -6.5733   11.5318  F     
20   N        14.6325   -6.5459    9.7677  N     
21   C        14.4556   -6.3675    8.3546  C     
22   C        14.0316   -4.9198    8.0038  C     
23   N        15.0681   -3.9756    8.2766  N     
24   C        15.2506   -2.7899    7.6974  C     
25   C        16.4154   -2.0085    8.0542  C     
26   O        14.4645   -2.3449    6.8727  O     
27   H        12.2538   -7.7890    9.6016  H     
28   H        17.5486   -7.4203   13.8028  H     
29   H        16.2595   -8.8657   15.2852  H     
30   H        13.7526  -10.2348   15.4067  H     
31   H        10.7122  -11.3131   12.1425  H     
32   H         8.0262   -9.2950    9.6670  H     
33   H         8.3525  -11.4440   11.0938  H     
34   H        10.1143   -7.9518    9.8607  H     
35   H        15.2569   -5.9125   10.1458  H     
36   H        15.4112   -6.6092    7.8628  H     
37   H        13.6905   -7.0368    7.9373  H     
38   H        13.7578   -4.9080    6.9387  H     
39   H        13.1488   -4.6407    8.5763  H     
40   H        15.6735   -4.1962    9.0048  H     
41   H        16.4117   -1.8134    9.1304  H     
42   H        16.4319   -1.0470    7.5302  H     
43   H        17.3331   -2.5491    7.7956  H     
@<TRIPOS>BOND
     1    1    2 2
     2    1    3 1
     3    2    5 1
     4    2   20 1
     5    3    9 2
     6    3   14 1
     7    4    5 2
     8    4    9 1
     9    4   11 1
    10    5    6 1
    11    6    7 2
    12    6   19 1
    13    7    8 1
    14    8   11 2
    15    9   10 1
    16   10   12 2
    17   10   13 1
    18   11   13 1
    19   14   15 2
    20   14   18 1
    21   15   17 1
    22   16   17 2
    23   16   18 1
    24   20   21 1
    25   21   22 1
    26   22   23 1
    27   23   24 am
    28   24   25 1
    29   24   26 2
    30    1   27 1
    31    7   28 1
    32    8   29 1
    33   13   30 1
    34   15   31 1
    35   16   32 1
    36   17   33 1
    37   18   34 1
    38   20   35 1
    39   21   36 1
    40   21   37 1
    41   22   38 1
    42   22   39 1
    43   23   40 1
    44   25   41 1
    45   25   42 1
    46   25   43 1
@<TRIPOS>PROPERTY_DATA
  Total_Score	| 9.5936
  Crash		| -0.8487
  Polar		| 5.3900
  FragIndex	| 1
  FragRMSD	| 0.827

