@<TRIPOS>MOLECULE
BindingDB_10127
 53 56 0 0 0
SMALL
NO_CHARGES


@<TRIPOS>ATOM
1    C        12.9226   -8.0433   10.4724  C     
2    C        14.1746   -7.4358   10.7689  C     
3    C        12.2373   -8.9000   11.3808  C     
4    C        14.0865   -8.5763   12.8795  C     
5    C        14.7521   -7.6581   12.0609  C     
6    C        15.9714   -7.1406   12.5759  C     
7    C        16.4414   -7.5328   13.8577  C     
8    C        15.7220   -8.4565   14.6356  C     
9    C        12.8840   -9.2180   12.6124  C     
10   C        12.6541  -10.0092   13.7278  C     
11   C        14.5378   -8.9966   14.1261  C     
12   O        11.6790  -10.7053   13.9790  O     
13   N        13.6372   -9.8669   14.5988  N     
14   C        10.9609   -9.4330   11.0677  C     
15   C         9.9737   -8.8476   10.2706  C     
16   C         9.2408  -10.8213   10.9888  C     
17   C         8.8921   -9.7152   10.2268  C     
18   N        10.4732  -10.6244   11.4761  N     
19   F        16.6902   -6.3001   11.8949  F     
20   N        14.7742   -6.6217    9.8716  N     
21   C        14.8394   -6.8523    8.4493  C     
22   C        14.8058   -5.5220    7.6795  C     
23   N        14.8626   -5.8267    6.2813  N     
24   C        13.9510   -5.4800    5.3573  C     
25   O        12.9656   -4.6079    5.6780  O     
26   O        14.0765   -6.0325    4.1169  O     
27   C        13.2584   -5.8898    2.9391  C     
28   C        13.2289   -4.3902    2.4917  C     
29   C        13.9969   -6.7105    1.8549  C     
30   C        11.8250   -6.4947    3.1349  C     
31   H        12.4701   -7.7792    9.5896  H     
32   H        17.3154   -7.1383   14.2159  H     
33   H        16.0315   -8.6984   15.5731  H     
34   H        13.6756  -10.3031   15.4667  H     
35   H        10.0137   -7.9330    9.8155  H     
36   H         8.6630  -11.6503   11.1556  H     
37   H         8.0094   -9.5729    9.7301  H     
38   H        10.9540  -11.2574   12.0284  H     
39   H        15.4168   -5.9622   10.2119  H     
40   H        15.8184   -7.3039    8.2615  H     
41   H        14.1065   -7.5671    8.0620  H     
42   H        13.8929   -4.9889    7.9638  H     
43   H        15.6900   -4.9172    7.9350  H     
44   H        15.6204   -6.3555    5.9746  H     
45   H        12.6594   -3.7589    3.1683  H     
46   H        12.7712   -4.2836    1.5070  H     
47   H        14.2491   -3.9998    2.4456  H     
48   H        15.0368   -6.3890    1.7637  H     
49   H        13.5199   -6.6039    0.8774  H     
50   H        13.9946   -7.7736    2.1024  H     
51   H        11.9015   -7.5629    3.3772  H     
52   H        11.2220   -6.3757    2.2272  H     
53   H        11.2987   -6.0120    3.9554  H     
@<TRIPOS>BOND
     1    1    2 2
     2    1    3 1
     3    2    5 1
     4    2   20 1
     5    3    9 2
     6    3   14 1
     7    4    5 2
     8    4    9 1
     9    4   11 1
    10    5    6 1
    11    6    7 2
    12    6   19 1
    13    7    8 1
    14    8   11 2
    15    9   10 1
    16   10   12 2
    17   10   13 1
    18   11   13 1
    19   14   15 2
    20   14   18 1
    21   15   17 1
    22   16   17 2
    23   16   18 1
    24   20   21 1
    25   21   22 1
    26   22   23 1
    27   23   24 am
    28   24   25 2
    29   24   26 1
    30   26   27 1
    31   27   28 1
    32   27   29 1
    33   27   30 1
    34    1   31 1
    35    7   32 1
    36    8   33 1
    37   13   34 1
    38   15   35 1
    39   16   36 1
    40   17   37 1
    41   18   38 1
    42   20   39 1
    43   21   40 1
    44   21   41 1
    45   22   42 1
    46   22   43 1
    47   23   44 1
    48   28   45 1
    49   28   46 1
    50   28   47 1
    51   29   48 1
    52   29   49 1
    53   29   50 1
    54   30   51 1
    55   30   52 1
    56   30   53 1
@<TRIPOS>PROPERTY_DATA
  Total_Score	| 9.1559
  Crash		| -1.2129
  Polar		| 4.3393
  FragIndex	| 1
  FragRMSD	| 0.771

