@<TRIPOS>MOLECULE
BindingDB_10123
 42 45 0 0 0
SMALL
NO_CHARGES


@<TRIPOS>ATOM
1    C        12.8268   -8.1004   10.4555  C     
2    C        14.1028   -7.5032   10.6775  C     
3    C        12.1838   -8.9485   11.3982  C     
4    C        14.0890   -8.6005   12.8180  C     
5    C        14.7533   -7.7343   11.9280  C     
6    C        16.0049   -7.2345   12.4032  C     
7    C        16.5046   -7.5966   13.6823  C     
8    C        15.7782   -8.4654   14.5267  C     
9    C        12.8646   -9.2188   12.6089  C     
10   C        12.6324   -9.9391   13.7672  C     
11   C        14.5557   -8.9669   14.0732  C     
12   O        11.6520  -10.6201   14.0456  O     
13   N        13.6397   -9.7842   14.6093  N     
14   C        10.8744   -9.4283   11.1114  C     
15   C        10.2536  -10.6023   11.5474  C     
16   C         8.8637   -9.5107   10.1870  C     
17   C         8.9918  -10.6500   10.9709  C     
18   N        10.0060   -8.8117   10.2883  N     
19   F        16.7473   -6.4331   11.6906  F     
20   N        14.7125   -6.7175    9.7389  N     
21   C        14.7687   -6.8870    8.3136  C     
22   C        15.0549   -5.5538    7.5702  C     
23   C        16.3830   -5.5349    6.7784  C     
24   N        17.5568   -5.7509    7.6317  N     
25   H        12.3234   -7.8845    9.5973  H     
26   H        17.4077   -7.2307   14.0077  H     
27   H        16.1275   -8.7216   15.4513  H     
28   H        13.6924  -10.1869   15.4907  H     
29   H        10.6591  -11.3292   12.1507  H     
30   H         8.0484   -9.2538    9.6239  H     
31   H         8.3014  -11.3907   11.0812  H     
32   H        10.1788   -7.9706    9.8253  H     
33   H        15.3148   -6.0330   10.0705  H     
34   H        15.5625   -7.6180    8.1171  H     
35   H        13.8543   -7.3229    7.8948  H     
36   H        14.2453   -5.3657    6.8603  H     
37   H        15.0511   -4.7231    8.2790  H     
38   H        16.3694   -6.3039    6.0002  H     
39   H        16.4930   -4.5621    6.2883  H     
40   H        17.5323   -5.1071    8.4254  H     
41   H        18.4074   -5.5889    7.0909  H     
42   H        17.5545   -6.7104    7.9808  H     
@<TRIPOS>BOND
     1    1    2 2
     2    1    3 1
     3    2    5 1
     4    2   20 1
     5    3    9 2
     6    3   14 1
     7    4    5 2
     8    4    9 1
     9    4   11 1
    10    5    6 1
    11    6    7 2
    12    6   19 1
    13    7    8 1
    14    8   11 2
    15    9   10 1
    16   10   12 2
    17   10   13 1
    18   11   13 1
    19   14   15 2
    20   14   18 1
    21   15   17 1
    22   16   17 2
    23   16   18 1
    24   20   21 1
    25   21   22 1
    26   22   23 1
    27   23   24 1
    28    1   25 1
    29    7   26 1
    30    8   27 1
    31   13   28 1
    32   15   29 1
    33   16   30 1
    34   17   31 1
    35   18   32 1
    36   20   33 1
    37   21   34 1
    38   21   35 1
    39   22   36 1
    40   22   37 1
    41   23   38 1
    42   23   39 1
    43   24   40 1
    44   24   41 1
    45   24   42 1
@<TRIPOS>PROPERTY_DATA
  Total_Score	| 8.9391
  Crash		| -0.8019
  Polar		| 4.6358
  FragIndex	| 1
  FragRMSD	| 0.841

