@<TRIPOS>MOLECULE
BindingDB_10122
 39 42 0 0 0
SMALL
NO_CHARGES


@<TRIPOS>ATOM
1    C        12.9326   -8.1679   10.4291  C     
2    C        14.2012   -7.5577   10.6917  C     
3    C        12.2604   -9.0199   11.3523  C     
4    C        14.1427   -8.6796   12.8258  C     
5    C        14.8147   -7.7881   11.9626  C     
6    C        16.0224   -7.2469   12.4893  C     
7    C        16.4632   -7.5768   13.8012  C     
8    C        15.7243   -8.4556   14.6249  C     
9    C        12.9267   -9.3068   12.5737  C     
10   C        12.6609  -10.0220   13.7226  C     
11   C        14.5462   -9.0222   14.1107  C     
12   O        11.6720  -10.6847   13.9773  O     
13   N        13.6163   -9.8477   14.6131  N     
14   C        10.9488   -9.4717   11.0657  C     
15   C        10.3271  -10.6464   11.5038  C     
16   C         8.9132   -9.4854   10.2268  C     
17   C         9.0313  -10.6393   10.9936  C     
18   N        10.0661   -8.8028   10.2996  N     
19   F        16.7713   -6.4212   11.8063  F     
20   N        14.8166   -6.7475    9.7843  N     
21   C        14.7548   -6.7566    8.3483  C     
22   C        14.2862   -5.4067    7.7572  C     
23   N        14.4984   -4.2638    8.6508  N     
24   H        12.4673   -7.9694    9.5487  H     
25   H        17.3341   -7.1653   14.1666  H     
26   H        16.0321   -8.6630   15.5757  H     
27   H        13.6420  -10.2217   15.5120  H     
28   H        10.7358  -11.3844   12.0986  H     
29   H         8.0843   -9.1945    9.7084  H     
30   H         8.3089  -11.3590   11.1192  H     
31   H        10.2360   -7.9509    9.8773  H     
32   H        15.3899   -6.0690   10.1328  H     
33   H        15.7785   -6.9446    8.0114  H     
34   H        14.1499   -7.5714    7.9438  H     
35   H        14.8443   -5.2232    6.8281  H     
36   H        13.2175   -5.4550    7.4809  H     
37   H        13.8047   -4.2996    9.4094  H     
38   H        14.3873   -3.3878    8.1384  H     
39   H        15.4389   -4.3127    9.0681  H     
@<TRIPOS>BOND
     1    1    2 2
     2    1    3 1
     3    2    5 1
     4    2   20 1
     5    3    9 2
     6    3   14 1
     7    4    5 2
     8    4    9 1
     9    4   11 1
    10    5    6 1
    11    6    7 2
    12    6   19 1
    13    7    8 1
    14    8   11 2
    15    9   10 1
    16   10   12 2
    17   10   13 1
    18   11   13 1
    19   14   15 2
    20   14   18 1
    21   15   17 1
    22   16   17 2
    23   16   18 1
    24   20   21 1
    25   21   22 1
    26   22   23 1
    27    1   24 1
    28    7   25 1
    29    8   26 1
    30   13   27 1
    31   15   28 1
    32   16   29 1
    33   17   30 1
    34   18   31 1
    35   20   32 1
    36   21   33 1
    37   21   34 1
    38   22   35 1
    39   22   36 1
    40   23   37 1
    41   23   38 1
    42   23   39 1
@<TRIPOS>PROPERTY_DATA
  Total_Score	| 8.5221
  Crash		| -0.7299
  Polar		| 4.7638
  FragIndex	| 1
  FragRMSD	| 0.784

