@<TRIPOS>MOLECULE
BindingDB_10136
 31 34 0 0 0
SMALL
NO_CHARGES


@<TRIPOS>ATOM
1    C        12.9066   -8.3140   10.3648  C     
2    C        14.1906   -7.7417   10.5740  C     
3    C        12.1984   -9.0590   11.3615  C     
4    C        14.1363   -8.7222   12.7626  C     
5    C        14.8344   -7.9114   11.8438  C     
6    C        16.0753   -7.3827   12.3273  C     
7    C        16.5392   -7.6705   13.6402  C     
8    C        15.7981   -8.4965   14.5074  C     
9    C        12.8827   -9.3029   12.5887  C     
10   C        12.6558   -9.9580   13.7995  C     
11   C        14.5925   -9.0222   14.0374  C     
12   O        11.6907  -10.6019   14.1720  O     
13   N        13.6717   -9.7886   14.6231  N     
14   C        10.8581   -9.4559   11.0569  C     
15   C        10.0477  -10.4419   11.6244  C     
16   C         8.8953   -9.4398    9.9968  C     
17   C         8.8191  -10.4241   10.9775  C     
18   N        10.1134   -8.8816   10.0734  N     
19   F        16.8324   -6.5846   11.6344  F     
20   C        14.7688   -6.9933    9.4110  C     
21   H        12.4761   -8.1687    9.4401  H     
22   H        17.4172   -7.2606   13.9803  H     
23   H        16.1100   -8.6929   15.4618  H     
24   H        13.7339  -10.1532   15.5222  H     
25   H        10.2800  -11.1190   12.3553  H     
26   H         8.1532   -9.1891    9.3337  H     
27   H         8.0249  -11.0387   11.1694  H     
28   H        10.4256   -8.1591    9.4960  H     
29   H        14.8334   -7.6689    8.5502  H     
30   H        15.7616   -6.5871    9.5690  H     
31   H        14.1092   -6.1559    9.1504  H     
@<TRIPOS>BOND
     1    1    2 2
     2    1    3 1
     3    2    5 1
     4    2   20 1
     5    3    9 2
     6    3   14 1
     7    4    5 2
     8    4    9 1
     9    4   11 1
    10    5    6 1
    11    6    7 2
    12    6   19 1
    13    7    8 1
    14    8   11 2
    15    9   10 1
    16   10   12 2
    17   10   13 1
    18   11   13 1
    19   14   15 2
    20   14   18 1
    21   15   17 1
    22   16   17 2
    23   16   18 1
    24    1   21 1
    25    7   22 1
    26    8   23 1
    27   13   24 1
    28   15   25 1
    29   16   26 1
    30   17   27 1
    31   18   28 1
    32   20   29 1
    33   20   30 1
    34   20   31 1
@<TRIPOS>PROPERTY_DATA
  Total_Score	| 6.6495
  Crash		| -0.4102
  Polar		| 2.3600
  FragIndex	| 1
  FragRMSD	| 0.853

