@<TRIPOS>MOLECULE
BindingDB_10121
 37 40 0 0 0
SMALL
NO_CHARGES


@<TRIPOS>ATOM
1    C        12.9834   -8.1978   10.3942  C     
2    C        14.2556   -7.6079   10.6512  C     
3    C        12.2963   -9.0162   11.3337  C     
4    C        14.1794   -8.7014   12.7933  C     
5    C        14.8761   -7.8506   11.9094  C     
6    C        16.1179   -7.3524   12.4011  C     
7    C        16.5557   -7.6552   13.7161  C     
8    C        15.7931   -8.4889   14.5647  C     
9    C        12.9383   -9.2778   12.5681  C     
10   C        12.6501   -9.9515   13.7410  C     
11   C        14.5940   -9.0233   14.0736  C     
12   O        11.6254  -10.5502   14.0253  O     
13   N        13.6413   -9.8039   14.6033  N     
14   C        10.9876   -9.5004   11.0336  C     
15   C        10.0120   -8.8544   10.2726  C     
16   C         9.2044  -10.8031   10.9678  C     
17   C         8.8920   -9.6660   10.2386  C     
18   N        10.4588  -10.6763   11.4314  N     
19   F        16.8913   -6.5828   11.6842  F     
20   N        14.8415   -6.7647    9.7565  N     
21   C        14.8060   -6.8587    8.3316  C     
22   C        14.5822   -5.4833    7.6628  C     
23   O        15.8024   -4.7483    7.5278  O     
24   H        12.5363   -8.0373    9.4887  H     
25   H        17.4379   -7.2679   14.0605  H     
26   H        16.1037   -8.6965   15.5125  H     
27   H        13.6582  -10.1699   15.5037  H     
28   H        10.0868   -7.9354    9.8312  H     
29   H         8.5898  -11.5993   11.1277  H     
30   H         8.0064   -9.4678    9.7699  H     
31   H        10.9214  -11.3418   11.9631  H     
32   H        15.3160   -5.9927   10.1115  H     
33   H        15.7538   -7.2748    7.9658  H     
34   H        13.9949   -7.5097    8.0224  H     
35   H        14.1541   -5.6229    6.6629  H     
36   H        13.8851   -4.8847    8.2515  H     
37   H        16.1418   -4.6576    8.4484  H     
@<TRIPOS>BOND
     1    1    2 2
     2    1    3 1
     3    2    5 1
     4    2   20 1
     5    3    9 2
     6    3   14 1
     7    4    5 2
     8    4    9 1
     9    4   11 1
    10    5    6 1
    11    6    7 2
    12    6   19 1
    13    7    8 1
    14    8   11 2
    15    9   10 1
    16   10   12 2
    17   10   13 1
    18   11   13 1
    19   14   15 2
    20   14   18 1
    21   15   17 1
    22   16   17 2
    23   16   18 1
    24   20   21 1
    25   21   22 1
    26   22   23 1
    27    1   24 1
    28    7   25 1
    29    8   26 1
    30   13   27 1
    31   15   28 1
    32   16   29 1
    33   17   30 1
    34   18   31 1
    35   20   32 1
    36   21   33 1
    37   21   34 1
    38   22   35 1
    39   22   36 1
    40   23   37 1
@<TRIPOS>PROPERTY_DATA
  Total_Score	| 7.6499
  Crash		| -0.6581
  Polar		| 4.5376
  FragIndex	| 1
  FragRMSD	| 0.171

