@<TRIPOS>MOLECULE
BindingDB_10140
 40 43 0 0 0
SMALL
NO_CHARGES


@<TRIPOS>ATOM
1    C        12.7374   -7.9872   10.4936  C     
2    C        14.0420   -7.4513   10.6965  C     
3    C        12.1069   -8.9033   11.3804  C     
4    C        14.0743   -8.7049   12.7532  C     
5    C        14.7516   -7.8070   11.8931  C     
6    C        16.0178   -7.3602   12.3899  C     
7    C        16.5035   -7.7715   13.6578  C     
8    C        15.7602   -8.6517   14.4668  C     
9    C        12.8114   -9.2535   12.5567  C     
10   C        12.5594   -9.9795   13.7066  C     
11   C        14.5353   -9.1252   13.9896  C     
12   O        11.5257  -10.5543   14.0317  O     
13   N        13.5843   -9.9084   14.5264  N     
14   C        10.8044   -9.3739   11.0600  C     
15   C        10.1886  -10.5806   11.4030  C     
16   C         8.7923   -9.4081   10.1282  C     
17   C         8.9262  -10.5965   10.8278  C     
18   N         9.9291   -8.7116   10.2739  N     
19   F        16.7948   -6.5308   11.7560  F     
20   C        14.5274   -6.4958    9.6437  C     
21   C        14.7426   -7.1532    8.2483  C     
22   C        15.4652   -6.2489    7.2132  C     
23   N        16.8392   -5.8930    7.5957  N     
24   H        12.2247   -7.6927    9.6593  H     
25   H        17.3943   -7.4103   14.0142  H     
26   H        16.0877   -8.9147   15.3934  H     
27   H        13.6151  -10.3107   15.4090  H     
28   H        10.5921  -11.3464   11.9467  H     
29   H         7.9780   -9.1193    9.5841  H     
30   H         8.2392  -11.3502   10.8920  H     
31   H        10.0976   -7.8472    9.8695  H     
32   H        13.7942   -5.6859    9.5476  H     
33   H        15.4581   -6.0239    9.9362  H     
34   H        15.3135   -8.0760    8.3687  H     
35   H        13.7712   -7.4090    7.8167  H     
36   H        15.5142   -6.7829    6.2595  H     
37   H        14.8931   -5.3289    7.0571  H     
38   H        16.8261   -5.2820    8.4163  H     
39   H        17.2912   -5.4030    6.8170  H     
40   H        17.3665   -6.7416    7.8103  H     
@<TRIPOS>BOND
     1    1    2 2
     2    1    3 1
     3    2    5 1
     4    2   20 1
     5    3    9 2
     6    3   14 1
     7    4    5 2
     8    4    9 1
     9    4   11 1
    10    5    6 1
    11    6    7 2
    12    6   19 1
    13    7    8 1
    14    8   11 2
    15    9   10 1
    16   10   12 2
    17   10   13 1
    18   11   13 1
    19   14   15 2
    20   14   18 1
    21   15   17 1
    22   16   17 2
    23   16   18 1
    24   20   21 1
    25   21   22 1
    26   22   23 1
    27    1   24 1
    28    7   25 1
    29    8   26 1
    30   13   27 1
    31   15   28 1
    32   16   29 1
    33   17   30 1
    34   18   31 1
    35   20   32 1
    36   20   33 1
    37   21   34 1
    38   21   35 1
    39   22   36 1
    40   22   37 1
    41   23   38 1
    42   23   39 1
    43   23   40 1
@<TRIPOS>PROPERTY_DATA
  Total_Score	| 8.3726
  Crash		| -0.9161
  Polar		| 4.1682
  FragIndex	| 1
  FragRMSD	| 0.823

