@<TRIPOS>MOLECULE
BindingDB_10124
 45 48 0 0 0
SMALL
NO_CHARGES


@<TRIPOS>ATOM
1    C        12.8434   -7.9484   10.5911  C     
2    C        14.1352   -7.4083   10.7925  C     
3    C        12.1721   -8.8143   11.5122  C     
4    C        14.0750   -8.5051   12.9514  C     
5    C        14.7515   -7.6391   12.0650  C     
6    C        16.0097   -7.1541   12.5552  C     
7    C        16.4788   -7.5124   13.8455  C     
8    C        15.7376   -8.3643   14.6906  C     
9    C        12.8732   -9.1614   12.7054  C     
10   C        12.7150   -9.9901   13.8043  C     
11   C        14.5357   -8.8780   14.2043  C     
12   O        11.8210  -10.8341   14.0204  O     
13   N        13.6605   -9.7586   14.6974  N     
14   C        10.8421   -9.2362   11.1639  C     
15   C         9.9341  -10.0507   11.8529  C     
16   C         9.0020   -9.4154    9.9211  C     
17   C         8.8047  -10.2078   11.0467  C     
18   N        10.2100   -8.8490   10.0239  N     
19   F        16.7811   -6.3660   11.8495  F     
20   N        14.7693   -6.6848    9.8203  N     
21   C        14.7241   -6.8791    8.3901  C     
22   N        15.6198   -4.7124    7.6372  N     
23   C        14.4316   -5.5826    7.5752  C     
24   C        14.1609   -5.9263    6.0724  C     
25   C        13.2422   -4.7765    8.1643  C     
26   H        12.3430   -7.6284    9.7646  H     
27   H        17.3831   -7.1672   14.1878  H     
28   H        16.0461   -8.6279   15.6188  H     
29   H        13.7273  -10.1993   15.5563  H     
30   H        10.0545  -10.4366   12.8170  H     
31   H         8.3317   -9.2708    9.1622  H     
32   H         7.9874  -10.7648   11.2687  H     
33   H        10.5811   -8.2254    9.3572  H     
34   H        15.4411   -6.0496   10.1091  H     
35   H        15.7108   -7.2575    8.0990  H     
36   H        14.0272   -7.6481    8.0686  H     
37   H        15.8998   -4.5714    8.6120  H     
38   H        15.4144   -3.8085    7.2154  H     
39   H        16.3970   -5.1566    7.1400  H     
40   H        15.0150   -6.4561    5.6382  H     
41   H        13.9910   -5.0202    5.4869  H     
42   H        13.2792   -6.5698    5.9690  H     
43   H        12.3336   -5.3839    8.1983  H     
44   H        13.0453   -3.8855    7.5603  H     
45   H        13.4735   -4.4430    9.1781  H     
@<TRIPOS>BOND
     1    1    2 2
     2    1    3 1
     3    2    5 1
     4    2   20 1
     5    3    9 2
     6    3   14 1
     7    4    5 2
     8    4    9 1
     9    4   11 1
    10    5    6 1
    11    6    7 2
    12    6   19 1
    13    7    8 1
    14    8   11 2
    15    9   10 1
    16   10   12 2
    17   10   13 1
    18   11   13 1
    19   14   15 2
    20   14   18 1
    21   15   17 1
    22   16   17 2
    23   16   18 1
    24   20   21 1
    25   21   23 1
    26   22   23 1
    27   23   24 1
    28   23   25 1
    29    1   26 1
    30    7   27 1
    31    8   28 1
    32   13   29 1
    33   15   30 1
    34   16   31 1
    35   17   32 1
    36   18   33 1
    37   20   34 1
    38   21   35 1
    39   21   36 1
    40   22   37 1
    41   22   38 1
    42   22   39 1
    43   24   40 1
    44   24   41 1
    45   24   42 1
    46   25   43 1
    47   25   44 1
    48   25   45 1
@<TRIPOS>PROPERTY_DATA
  Total_Score	| 9.5491
  Crash		| -0.8787
  Polar		| 4.7245
  FragIndex	| 1
  FragRMSD	| 0.889

