@<TRIPOS>MOLECULE
BindingDB_10138
 40 43 0 0 0
SMALL
NO_CHARGES


@<TRIPOS>ATOM
1    C        12.7145   -8.0799   10.5083  C     
2    C        14.0015   -7.4937   10.7011  C     
3    C        12.1049   -8.9875   11.4208  C     
4    C        14.0853   -8.7236   12.7623  C     
5    C        14.7484   -7.8590   11.8620  C     
6    C        16.0559   -7.4518   12.2736  C     
7    C        16.5699   -7.8230   13.5435  C     
8    C        15.8203   -8.6244   14.4277  C     
9    C        12.8211   -9.2809   12.6053  C     
10   C        12.6006   -9.9657   13.7872  C     
11   C        14.5752   -9.0947   14.0057  C     
12   O        11.5783  -10.5108   14.1682  O     
13   N        13.6432   -9.8553   14.5888  N     
14   C        10.8037   -9.4914   11.1318  C     
15   C        10.1828  -10.6913   11.5190  C     
16   C         8.7803   -9.5482   10.2223  C     
17   C         8.9083  -10.7160   10.9744  C     
18   N         9.9186   -8.8469   10.3373  N     
19   F        16.8715   -6.7680   11.5191  F     
20   C        14.4054   -6.4189    9.7300  C     
21   C        14.8471   -6.9260    8.3094  C     
22   C        13.7312   -6.7129    7.2363  C     
23   C        16.1725   -6.2654    7.8220  C     
24   H        12.1864   -7.8037    9.6738  H     
25   H        17.4977   -7.5141   13.8309  H     
26   H        16.1692   -8.8664   15.3522  H     
27   H        13.6950  -10.2137   15.4910  H     
28   H        10.5975  -11.4516   12.0588  H     
29   H         7.9584   -9.2671    9.6878  H     
30   H         8.2120  -11.4652   11.0614  H     
31   H        10.0827   -7.9852    9.9098  H     
32   H        13.5657   -5.7199    9.6297  H     
33   H        15.1845   -5.7996   10.1557  H     
34   H        15.0445   -8.0049    8.3692  H     
35   H        12.8284   -7.2716    7.5081  H     
36   H        14.0643   -7.0487    6.2520  H     
37   H        13.4682   -5.6535    7.1729  H     
38   H        16.0421   -5.1887    7.7031  H     
39   H        16.4827   -6.6846    6.8634  H     
40   H        16.9694   -6.4397    8.5503  H     
@<TRIPOS>BOND
     1    1    2 2
     2    1    3 1
     3    2    5 1
     4    2   20 1
     5    3    9 2
     6    3   14 1
     7    4    5 2
     8    4    9 1
     9    4   11 1
    10    5    6 1
    11    6    7 2
    12    6   19 1
    13    7    8 1
    14    8   11 2
    15    9   10 1
    16   10   12 2
    17   10   13 1
    18   11   13 1
    19   14   15 2
    20   14   18 1
    21   15   17 1
    22   16   17 2
    23   16   18 1
    24   20   21 1
    25   21   22 1
    26   21   23 1
    27    1   24 1
    28    7   25 1
    29    8   26 1
    30   13   27 1
    31   15   28 1
    32   16   29 1
    33   17   30 1
    34   18   31 1
    35   20   32 1
    36   20   33 1
    37   21   34 1
    38   22   35 1
    39   22   36 1
    40   22   37 1
    41   23   38 1
    42   23   39 1
    43   23   40 1
@<TRIPOS>PROPERTY_DATA
  Total_Score	| 7.6401
  Crash		| -0.8017
  Polar		| 2.3490
  FragIndex	| 1
  FragRMSD	| 0.872

