@<TRIPOS>MOLECULE
BindingDB_10125
 51 54 0 0 0
SMALL
NO_CHARGES


@<TRIPOS>ATOM
1    C        12.9179   -8.1497   10.4486  C     
2    C        14.1731   -7.5274   10.7242  C     
3    C        12.2355   -8.9775   11.3786  C     
4    C        14.0900   -8.6109   12.8670  C     
5    C        14.7774   -7.7365   12.0004  C     
6    C        15.9997   -7.2116   12.5170  C     
7    C        16.4520   -7.5577   13.8134  C     
8    C        15.7159   -8.4415   14.6337  C     
9    C        12.8820   -9.2385   12.6076  C     
10   C        12.6195   -9.9690   13.7453  C     
11   C        14.5177   -8.9772   14.1308  C     
12   O        11.6421  -10.6720   13.9601  O     
13   N        13.5934   -9.8142   14.6212  N     
14   C        10.9487   -9.4897   11.0617  C     
15   C         9.9936   -8.8844   10.2368  C     
16   C         9.1820  -10.8105   10.9968  C     
17   C         8.8805   -9.7061   10.2113  C     
18   N        10.4202  -10.6496   11.4920  N     
19   F        16.7483   -6.3948   11.8250  F     
20   N        14.8028   -6.7608    9.7874  N     
21   C        14.8914   -7.0743    8.3830  C     
22   C        15.8345   -6.1137    7.6133  C     
23   N        15.5537   -4.6285    7.6848  N     
24   C        16.1514   -3.8848    6.5157  C     
25   C        15.5018   -4.1455    5.1216  C     
26   C        14.1230   -4.2890    8.0045  C     
27   C        13.6444   -2.8399    7.6548  C     
28   H        12.4619   -7.9879    9.5443  H     
29   H        17.3267   -7.1653   14.1777  H     
30   H        16.0331   -8.6794   15.5697  H     
31   H        13.6336  -10.2425   15.4930  H     
32   H        10.0800   -7.9830    9.7610  H     
33   H         8.5660  -11.6044   11.1706  H     
34   H         8.0063   -9.5327    9.7085  H     
35   H        10.8668  -11.2864   12.0705  H     
36   H        15.3723   -6.0350   10.0975  H     
37   H        15.3062   -8.0997    8.3067  H     
38   H        13.8993   -7.0375    7.8832  H     
39   H        16.8640   -6.2772    7.9634  H     
40   H        15.8085   -6.4546    6.5675  H     
41   H        16.0926   -4.3112    8.5004  H     
42   H        16.0985   -2.8097    6.7060  H     
43   H        17.2203   -4.1208    6.4332  H     
44   H        15.6365   -5.1918    4.8192  H     
45   H        15.9818   -3.4989    4.3657  H     
46   H        14.4263   -3.9208    5.1492  H     
47   H        13.4603   -5.0146    7.5180  H     
48   H        13.9951   -4.3871    9.0847  H     
49   H        14.3913   -2.0994    7.9850  H     
50   H        12.6806   -2.6508    8.1636  H     
51   H        13.4905   -2.7570    6.5683  H     
@<TRIPOS>BOND
     1    1    2 2
     2    1    3 1
     3    2    5 1
     4    2   20 1
     5    3    9 2
     6    3   14 1
     7    4    5 2
     8    4    9 1
     9    4   11 1
    10    5    6 1
    11    6    7 2
    12    6   19 1
    13    7    8 1
    14    8   11 2
    15    9   10 1
    16   10   12 2
    17   10   13 1
    18   11   13 1
    19   14   15 2
    20   14   18 1
    21   15   17 1
    22   16   17 2
    23   16   18 1
    24   20   21 1
    25   21   22 1
    26   22   23 1
    27   23   24 1
    28   23   26 1
    29   24   25 1
    30   26   27 1
    31    1   28 1
    32    7   29 1
    33    8   30 1
    34   13   31 1
    35   15   32 1
    36   16   33 1
    37   17   34 1
    38   18   35 1
    39   20   36 1
    40   21   37 1
    41   21   38 1
    42   22   39 1
    43   22   40 1
    44   23   41 1
    45   24   42 1
    46   24   43 1
    47   25   44 1
    48   25   45 1
    49   25   46 1
    50   26   47 1
    51   26   48 1
    52   27   49 1
    53   27   50 1
    54   27   51 1
@<TRIPOS>PROPERTY_DATA
  Total_Score	| 11.1739
  Crash		| -1.2720
  Polar		| 5.1409
  FragIndex	| 1
  FragRMSD	| 0.565

