@<TRIPOS>MOLECULE
BindingDB_10115
 32 35 0 0 0
SMALL
NO_CHARGES


@<TRIPOS>ATOM
1    C        12.8089   -8.2482   10.3330  C     
2    C        14.1044   -7.6983   10.5503  C     
3    C        12.1391   -9.0356   11.3250  C     
4    C        14.1036   -8.7380   12.7081  C     
5    C        14.7841   -7.9301   11.7789  C     
6    C        16.0503   -7.4434   12.1951  C     
7    C        16.5489   -7.7448   13.4902  C     
8    C        15.8132   -8.5519   14.3881  C     
9    C        12.8416   -9.2983   12.5360  C     
10   C        12.6060   -9.9612   13.7230  C     
11   C        14.5722   -9.0633   13.9734  C     
12   O        11.5855  -10.5516   14.0386  O     
13   N        13.6222   -9.8182   14.5532  N     
14   C        10.8206   -9.5019   11.0482  C     
15   C        10.2018  -10.6786   11.4661  C     
16   C         8.7763   -9.5391   10.1962  C     
17   C         8.9235  -10.7010   10.9346  C     
18   N         9.9242   -8.8475   10.2754  N     
19   F        16.7638   -6.6835   11.4071  F     
20   O        14.7539   -7.0103    9.5484  O     
21   C        14.3936   -5.6090    9.4157  C     
22   H        12.3765   -8.0654    9.4156  H     
23   H        17.4575   -7.3566   13.7774  H     
24   H        16.1730   -8.7270   15.3217  H     
25   H        13.6634  -10.1742   15.4506  H     
26   H        10.6216  -11.4240   12.0178  H     
27   H         7.9470   -9.2584    9.6742  H     
28   H         8.2224  -11.4290   11.0578  H     
29   H        10.0872   -7.9974    9.8326  H     
30   H        13.3583   -5.4938    9.0525  H     
31   H        15.0726   -5.1647    8.6972  H     
32   H        14.4935   -5.0638   10.3699  H     
@<TRIPOS>BOND
     1    1    2 2
     2    1    3 1
     3    2    5 1
     4    2   20 1
     5    3    9 2
     6    3   14 1
     7    4    5 2
     8    4    9 1
     9    4   11 1
    10    5    6 1
    11    6    7 2
    12    6   19 1
    13    7    8 1
    14    8   11 2
    15    9   10 1
    16   10   12 2
    17   10   13 1
    18   11   13 1
    19   14   15 2
    20   14   18 1
    21   15   17 1
    22   16   17 2
    23   16   18 1
    24   20   21 1
    25    1   22 1
    26    7   23 1
    27    8   24 1
    28   13   25 1
    29   15   26 1
    30   16   27 1
    31   17   28 1
    32   18   29 1
    33   21   30 1
    34   21   31 1
    35   21   32 1
@<TRIPOS>PROPERTY_DATA
  Total_Score	| 6.5695
  Crash		| -0.3529
  Polar		| 2.3244
  FragIndex	| 1
  FragRMSD	| 0.867

