@<TRIPOS>MOLECULE
BindingDB_10116
 35 38 0 0 0
SMALL
NO_CHARGES


@<TRIPOS>ATOM
1    C        12.7459   -8.0673   10.5507  C     
2    C        14.0500   -7.5464   10.7441  C     
3    C        12.1283   -8.9716   11.4718  C     
4    C        14.0862   -8.6883   12.8525  C     
5    C        14.7336   -7.8174   11.9586  C     
6    C        15.9780   -7.2903   12.3881  C     
7    C        16.4933   -7.6182   13.6722  C     
8    C        15.7949   -8.4954   14.5350  C     
9    C        12.8451   -9.2759   12.6576  C     
10   C        12.6309   -9.9948   13.8159  C     
11   C        14.5783   -9.0464   14.0963  C     
12   O        11.6197  -10.6176   14.1079  O     
13   N        13.6590   -9.8630   14.6391  N     
14   C        10.8436   -9.4937   11.1579  C     
15   C        10.2640  -10.7080   11.5457  C     
16   C         8.8529   -9.6185   10.2052  C     
17   C         9.0076  -10.7788   10.9537  C     
18   N         9.9648   -8.8855   10.3396  N     
19   F        16.6588   -6.4698   11.6359  F     
20   O        14.6225   -6.7471    9.7901  O     
21   C        14.8179   -7.3543    8.4942  C     
22   C        15.9134   -6.6080    7.7064  C     
23   H        12.2424   -7.7833    9.7091  H     
24   H        17.3739   -7.2038   13.9860  H     
25   H        16.1569   -8.7148   15.4654  H     
26   H        13.7252  -10.2681   15.5193  H     
27   H        10.6836  -11.4364   12.1342  H     
28   H         8.0353   -9.3667    9.6471  H     
29   H         8.3376  -11.5436   11.0339  H     
30   H        10.1160   -8.0284    9.9066  H     
31   H        15.1182   -8.4041    8.5996  H     
32   H        13.8884   -7.3185    7.9225  H     
33   H        15.6249   -5.5661    7.5507  H     
34   H        16.0621   -7.0784    6.7308  H     
35   H        16.8529   -6.6368    8.2637  H     
@<TRIPOS>BOND
     1    1    2 2
     2    1    3 1
     3    2    5 1
     4    2   20 1
     5    3    9 2
     6    3   14 1
     7    4    5 2
     8    4    9 1
     9    4   11 1
    10    5    6 1
    11    6    7 2
    12    6   19 1
    13    7    8 1
    14    8   11 2
    15    9   10 1
    16   10   12 2
    17   10   13 1
    18   11   13 1
    19   14   15 2
    20   14   18 1
    21   15   17 1
    22   16   17 2
    23   16   18 1
    24   20   21 1
    25   21   22 1
    26    1   23 1
    27    7   24 1
    28    8   25 1
    29   13   26 1
    30   15   27 1
    31   16   28 1
    32   17   29 1
    33   18   30 1
    34   21   31 1
    35   21   32 1
    36   22   33 1
    37   22   34 1
    38   22   35 1
@<TRIPOS>PROPERTY_DATA
  Total_Score	| 7.1456
  Crash		| -0.6621
  Polar		| 2.3564
  FragIndex	| 1
  FragRMSD	| 0.866

