@<TRIPOS>MOLECULE
BindingDB_10135
 28 31 0 0 0
SMALL
NO_CHARGES


@<TRIPOS>ATOM
1    C        12.9893   -8.3724   10.3836  C     
2    C        14.2714   -7.8282   10.6134  C     
3    C        12.2628   -9.1069   11.3761  C     
4    C        14.1411   -8.6998   12.8278  C     
5    C        14.8686   -7.9664   11.8778  C     
6    C        16.1138   -7.4367   12.2878  C     
7    C        16.5673   -7.6255   13.6179  C     
8    C        15.8066   -8.3765   14.5461  C     
9    C        12.8968   -9.2970   12.6454  C     
10   C        12.6807   -9.9264   13.8662  C     
11   C        14.5874   -8.9198   14.1140  C     
12   O        11.8021  -10.7058   14.2090  O     
13   N        13.6639   -9.6793   14.7092  N     
14   C        10.9533   -9.5772   11.0269  C     
15   C         9.8943  -10.1234   11.7867  C     
16   C         9.2230   -9.9326    9.6684  C     
17   C         8.8268  -10.3444   10.9330  C     
18   N        10.4823   -9.4941    9.7561  N     
19   F        16.8491   -6.7669   11.4497  F     
20   H        12.5951   -8.1958    9.4529  H     
21   H        14.7563   -7.3162    9.8725  H     
22   H        17.4556   -7.2183   13.9208  H     
23   H        16.1121   -8.5267   15.5169  H     
24   H        13.7374  -10.0388   15.6157  H     
25   H         9.8331  -10.2830   12.7950  H     
26   H         8.6645   -9.9297    8.8200  H     
27   H         7.9152  -10.7155   11.2032  H     
28   H        10.9822   -9.1217    8.9957  H     
@<TRIPOS>BOND
     1    1    2 2
     2    1    3 1
     3    2    5 1
     4    3    9 2
     5    3   14 1
     6    4    5 2
     7    4    9 1
     8    4   11 1
     9    5    6 1
    10    6    7 2
    11    6   19 1
    12    7    8 1
    13    8   11 2
    14    9   10 1
    15   10   12 2
    16   10   13 1
    17   11   13 1
    18   14   15 2
    19   14   18 1
    20   15   17 1
    21   16   17 2
    22   16   18 1
    23    1   20 1
    24    2   21 1
    25    7   22 1
    26    8   23 1
    27   13   24 1
    28   15   25 1
    29   16   26 1
    30   17   27 1
    31   18   28 1
@<TRIPOS>PROPERTY_DATA
  Total_Score	| 5.6593
  Crash		| -0.3197
  Polar		| 2.3445
  FragIndex	| 1
  FragRMSD	| 0.796

