@<TRIPOS>MOLECULE
BindingDB_10137
 34 37 0 0 0
SMALL
NO_CHARGES


@<TRIPOS>ATOM
1    C        12.7951   -8.2543   10.4323  C     
2    C        14.0755   -7.6606   10.6213  C     
3    C        12.1588   -9.0737   11.4039  C     
4    C        14.1000   -8.7091   12.7828  C     
5    C        14.7538   -7.8619   11.8644  C     
6    C        15.9963   -7.3235   12.3166  C     
7    C        16.4943   -7.6202   13.6142  C     
8    C        15.7837   -8.4636   14.4924  C     
9    C        12.8647   -9.3205   12.6065  C     
10   C        12.6446   -9.9937   13.7938  C     
11   C        14.5768   -9.0176   14.0478  C     
12   O        11.6422  -10.6135   14.1138  O     
13   N        13.6659   -9.8214   14.6199  N     
14   C        10.8563   -9.5750   11.1260  C     
15   C        10.2898  -10.7992   11.4741  C     
16   C         8.8060   -9.6282   10.2908  C     
17   C         9.0047  -10.8337   10.9491  C     
18   N         9.9294   -8.9042   10.4094  N     
19   F        16.7179   -6.5241   11.5894  F     
20   C        14.6041   -6.8076    9.5167  C     
21   C        14.1222   -5.3433    9.6444  C     
22   H        12.3009   -8.0765    9.5489  H     
23   H        17.3806   -7.2178   13.9334  H     
24   H        16.1289   -8.6594   15.4339  H     
25   H        13.7224  -10.1853   15.5209  H     
26   H        10.7387  -11.5665   11.9722  H     
27   H         7.9574   -9.3438    9.7961  H     
28   H         8.3365  -11.5996   11.0205  H     
29   H        10.0577   -8.0262   10.0192  H     
30   H        15.6975   -6.8300    9.4923  H     
31   H        14.2772   -7.1905    8.5432  H     
32   H        13.0257   -5.2987    9.5846  H     
33   H        14.5380   -4.7402    8.8343  H     
34   H        14.4385   -4.9136   10.5985  H     
@<TRIPOS>BOND
     1    1    2 2
     2    1    3 1
     3    2    5 1
     4    2   20 1
     5    3    9 2
     6    3   14 1
     7    4    5 2
     8    4    9 1
     9    4   11 1
    10    5    6 1
    11    6    7 2
    12    6   19 1
    13    7    8 1
    14    8   11 2
    15    9   10 1
    16   10   12 2
    17   10   13 1
    18   11   13 1
    19   14   15 2
    20   14   18 1
    21   15   17 1
    22   16   17 2
    23   16   18 1
    24   20   21 1
    25    1   22 1
    26    7   23 1
    27    8   24 1
    28   13   25 1
    29   15   26 1
    30   16   27 1
    31   17   28 1
    32   18   29 1
    33   20   30 1
    34   20   31 1
    35   21   32 1
    36   21   33 1
    37   21   34 1
@<TRIPOS>PROPERTY_DATA
  Total_Score	| 6.7472
  Crash		| -0.5405
  Polar		| 2.3575
  FragIndex	| 1
  FragRMSD	| 0.860

