@<TRIPOS>MOLECULE
BindingDB_10139
 35 38 0 0 0
SMALL
NO_CHARGES


@<TRIPOS>ATOM
1    C        12.8932   -8.1350   10.4047  C     
2    C        14.1809   -7.5758   10.6395  C     
3    C        12.1723   -8.9431   11.3388  C     
4    C        14.1003   -8.6609   12.7796  C     
5    C        14.8081   -7.8134   11.8980  C     
6    C        16.0422   -7.2992   12.4106  C     
7    C        16.5012   -7.6450   13.7099  C     
8    C        15.7563   -8.5069   14.5375  C     
9    C        12.8508   -9.2503   12.5596  C     
10   C        12.6402   -9.9880   13.7205  C     
11   C        14.5479   -9.0117   14.0439  C     
12   O        11.7360  -10.7504   14.0201  O     
13   N        13.6351   -9.8268   14.5736  N     
14   C        10.8167   -9.3034   10.9794  C     
15   C         9.8333  -10.0169   11.6778  C     
16   C         8.9250   -9.3068    9.7778  C     
17   C         8.6607  -10.0157   10.9337  C     
18   N        10.2055   -8.9000    9.8330  N     
19   F        16.8071   -6.4807   11.7482  F     
20   C        14.7591   -6.7178    9.5605  C     
21   C        14.0800   -5.3170    9.5298  C     
22   C        14.5580   -4.5399    8.5148  C     
23   N        14.9874   -3.8853    7.6698  N     
24   H        12.4621   -7.9052    9.5075  H     
25   H        17.3859   -7.2619   14.0611  H     
26   H        16.0725   -8.7411   15.4772  H     
27   H        13.7049  -10.2515   15.4462  H     
28   H         9.8902  -10.4540   12.5862  H     
29   H         8.2573   -9.1026    9.0242  H     
30   H         7.7663  -10.4412   11.2006  H     
31   H        10.6216   -8.3582    9.1380  H     
32   H        15.8422   -6.6176    9.6667  H     
33   H        14.6074   -7.2077    8.5846  H     
34   H        12.9986   -5.4398    9.3781  H     
35   H        14.2478   -4.7939   10.4766  H     
@<TRIPOS>BOND
     1    1    2 2
     2    1    3 1
     3    2    5 1
     4    2   20 1
     5    3    9 2
     6    3   14 1
     7    4    5 2
     8    4    9 1
     9    4   11 1
    10    5    6 1
    11    6    7 2
    12    6   19 1
    13    7    8 1
    14    8   11 2
    15    9   10 1
    16   10   12 2
    17   10   13 1
    18   11   13 1
    19   14   15 2
    20   14   18 1
    21   15   17 1
    22   16   17 2
    23   16   18 1
    24   20   21 1
    25   21   22 1
    26   22   23 3
    27    1   24 1
    28    7   25 1
    29    8   26 1
    30   13   27 1
    31   15   28 1
    32   16   29 1
    33   17   30 1
    34   18   31 1
    35   20   32 1
    36   20   33 1
    37   21   34 1
    38   21   35 1
@<TRIPOS>PROPERTY_DATA
  Total_Score	| 6.5230
  Crash		| -0.5747
  Polar		| 2.3129
  FragIndex	| 1
  FragRMSD	| 0.784

