@<TRIPOS>MOLECULE
BindingDB_24757
 58 62 0 0 0
SMALL
NO_CHARGES


@<TRIPOS>ATOM
1    C        64.8030   14.7990  112.1310  C     
2    C        63.9989   15.5409  112.9372  C     
3    C        63.7295   16.8306  112.4985  C     
4    C        65.0361   16.5415  110.5675  C     
5    N        65.3030   15.2758  110.9815  N     
6    N        64.2394   17.3015  111.3625  N     
7    O        62.9663   17.5825  113.0890  O     
8    C        65.5481   17.1238  109.2964  C     
9    C        66.5554   16.3215  108.5357  C     
10   C        67.6385   15.6960  109.2017  C     
11   C        66.4845   16.2101  107.1252  C     
12   C        67.4399   15.4674  106.4090  C     
13   C        68.4907   14.8276  107.0898  C     
14   C        68.5904   14.9459  108.4872  C     
15   C        63.5100   15.0121  114.1589  C     
16   C        63.3600   15.8253  115.3143  C     
17   C        62.9538   15.2812  116.5500  C     
18   C        62.7042   13.9014  116.6767  C     
19   C        62.7874   13.0854  115.5298  C     
20   C        63.1865   13.6363  114.2929  C     
21   F        62.5054   11.8122  115.6028  F     
22   O        62.3472   13.3657  117.8917  O     
23   C        63.2408   13.0600  118.8692  C     
24   C        65.4092   12.9073  119.8183  C     
25   C        64.5825   13.2478  118.7888  C     
26   C        63.6188   12.0634  121.0666  C     
27   C        62.7131   12.4585  120.0374  C     
28   C        61.3389   12.1752  120.2386  C     
29   C        60.8800   11.5299  121.4075  C     
30   C        61.7919   11.1518  122.4164  C     
31   C        63.1703   11.3995  122.2291  C     
32   N        64.9405   12.3214  120.9074  N     
33   C        58.7829   11.9512  122.3921  C     
34   O        59.5567   11.1700  121.4636  O     
35   O        61.3002   10.4688  123.5048  O     
36   C        61.7382   10.9612  124.7969  C     
37   H        65.0764   13.8823  112.3933  H     
38   H        64.0181   18.2061  111.0840  H     
39   H        64.6753   17.3199  108.6665  H     
40   H        65.9922   18.0947  109.5247  H     
41   H        67.7401   15.7831  110.2153  H     
42   H        65.7332   16.6773  106.6066  H     
43   H        67.3707   15.3899  105.3920  H     
44   H        69.1782   14.2790  106.5706  H     
45   H        69.3593   14.4884  108.9837  H     
46   H        63.5773   16.8247  115.2808  H     
47   H        62.8633   15.8885  117.3679  H     
48   H        63.2321   13.0182  113.4792  H     
49   H        66.3846   13.0481  119.7466  H     
50   H        64.9831   13.6409  117.9725  H     
51   H        60.6579   12.4218  119.5178  H     
52   H        63.8357   11.0662  122.9436  H     
53   H        59.0993   11.7356  123.4148  H     
54   H        57.7393   11.6668  122.2791  H     
55   H        58.8620   13.0271  122.1970  H     
56   H        62.8408   10.9722  124.8783  H     
57   H        61.3479   10.2946  125.5636  H     
58   H        61.3610   11.9882  124.9719  H     
@<TRIPOS>BOND
     1    1    2 2
     2    1    5 1
     3    2    3 1
     4    2   15 1
     5    3    6 1
     6    3    7 2
     7    4    5 2
     8    4    6 1
     9    4    8 1
    10    8    9 1
    11    9   10 2
    12    9   11 1
    13   10   14 1
    14   11   12 2
    15   12   13 1
    16   13   14 2
    17   15   16 1
    18   15   20 2
    19   16   17 2
    20   17   18 1
    21   18   19 2
    22   18   22 1
    23   19   20 1
    24   19   21 1
    25   22   23 1
    26   23   25 2
    27   23   27 1
    28   24   25 1
    29   24   32 2
    30   26   27 1
    31   26   31 2
    32   26   32 1
    33   27   28 2
    34   28   29 1
    35   29   30 2
    36   29   34 1
    37   30   31 1
    38   30   35 1
    39   33   34 1
    40   35   36 1
    41    1   37 1
    42    6   38 1
    43    8   39 1
    44    8   40 1
    45   10   41 1
    46   11   42 1
    47   12   43 1
    48   13   44 1
    49   14   45 1
    50   16   46 1
    51   17   47 1
    52   20   48 1
    53   24   49 1
    54   25   50 1
    55   28   51 1
    56   31   52 1
    57   33   53 1
    58   33   54 1
    59   33   55 1
    60   36   56 1
    61   36   57 1
    62   36   58 1
@<TRIPOS>PROPERTY_DATA
  Total_Score	| 11.5827
  Crash		| -1.1863
  Polar		| 2.0520
  FragIndex	| 1
  FragRMSD	| 0.430

