@<TRIPOS>MOLECULE
BindingDB_24755
 89 94 0 0 0
SMALL
NO_CHARGES


@<TRIPOS>ATOM
1    C        64.6661   14.8097  112.0309  C     
2    C        63.9388   15.5394  112.9169  C     
3    C        63.7396   16.8775  112.5941  C     
4    C        65.0568   16.6783  110.6433  C     
5    N        65.1853   15.3594  110.9344  N     
6    N        64.3214   17.4624  111.5171  N     
7    C        64.1271   18.8964  111.3234  C     
8    O        62.9264   17.5199  113.2673  O     
9    C        65.6698   17.1861  109.3769  C     
10   C        66.5854   16.3043  108.5975  C     
11   C        67.6543   15.6200  109.2385  C     
12   C        66.4865   16.2099  107.1875  C     
13   C        67.4261   15.4747  106.4402  C     
14   C        68.4653   14.7810  107.1000  C     
15   C        68.5835   14.8679  108.4965  C     
16   C        63.5020   14.9679  114.1470  C     
17   C        63.3772   15.7640  115.3179  C     
18   C        62.9653   15.2161  116.5445  C     
19   C        62.7194   13.8333  116.6636  C     
20   C        62.7758   13.0327  115.5012  C     
21   C        63.1846   13.5843  114.2698  C     
22   F        62.4880   11.7672  115.5783  F     
23   O        62.3006   13.3095  117.8675  O     
24   C        63.1957   12.9954  118.8595  C     
25   C        65.3738   12.8654  119.8186  C     
26   C        64.5447   13.2065  118.7853  C     
27   C        63.5697   12.0533  121.0738  C     
28   C        62.6600   12.4280  120.0451  C     
29   C        61.2801   12.2056  120.2564  C     
30   C        60.8247   11.5809  121.4384  C     
31   C        61.7342   11.1913  122.4471  C     
32   C        63.1098   11.4302  122.2495  C     
33   N        64.8949   12.3114  120.9179  N     
34   C        58.8602   10.4595  120.7551  C     
35   O        59.4808   11.3901  121.6621  O     
36   O        61.2795   10.5032  123.5574  O     
37   C        61.4764   11.2093  124.7988  C     
38   C        60.3254   10.9636  125.8196  C     
39   C        59.0680   10.2115  125.2933  C     
40   C        56.9701   10.2014  124.0086  C     
41   C        55.7573   10.9979  123.4594  C     
42   C        56.1020   12.7453  125.1253  C     
43   C        57.3071   11.9723  125.7282  C     
44   N        57.9648   11.0678  124.7217  N     
45   N        55.0871   11.8403  124.5039  N     
46   C        54.2342   11.1243  125.5140  C     
47   C        52.9285   10.5385  124.9300  C     
48   H        64.8743   13.8555  112.2047  H     
49   H        63.0637   19.1013  111.1468  H     
50   H        64.6782   19.3315  110.4881  H     
51   H        64.4419   19.4456  112.2238  H     
52   H        64.8418   17.5020  108.7361  H     
53   H        66.2525   18.0770  109.6151  H     
54   H        67.7768   15.6854  110.2524  H     
55   H        65.7395   16.6914  106.6853  H     
56   H        67.3610   15.4444  105.4206  H     
57   H        69.1437   14.2450  106.5511  H     
58   H        69.3548   14.3846  108.9716  H     
59   H        63.6140   16.7584  115.2870  H     
60   H        62.9069   15.8190  117.3652  H     
61   H        63.2180   12.9755  113.4441  H     
62   H        66.3387   13.0213  119.7491  H     
63   H        64.9504   13.6105  117.9656  H     
64   H        60.5841   12.4878  119.5529  H     
65   H        63.7770   11.1480  122.9714  H     
66   H        58.7436   10.9269  119.7648  H     
67   H        57.8662   10.2043  121.1519  H     
68   H        59.4389    9.5257  120.6539  H     
69   H        62.4140   10.8845  125.2730  H     
70   H        61.5312   12.2830  124.6119  H     
71   H        60.7324   10.3854  126.6691  H     
72   H        60.0368   11.9459  126.2284  H     
73   H        59.4236    9.4872  124.5408  H     
74   H        58.6673    9.6228  126.1323  H     
75   H        56.6003    9.4099  124.6720  H     
76   H        57.4521    9.7015  123.1540  H     
77   H        56.1100   11.6576  122.6584  H     
78   H        55.0452   10.3058  122.9991  H     
79   H        55.6566   13.3643  125.9069  H     
80   H        56.4790   13.4340  124.3629  H     
81   H        58.0351   12.7136  126.0741  H     
82   H        56.9675   11.3825  126.5832  H     
83   H        58.3957   11.6603  124.0030  H     
84   H        54.4441   12.4606  124.0016  H     
85   H        54.7922   10.3246  126.0081  H     
86   H        53.9241   11.8300  126.2994  H     
87   H        52.3673   11.3235  124.4124  H     
88   H        52.3112   10.1400  125.7415  H     
89   H        53.1465    9.7250  124.2319  H     
@<TRIPOS>BOND
     1    1    2 2
     2    1    5 1
     3    2    3 1
     4    2   16 1
     5    3    6 1
     6    3    8 2
     7    4    5 2
     8    4    6 1
     9    4    9 1
    10    6    7 1
    11    9   10 1
    12   10   11 2
    13   10   12 1
    14   11   15 1
    15   12   13 2
    16   13   14 1
    17   14   15 2
    18   16   17 1
    19   16   21 2
    20   17   18 2
    21   18   19 1
    22   19   20 2
    23   19   23 1
    24   20   21 1
    25   20   22 1
    26   23   24 1
    27   24   26 2
    28   24   28 1
    29   25   26 1
    30   25   33 2
    31   27   28 1
    32   27   32 2
    33   27   33 1
    34   28   29 2
    35   29   30 1
    36   30   31 2
    37   30   35 1
    38   31   32 1
    39   31   36 1
    40   34   35 1
    41   36   37 1
    42   37   38 1
    43   38   39 1
    44   39   44 1
    45   40   41 1
    46   40   44 1
    47   41   45 1
    48   42   43 1
    49   42   45 1
    50   43   44 1
    51   45   46 1
    52   46   47 1
    53    1   48 1
    54    7   49 1
    55    7   50 1
    56    7   51 1
    57    9   52 1
    58    9   53 1
    59   11   54 1
    60   12   55 1
    61   13   56 1
    62   14   57 1
    63   15   58 1
    64   17   59 1
    65   18   60 1
    66   21   61 1
    67   25   62 1
    68   26   63 1
    69   29   64 1
    70   32   65 1
    71   34   66 1
    72   34   67 1
    73   34   68 1
    74   37   69 1
    75   37   70 1
    76   38   71 1
    77   38   72 1
    78   39   73 1
    79   39   74 1
    80   40   75 1
    81   40   76 1
    82   41   77 1
    83   41   78 1
    84   42   79 1
    85   42   80 1
    86   43   81 1
    87   43   82 1
    88   44   83 1
    89   45   84 1
    90   46   85 1
    91   46   86 1
    92   47   87 1
    93   47   88 1
    94   47   89 1
@<TRIPOS>PROPERTY_DATA
  Total_Score	| 14.7063
  Crash		| -2.3524
  Polar		| 3.6374
  FragIndex	| 1
  FragRMSD	| 0.158

