@<TRIPOS>MOLECULE
BindingDB_24754
 86 91 0 0 0
SMALL
NO_CHARGES


@<TRIPOS>ATOM
1    C        64.6834   14.8325  112.0653  C     
2    C        63.9503   15.5529  112.9443  C     
3    C        63.7225   16.8827  112.6069  C     
4    C        65.0240   16.6818  110.6455  C     
5    N        65.1839   15.3653  110.9596  N     
6    N        64.2861   17.4665  111.5206  N     
7    C        64.0864   18.8948  111.3117  C     
8    O        62.9016   17.5051  113.2710  O     
9    C        65.6413   17.1853  109.3813  C     
10   C        66.5562   16.2854  108.6151  C     
11   C        66.4532   16.1623  107.2069  C     
12   C        67.6152   15.6115  109.2710  C     
13   C        68.5338   14.8276  108.5473  C     
14   C        68.4188   14.7209  107.1490  C     
15   C        67.3759   15.3810  106.4799  C     
16   C        63.5227   14.9710  114.1686  C     
17   C        63.3861   15.7503  115.3460  C     
18   C        62.9539   15.1880  116.5608  C     
19   C        62.6856   13.8078  116.6520  C     
20   C        62.8025   13.0143  115.4938  C     
21   C        63.2035   13.5917  114.2711  C     
22   F        62.5586   11.7310  115.5570  F     
23   O        62.3388   13.2346  117.8527  O     
24   C        63.2413   12.9887  118.8389  C     
25   C        65.4414   12.8910  119.7379  C     
26   C        64.5857   13.1659  118.7127  C     
27   C        63.6596   12.1797  121.0953  C     
28   C        62.7346   12.4790  120.0570  C     
29   C        61.3653   12.2134  120.2945  C     
30   C        60.9257   11.6081  121.4986  C     
31   C        61.8646   11.3243  122.5294  C     
32   C        63.2248   11.6222  122.3098  C     
33   N        64.9856   12.4088  120.8830  N     
34   C        59.0340   10.3515  120.8142  C     
35   O        59.5946   11.3488  121.6909  O     
36   O        61.6147   10.6989  123.7309  O     
37   C        60.3463   10.7382  124.4062  C     
38   C        60.6053   11.0647  125.9004  C     
39   C        59.3159   11.3851  126.7033  C     
40   C        59.6437    9.9448  128.7421  C     
41   C        59.9363    9.9686  130.2654  C     
42   C        58.8033   12.1495  130.4597  C     
43   C        58.5173   12.1460  128.9383  C     
44   N        59.5316   11.3346  128.1900  N     
45   N        58.9484   10.7823  131.0408  N     
46   C        57.6525   10.0822  131.2934  C     
47   H        64.9215   13.8832  112.2488  H     
48   H        63.0245   19.1113  111.1762  H     
49   H        64.6034   19.3156  110.4504  H     
50   H        64.4479   19.4439  112.1853  H     
51   H        64.8210   17.4999  108.7343  H     
52   H        66.2266   18.0760  109.6228  H     
53   H        65.7151   16.6479  106.6942  H     
54   H        67.7325   15.6934  110.2826  H     
55   H        69.2895   14.3404  109.0397  H     
56   H        69.0945   14.1610  106.6236  H     
57   H        67.2958   15.3131  105.4641  H     
58   H        63.6239   16.7457  115.3385  H     
59   H        62.8786   15.7779  117.3965  H     
60   H        63.2620   12.9923  113.4484  H     
61   H        66.4181   13.0429  119.6441  H     
62   H        64.9836   13.4684  117.8574  H     
63   H        60.6644   12.4482  119.5816  H     
64   H        63.9144   11.4061  123.0376  H     
65   H        58.9031   10.7599  119.8050  H     
66   H        58.0521   10.0628  121.1976  H     
67   H        59.6591    9.4518  120.7633  H     
68   H        59.6744   11.4965  124.0020  H     
69   H        59.8760    9.7590  124.3168  H     
70   H        61.1112   10.2148  126.3642  H     
71   H        61.2798   11.9292  125.9549  H     
72   H        58.9994   12.3899  126.4093  H     
73   H        58.5183   10.6935  126.4117  H     
74   H        60.4665    9.4124  128.2663  H     
75   H        58.7251    9.3803  128.5531  H     
76   H        59.9784    8.9420  130.6452  H     
77   H        60.9315   10.4018  130.4195  H     
78   H        59.7399   12.6934  130.6343  H     
79   H        58.0172   12.7066  130.9810  H     
80   H        57.5096   11.7555  128.7573  H     
81   H        58.5401   13.1822  128.5923  H     
82   H        60.4377   11.7689  128.3637  H     
83   H        59.3615   10.9089  131.9659  H     
84   H        57.0233   10.6875  131.9463  H     
85   H        57.8279    9.1335  131.8023  H     
86   H        57.1041    9.8841  130.3730  H     
@<TRIPOS>BOND
     1    1    2 2
     2    1    5 1
     3    2    3 1
     4    2   16 1
     5    3    6 1
     6    3    8 2
     7    4    5 2
     8    4    6 1
     9    4    9 1
    10    6    7 1
    11    9   10 1
    12   10   11 2
    13   10   12 1
    14   11   15 1
    15   12   13 2
    16   13   14 1
    17   14   15 2
    18   16   17 1
    19   16   21 2
    20   17   18 2
    21   18   19 1
    22   19   20 2
    23   19   23 1
    24   20   21 1
    25   20   22 1
    26   23   24 1
    27   24   26 2
    28   24   28 1
    29   25   26 1
    30   25   33 2
    31   27   28 1
    32   27   32 2
    33   27   33 1
    34   28   29 2
    35   29   30 1
    36   30   31 2
    37   30   35 1
    38   31   32 1
    39   31   36 1
    40   34   35 1
    41   36   37 1
    42   37   38 1
    43   38   39 1
    44   39   44 1
    45   40   41 1
    46   40   44 1
    47   41   45 1
    48   42   43 1
    49   42   45 1
    50   43   44 1
    51   45   46 1
    52    1   47 1
    53    7   48 1
    54    7   49 1
    55    7   50 1
    56    9   51 1
    57    9   52 1
    58   11   53 1
    59   12   54 1
    60   13   55 1
    61   14   56 1
    62   15   57 1
    63   17   58 1
    64   18   59 1
    65   21   60 1
    66   25   61 1
    67   26   62 1
    68   29   63 1
    69   32   64 1
    70   34   65 1
    71   34   66 1
    72   34   67 1
    73   37   68 1
    74   37   69 1
    75   38   70 1
    76   38   71 1
    77   39   72 1
    78   39   73 1
    79   40   74 1
    80   40   75 1
    81   41   76 1
    82   41   77 1
    83   42   78 1
    84   42   79 1
    85   43   80 1
    86   43   81 1
    87   44   82 1
    88   45   83 1
    89   46   84 1
    90   46   85 1
    91   46   86 1
@<TRIPOS>PROPERTY_DATA
  Total_Score	| 14.4166
  Crash		| -1.6934
  Polar		| 3.7335
  FragIndex	| 1
  FragRMSD	| 0.357

