@<TRIPOS>MOLECULE
BindingDB_24772
 79 84 0 0 0
SMALL
NO_CHARGES


@<TRIPOS>ATOM
1    C        64.8965   14.8154  112.3074  C     
2    C        64.0606   15.5163  113.1052  C     
3    C        63.8333   16.8422  112.7435  C     
4    C        65.2746   16.6557  110.8856  C     
5    N        65.4615   15.3605  111.2417  N     
6    N        64.4444   17.4225  111.6788  N     
7    O        62.9870   17.4786  113.3651  O     
8    C        66.7168   16.4303  108.9007  C     
9    C        66.5952   16.6433  107.5100  C     
10   C        67.7602   15.5895  109.3624  C     
11   C        68.6270   14.9485  108.4556  C     
12   C        68.4716   15.1480  107.0728  C     
13   C        67.4581   15.9993  106.6019  C     
14   C        63.5261   14.8801  114.2484  C     
15   C        62.8671   12.7932  115.2629  C     
16   C        62.6861   13.4046  116.5176  C     
17   C        62.8696   14.8004  116.6068  C     
18   C        63.2953   15.5368  115.4826  C     
19   O        62.3592   12.6129  117.5952  O     
20   C        63.1298   12.6027  118.7173  C     
21   C        65.2225   12.6662  119.8279  C     
22   C        64.4830   12.7065  118.6841  C     
23   C        63.3008   12.2587  121.1183  C     
24   C        62.4921   12.3503  119.9543  C     
25   C        61.0989   12.1584  120.0940  C     
26   C        60.5288   11.8508  121.3488  C     
27   C        61.3428   11.7196  122.4959  C     
28   C        62.7307   11.9642  122.3720  C     
29   N        64.6432   12.4332  120.9954  N     
30   C        58.3721   12.7955  121.2374  C     
31   O        59.1810   11.6234  121.4449  O     
32   O        60.6984   11.3852  123.6748  O     
33   C        64.2190   18.8345  111.4056  C     
34   N        65.8510   17.0938  109.7296  N     
35   F        69.2701   14.5520  106.2286  F     
36   N        63.2833   13.5360  114.2089  N     
37   C        61.4575   10.8829  124.7970  C     
38   C        60.5372   10.1871  125.8336  C     
39   C        59.4237   11.0722  126.4754  C     
40   C        58.4825   12.1863  128.4957  C     
41   C        58.6106   12.3527  130.0317  C     
42   C        59.5062   10.1289  130.2373  C     
43   C        59.3809    9.9017  128.7065  C     
44   N        59.4894   11.2065  127.9696  N     
45   O        58.5184   11.0777  130.6950  O     
46   H        65.1398   13.8719  112.5012  H     
47   H        65.8588   17.2543  107.1462  H     
48   H        67.9107   15.4527  110.3628  H     
49   H        69.3710   14.3423  108.8102  H     
50   H        67.3418   16.1508  105.5977  H     
51   H        62.7255   11.7880  115.1477  H     
52   H        62.7351   15.2768  117.5017  H     
53   H        63.4829   16.5345  115.5941  H     
54   H        66.2064   12.7860  119.7928  H     
55   H        64.9582   12.8026  117.8172  H     
56   H        60.4869   12.2303  119.2809  H     
57   H        63.3431   11.9097  123.1913  H     
58   H        58.6616   13.6040  121.9100  H     
59   H        57.3356   12.5365  121.4377  H     
60   H        58.4432   13.1426  120.2021  H     
61   H        63.1679   19.0023  111.1582  H     
62   H        64.8149   19.2418  110.5911  H     
63   H        64.4645   19.4278  112.2907  H     
64   H        65.5439   17.9511  109.4004  H     
65   H        62.1877   10.1377  124.4580  H     
66   H        61.9955   11.7047  125.2820  H     
67   H        60.0649    9.3341  125.3367  H     
68   H        61.1884    9.7944  126.6143  H     
69   H        59.4744   12.0653  126.0261  H     
70   H        58.4449   10.6605  126.2061  H     
71   H        57.4668   11.8488  128.2634  H     
72   H        58.6271   13.1676  128.0348  H     
73   H        59.5610   12.8360  130.2787  H     
74   H        57.8025   12.9879  130.3979  H     
75   H        59.3399    9.1825  130.7600  H     
76   H        60.5152   10.4780  130.4917  H     
77   H        60.1737    9.2141  128.4087  H     
78   H        58.4174    9.4237  128.4996  H     
79   H        60.4104   11.5990  128.1842  H     
@<TRIPOS>BOND
     1    1    2 2
     2    1    5 1
     3    2    3 1
     4    2   14 1
     5    3    6 1
     6    3    7 2
     7    4    5 2
     8    4    6 1
     9    4   34 1
    10    6   33 1
    11    8    9 2
    12    8   10 1
    13    8   34 1
    14    9   13 1
    15   10   11 2
    16   11   12 1
    17   12   13 2
    18   12   35 1
    19   14   18 2
    20   14   36 1
    21   15   16 1
    22   15   36 2
    23   16   17 2
    24   16   19 1
    25   17   18 1
    26   19   20 1
    27   20   22 2
    28   20   24 1
    29   21   22 1
    30   21   29 2
    31   23   24 1
    32   23   28 2
    33   23   29 1
    34   24   25 2
    35   25   26 1
    36   26   27 2
    37   26   31 1
    38   27   28 1
    39   27   32 1
    40   30   31 1
    41   32   37 1
    42   37   38 1
    43   38   39 1
    44   39   44 1
    45   40   41 1
    46   40   44 1
    47   41   45 1
    48   42   43 1
    49   42   45 1
    50   43   44 1
    51    1   46 1
    52    9   47 1
    53   10   48 1
    54   11   49 1
    55   13   50 1
    56   15   51 1
    57   17   52 1
    58   18   53 1
    59   21   54 1
    60   22   55 1
    61   25   56 1
    62   28   57 1
    63   30   58 1
    64   30   59 1
    65   30   60 1
    66   33   61 1
    67   33   62 1
    68   33   63 1
    69   34   64 1
    70   37   65 1
    71   37   66 1
    72   38   67 1
    73   38   68 1
    74   39   69 1
    75   39   70 1
    76   40   71 1
    77   40   72 1
    78   41   73 1
    79   41   74 1
    80   42   75 1
    81   42   76 1
    82   43   77 1
    83   43   78 1
    84   44   79 1
@<TRIPOS>PROPERTY_DATA
  Total_Score	| 15.4963
  Crash		| -1.5990
  Polar		| 3.8932
  FragIndex	| 1
  FragRMSD	| 0.441

