@<TRIPOS>MOLECULE
BindingDB_24766
 60 64 0 0 0
SMALL
NO_CHARGES


@<TRIPOS>ATOM
1    C        64.9087   14.8353  112.3739  C     
2    C        64.0217   15.5512  113.1025  C     
3    C        63.7571   16.8383  112.6522  C     
4    C        65.2712   16.6116  110.8584  C     
5    N        65.4818   15.3373  111.2838  N     
6    N        64.4019   17.3936  111.5931  N     
7    O        62.8773   17.4773  113.2224  O     
8    C        66.7518   16.3841  108.8892  C     
9    C        67.8451   15.6041  109.3424  C     
10   C        66.5879   16.5611  107.4957  C     
11   C        67.4561   15.9406  106.5803  C     
12   C        68.5187   15.1459  107.0441  C     
13   C        68.7168   14.9841  108.4275  C     
14   C        63.4810   15.0134  114.2983  C     
15   C        63.2612   15.8356  115.4339  C     
16   C        62.7658   15.3105  116.6420  C     
17   C        62.4994   13.9333  116.7664  C     
18   C        62.6827   13.0980  115.6431  C     
19   C        63.1664   13.6322  114.4271  C     
20   F        62.4239   11.8194  115.7325  F     
21   O        62.0861   13.4468  117.9864  O     
22   C        62.9824   13.0257  118.9237  C     
23   C        65.1701   12.8141  119.8241  C     
24   C        64.3215   13.2535  118.8508  C     
25   C        63.3819   11.9582  121.0793  C     
26   C        62.4657   12.3798  120.0735  C     
27   C        61.0896   12.1337  120.2980  C     
28   C        60.6418   11.4835  121.4685  C     
29   C        61.5622   11.0941  122.4670  C     
30   C        62.9374   11.3128  122.2505  C     
31   N        64.7043   12.2029  120.9007  N     
32   C        58.6045   11.9761  122.5373  C     
33   O        59.3124   11.1761  121.5772  O     
34   O        61.1026   10.4520  123.5902  O     
35   C        64.1643   18.7951  111.2872  C     
36   C        61.6230   10.9370  124.8431  C     
37   N        65.8655   17.0350  109.7070  N     
38   H        65.1937   13.9276  112.6573  H     
39   H        68.0362   15.5032  110.3411  H     
40   H        65.8200   17.1356  107.1363  H     
41   H        67.3183   16.0734  105.5773  H     
42   H        69.1562   14.7021  106.3791  H     
43   H        69.5040   14.4285  108.7679  H     
44   H        63.4905   16.8314  115.4013  H     
45   H        62.6365   15.9297  117.4458  H     
46   H        63.2979   12.9959  113.6319  H     
47   H        66.1467   12.9548  119.7394  H     
48   H        64.7114   13.7524  118.0853  H     
49   H        60.3923   12.4291  119.6119  H     
50   H        63.6149   11.0036  122.9499  H     
51   H        58.9229   11.7262  123.5504  H     
52   H        57.5424   11.7457  122.4479  H     
53   H        58.7429   13.0478  122.3612  H     
54   H        63.1158   18.9419  111.0187  H     
55   H        64.7737   19.1997  110.4801  H     
56   H        64.3785   19.3999  112.1731  H     
57   H        62.6900   10.7192  124.9304  H     
58   H        61.1063   10.4215  125.6544  H     
59   H        61.4607   12.0135  124.9558  H     
60   H        65.5529   17.8849  109.3634  H     
@<TRIPOS>BOND
     1    1    2 2
     2    1    5 1
     3    2    3 1
     4    2   14 1
     5    3    6 1
     6    3    7 2
     7    4    5 2
     8    4    6 1
     9    4   37 1
    10    6   35 1
    11    8    9 2
    12    8   10 1
    13    8   37 1
    14    9   13 1
    15   10   11 2
    16   11   12 1
    17   12   13 2
    18   14   15 1
    19   14   19 2
    20   15   16 2
    21   16   17 1
    22   17   18 2
    23   17   21 1
    24   18   19 1
    25   18   20 1
    26   21   22 1
    27   22   24 2
    28   22   26 1
    29   23   24 1
    30   23   31 2
    31   25   26 1
    32   25   30 2
    33   25   31 1
    34   26   27 2
    35   27   28 1
    36   28   29 2
    37   28   33 1
    38   29   30 1
    39   29   34 1
    40   32   33 1
    41   34   36 1
    42    1   38 1
    43    9   39 1
    44   10   40 1
    45   11   41 1
    46   12   42 1
    47   13   43 1
    48   15   44 1
    49   16   45 1
    50   19   46 1
    51   23   47 1
    52   24   48 1
    53   27   49 1
    54   30   50 1
    55   32   51 1
    56   32   52 1
    57   32   53 1
    58   35   54 1
    59   35   55 1
    60   35   56 1
    61   36   57 1
    62   36   58 1
    63   36   59 1
    64   37   60 1
@<TRIPOS>PROPERTY_DATA
  Total_Score	| 13.1722
  Crash		| -1.3476
  Polar		| 1.8824
  FragIndex	| 1
  FragRMSD	| 0.147

