@<TRIPOS>MOLECULE
BindingDB_24769
 80 85 0 0 0
SMALL
NO_CHARGES


@<TRIPOS>ATOM
1    C        64.9593   14.7377  112.3173  C     
2    C        64.0739   15.4180  113.0798  C     
3    C        63.7272   16.6947  112.6393  C     
4    C        65.1782   16.5121  110.7840  C     
5    N        65.4780   15.2619  111.2160  N     
6    N        64.2739   17.2470  111.5252  N     
7    O        62.8451   17.2939  113.2417  O     
8    C        66.6148   16.3749  108.7730  C     
9    C        67.7942   15.7077  109.1867  C     
10   C        66.3544   16.4802  107.3880  C     
11   C        67.2170   15.8930  106.4436  C     
12   C        68.3674   15.2064  106.8709  C     
13   C        68.6575   15.1193  108.2444  C     
14   C        63.6066   14.8405  114.2865  C     
15   C        63.3377   13.4505  114.3938  C     
16   C        62.9294   12.8711  115.6109  C     
17   C        62.7805   13.6625  116.7634  C     
18   C        63.0037   15.0482  116.6709  C     
19   C        63.4202   15.6225  115.4541  C     
20   F        62.8411   15.8061  117.7181  F     
21   O        62.3424   13.0791  117.9265  O     
22   C        63.1350   12.8135  118.9998  C     
23   C        65.2210   12.6121  120.1165  C     
24   C        64.4891   12.9107  119.0030  C     
25   C        63.2804   12.0154  121.3035  C     
26   C        62.4852   12.3615  120.1729  C     
27   C        61.0826   12.2056  120.2740  C     
28   C        60.4886   11.6895  121.4440  C     
29   C        61.2930   11.2962  122.5352  C     
30   C        62.6915   11.4765  122.4676  C     
31   N        64.6275   12.1761  121.2172  N     
32   C        58.3641   12.6693  121.3054  C     
33   O        59.1359   11.4705  121.4780  O     
34   O        60.7058   10.5470  123.5191  O     
35   C        63.9342   18.5873  111.0784  C     
36   N        65.7237   16.9736  109.6232  N     
37   F        69.1717   14.6687  105.9936  F     
38   C        60.9418   10.8414  124.9070  C     
39   C        59.6145   10.5788  125.6502  C     
40   C        59.7360   10.2339  127.1603  C     
41   C        58.4047   12.1854  128.1259  C     
42   C        57.9944   12.8069  129.4909  C     
43   C        59.9930   11.9788  130.5843  C     
44   C        59.9299   10.8169  129.5545  C     
45   N        59.6501   11.3388  128.1763  N     
46   O        59.1769   13.1203  130.2478  O     
47   H        65.2809   13.8336  112.5704  H     
48   H        68.0505   15.6649  110.1726  H     
49   H        65.5204   16.9721  107.0549  H     
50   H        67.0069   15.9668  105.4466  H     
51   H        69.5044   14.6393  108.5619  H     
52   H        63.4287   12.8417  113.5783  H     
53   H        62.7407   11.8669  115.6552  H     
54   H        63.6071   16.6266  115.4342  H     
55   H        66.2088   12.7050  120.1062  H     
56   H        64.9766   13.1988  118.1876  H     
57   H        60.4754   12.4387  119.4846  H     
58   H        63.2794   11.1660  123.2441  H     
59   H        58.6325   13.4339  122.0370  H     
60   H        57.3124   12.4253  121.4483  H     
61   H        58.4862   13.0760  120.2969  H     
62   H        63.4756   18.5432  110.0888  H     
63   H        64.8410   19.1946  111.0169  H     
64   H        63.2411   19.1214  111.7316  H     
65   H        65.3680   17.8190  109.3093  H     
66   H        61.7347   10.1945  125.2869  H     
67   H        61.2130   11.8788  125.0742  H     
68   H        58.9825   11.4632  125.5420  H     
69   H        59.0966    9.7501  125.1559  H     
70   H        58.9604    9.4919  127.3719  H     
71   H        60.7012    9.7372  127.2939  H     
72   H        58.6216   13.0117  127.4298  H     
73   H        57.5484   11.6234  127.7429  H     
74   H        57.4152   13.7186  129.3290  H     
75   H        57.3630   12.1112  130.0535  H     
76   H        59.6960   11.6140  131.5687  H     
77   H        61.0225   12.3333  130.6624  H     
78   H        60.8718   10.2639  129.5864  H     
79   H        59.1300   10.1313  129.8520  H     
80   H        60.4232   11.9773  127.9646  H     
@<TRIPOS>BOND
     1    1    2 2
     2    1    5 1
     3    2    3 1
     4    2   14 1
     5    3    6 1
     6    3    7 2
     7    4    5 2
     8    4    6 1
     9    4   36 1
    10    6   35 1
    11    8    9 2
    12    8   10 1
    13    8   36 1
    14    9   13 1
    15   10   11 2
    16   11   12 1
    17   12   13 2
    18   12   37 1
    19   14   15 1
    20   14   19 2
    21   15   16 2
    22   16   17 1
    23   17   18 2
    24   17   21 1
    25   18   19 1
    26   18   20 1
    27   21   22 1
    28   22   24 2
    29   22   26 1
    30   23   24 1
    31   23   31 2
    32   25   26 1
    33   25   30 2
    34   25   31 1
    35   26   27 2
    36   27   28 1
    37   28   29 2
    38   28   33 1
    39   29   30 1
    40   29   34 1
    41   32   33 1
    42   34   38 1
    43   38   39 1
    44   39   40 1
    45   40   45 1
    46   41   42 1
    47   41   45 1
    48   42   46 1
    49   43   44 1
    50   43   46 1
    51   44   45 1
    52    1   47 1
    53    9   48 1
    54   10   49 1
    55   11   50 1
    56   13   51 1
    57   15   52 1
    58   16   53 1
    59   19   54 1
    60   23   55 1
    61   24   56 1
    62   27   57 1
    63   30   58 1
    64   32   59 1
    65   32   60 1
    66   32   61 1
    67   35   62 1
    68   35   63 1
    69   35   64 1
    70   36   65 1
    71   38   66 1
    72   38   67 1
    73   39   68 1
    74   39   69 1
    75   40   70 1
    76   40   71 1
    77   41   72 1
    78   41   73 1
    79   42   74 1
    80   42   75 1
    81   43   76 1
    82   43   77 1
    83   44   78 1
    84   44   79 1
    85   45   80 1
@<TRIPOS>PROPERTY_DATA
  Total_Score	| 15.5046
  Crash		| -1.3580
  Polar		| 4.5589
  FragIndex	| 1
  FragRMSD	| 1.180

