@<TRIPOS>MOLECULE
BindingDB_24771
 63 67 0 0 0
SMALL
NO_CHARGES


@<TRIPOS>ATOM
1    C        64.8916   14.9064  112.4441  C     
2    C        63.9678   15.5356  113.1989  C     
3    C        63.6400   16.8304  112.8131  C     
4    C        65.1432   16.7602  110.9976  C     
5    N        65.4192   15.4868  111.3701  N     
6    N        64.2471   17.4681  111.7783  N     
7    O        62.6972   17.3873  113.3718  O     
8    C        66.6432   16.6145  109.0568  C     
9    C        66.5653   16.8148  107.6673  C     
10   C        67.6965   15.8044  109.5599  C     
11   C        68.5886   15.1617  108.6845  C     
12   C        68.4741   15.3177  107.2814  C     
13   C        67.4535   16.1684  106.7916  C     
14   C        63.4476   14.8820  114.3451  C     
15   C        63.2506   15.5747  115.5681  C     
16   C        62.8300   14.9039  116.7355  C     
17   C        62.6223   13.5134  116.7146  C     
18   C        62.7530   12.8133  115.5035  C     
19   C        63.1532   13.4936  114.3338  C     
20   F        62.5426   11.5254  115.4612  F     
21   O        62.2752   12.8148  117.8420  O     
22   C        63.1071   12.6910  118.9091  C     
23   C        65.2272   12.6995  119.9736  C     
24   C        64.4542   12.8303  118.8550  C     
25   C        63.3516   12.1545  121.2620  C     
26   C        62.5146   12.3093  120.1305  C     
27   C        61.1287   12.0580  120.2761  C     
28   C        60.5795   11.6807  121.5209  C     
29   C        61.4191   11.5089  122.6459  C     
30   C        62.7978   11.7630  122.5187  C     
31   N        64.6863   12.3649  121.1329  N     
32   C        58.3883   12.5499  121.4775  C     
33   O        59.2424   11.4021  121.6406  O     
34   O        60.7753   11.1147  123.8093  O     
35   C        63.9452   18.8678  111.5205  C     
36   N        65.7187   17.2304  109.8595  N     
37   C        61.5361   10.8008  124.9722  C     
38   C        69.3989   14.5748  106.3921  C     
39   F        69.2310   14.8158  105.0515  F     
40   F        70.7095   14.8622  106.6905  F     
41   F        69.2020   13.2319  106.5777  F     
42   H        65.2445   14.0119  112.6671  H     
43   H        65.8284   17.4121  107.2776  H     
44   H        67.8311   15.6848  110.5602  H     
45   H        69.3237   14.5714  109.0830  H     
46   H        67.3375   16.3058  105.7867  H     
47   H        63.4436   16.5706  115.6472  H     
48   H        62.7167   15.4279  117.6058  H     
49   H        63.2372   12.9516  113.4740  H     
50   H        66.2077   12.8478  119.9228  H     
51   H        64.9060   13.0293  117.9929  H     
52   H        60.5057   12.1461  119.4758  H     
53   H        63.4284   11.6658  123.3064  H     
54   H        58.6615   13.3606  122.1608  H     
55   H        57.3628   12.2448  121.6897  H     
56   H        58.4239   12.9196  120.4480  H     
57   H        62.8873   18.9801  111.2783  H     
58   H        64.5200   19.3119  110.7093  H     
59   H        64.1588   19.4593  112.4183  H     
60   H        65.3766   18.0768  109.5170  H     
61   H        62.2217    9.9795  124.7961  H     
62   H        60.8388   10.4807  125.7809  H     
63   H        62.0668   11.6633  125.3433  H     
@<TRIPOS>BOND
     1    1    2 2
     2    1    5 1
     3    2    3 1
     4    2   14 1
     5    3    6 1
     6    3    7 2
     7    4    5 2
     8    4    6 1
     9    4   36 1
    10    6   35 1
    11    8    9 2
    12    8   10 1
    13    8   36 1
    14    9   13 1
    15   10   11 2
    16   11   12 1
    17   12   13 2
    18   12   38 1
    19   14   15 1
    20   14   19 2
    21   15   16 2
    22   16   17 1
    23   17   18 2
    24   17   21 1
    25   18   19 1
    26   18   20 1
    27   21   22 1
    28   22   24 2
    29   22   26 1
    30   23   24 1
    31   23   31 2
    32   25   26 1
    33   25   30 2
    34   25   31 1
    35   26   27 2
    36   27   28 1
    37   28   29 2
    38   28   33 1
    39   29   30 1
    40   29   34 1
    41   32   33 1
    42   34   37 1
    43   38   39 1
    44   38   40 1
    45   38   41 1
    46    1   42 1
    47    9   43 1
    48   10   44 1
    49   11   45 1
    50   13   46 1
    51   15   47 1
    52   16   48 1
    53   19   49 1
    54   23   50 1
    55   24   51 1
    56   27   52 1
    57   30   53 1
    58   32   54 1
    59   32   55 1
    60   32   56 1
    61   35   57 1
    62   35   58 1
    63   35   59 1
    64   36   60 1
    65   37   61 1
    66   37   62 1
    67   37   63 1
@<TRIPOS>PROPERTY_DATA
  Total_Score	| 11.3522
  Crash		| -4.1714
  Polar		| 2.1125
  FragIndex	| 1
  FragRMSD	| 0.531

