@<TRIPOS>MOLECULE
BindingDB_24770
 60 64 0 0 0
SMALL
NO_CHARGES


@<TRIPOS>ATOM
1    C        64.9578   14.8286  112.3474  C     
2    C        64.0604   15.5191  113.0892  C     
3    C        63.8041   16.8244  112.6834  C     
4    C        65.3089   16.6408  110.8792  C     
5    N        65.5340   15.3582  111.2727  N     
6    N        64.4559   17.4057  111.6459  N     
7    O        62.9031   17.4438  113.2417  O     
8    C        66.6947   16.3886  108.8728  C     
9    C        66.4075   16.3659  107.4867  C     
10   C        67.8778   15.7662  109.3287  C     
11   C        68.7469   15.1219  108.4295  C     
12   C        68.4328   15.0775  107.0571  C     
13   C        67.2594   15.6978  106.5899  C     
14   C        63.5066   14.9214  114.2511  C     
15   C        63.3283   15.6619  115.4481  C     
16   C        62.8691   15.0458  116.6323  C     
17   C        62.6028   13.6638  116.6512  C     
18   C        62.7078   12.9230  115.4605  C     
19   C        63.1531   13.5485  114.2801  C     
20   F        62.4242   11.6489  115.4447  F     
21   O        62.2165   13.0216  117.8021  O     
22   C        63.0505   12.8243  118.8619  C     
23   C        65.1817   12.6900  119.9010  C     
24   C        64.4042   12.9014  118.7954  C     
25   C        63.2954   12.2131  121.2013  C     
26   C        62.4571   12.4338  120.0799  C     
27   C        61.0720   12.2096  120.2293  C     
28   C        60.5326   11.7842  121.4620  C     
29   C        61.3744   11.5699  122.5809  C     
30   C        62.7565   11.8052  122.4474  C     
31   N        64.6358   12.3594  121.0611  N     
32   C        58.3449   12.6744  121.5348  C     
33   O        59.1892   11.5056  121.5588  O     
34   O        60.7476   11.1614  123.7463  O     
35   C        64.2647   18.8247  111.3871  C     
36   N        65.8476   17.0648  109.7038  N     
37   C        61.4984   10.7567  124.8948  C     
38   F        66.9564   15.6389  105.3218  F     
39   H        65.2391   13.9058  112.5891  H     
40   H        65.5617   16.8180  107.1354  H     
41   H        68.1266   15.8043  110.3198  H     
42   H        69.6061   14.6823  108.7700  H     
43   H        69.0610   14.5973  106.4049  H     
44   H        63.5608   16.6504  115.4880  H     
45   H        62.7726   15.6010  117.4875  H     
46   H        63.2182   12.9811  113.4307  H     
47   H        66.1684   12.7673  119.8462  H     
48   H        64.8614   13.1141  117.9378  H     
49   H        60.4376   12.3393  119.4397  H     
50   H        63.4019   11.6700  123.2233  H     
51   H        58.6882   13.4360  122.2433  H     
52   H        57.3346   12.3742  121.8225  H     
53   H        58.2968   13.1092  120.5298  H     
54   H        63.2317   19.0182  111.0936  H     
55   H        64.9110   19.2363  110.6137  H     
56   H        64.4815   19.3921  112.2954  H     
57   H        65.5003   17.9001  109.3510  H     
58   H        62.1614    9.9244  124.6728  H     
59   H        60.7958   10.4239  125.6814  H     
60   H        62.0582   11.5856  125.3142  H     
@<TRIPOS>BOND
     1    1    2 2
     2    1    5 1
     3    2    3 1
     4    2   14 1
     5    3    6 1
     6    3    7 2
     7    4    5 2
     8    4    6 1
     9    4   36 1
    10    6   35 1
    11    8    9 2
    12    8   10 1
    13    8   36 1
    14    9   13 1
    15   10   11 2
    16   11   12 1
    17   12   13 2
    18   13   38 1
    19   14   15 1
    20   14   19 2
    21   15   16 2
    22   16   17 1
    23   17   18 2
    24   17   21 1
    25   18   19 1
    26   18   20 1
    27   21   22 1
    28   22   24 2
    29   22   26 1
    30   23   24 1
    31   23   31 2
    32   25   26 1
    33   25   30 2
    34   25   31 1
    35   26   27 2
    36   27   28 1
    37   28   29 2
    38   28   33 1
    39   29   30 1
    40   29   34 1
    41   32   33 1
    42   34   37 1
    43    1   39 1
    44    9   40 1
    45   10   41 1
    46   11   42 1
    47   12   43 1
    48   15   44 1
    49   16   45 1
    50   19   46 1
    51   23   47 1
    52   24   48 1
    53   27   49 1
    54   30   50 1
    55   32   51 1
    56   32   52 1
    57   32   53 1
    58   35   54 1
    59   35   55 1
    60   35   56 1
    61   36   57 1
    62   37   58 1
    63   37   59 1
    64   37   60 1
@<TRIPOS>PROPERTY_DATA
  Total_Score	| 13.1739
  Crash		| -1.4028
  Polar		| 2.1574
  FragIndex	| 1
  FragRMSD	| 0.262

