@<TRIPOS>MOLECULE
BindingDB_24752
 80 85 0 0 0
SMALL
NO_CHARGES


@<TRIPOS>ATOM
1    C        64.6796   14.8245  111.8604  C     
2    C        63.9743   15.5436  112.7705  C     
3    C        63.7219   16.8754  112.4483  C     
4    C        64.9767   16.7024  110.4531  C     
5    N        65.1692   15.3875  110.7398  N     
6    N        64.2430   17.4714  111.3491  N     
7    C        63.9601   18.8854  111.1196  C     
8    O        62.9268   17.5031  113.1573  O     
9    C        65.5480   17.2204  109.1667  C     
10   C        66.4538   16.3563  108.3615  C     
11   C        67.5945   15.7511  108.9566  C     
12   C        66.2931   16.2366  106.9580  C     
13   C        67.2239   15.5301  106.1765  C     
14   C        68.3289   14.9148  106.7902  C     
15   C        68.5244   15.0375  108.1692  C     
16   C        63.5880   14.9594  114.0064  C     
17   C        63.2095   13.5957  114.1206  C     
18   C        62.8020   13.0404  115.3591  C     
19   C        62.7829   13.8304  116.5315  C     
20   C        63.1282   15.1962  116.4294  C     
21   C        63.5353   15.7355  115.1899  C     
22   F        63.0569   15.9674  117.4835  F     
23   O        62.3643   13.2758  117.7227  O     
24   C        63.1841   13.0124  118.7755  C     
25   C        65.2960   12.8295  119.8311  C     
26   C        64.5309   13.1549  118.7530  C     
27   C        63.4070   12.1366  121.0333  C     
28   C        62.5729   12.5220  119.9528  C     
29   C        61.1701   12.3604  120.1046  C     
30   C        60.6253   11.7876  121.2708  C     
31   C        61.4728   11.3646  122.3346  C     
32   C        62.8640   11.5647  122.1999  C     
33   N        64.7483   12.3220  120.9277  N     
34   C        58.6932   10.5685  120.6683  C     
35   O        59.2640   11.6905  121.3927  O     
36   O        61.0922   10.7673  123.5057  O     
37   C        59.7088   10.5787  123.8400  C     
38   C        59.5130   10.0361  125.2824  C     
39   C        60.4634   10.7188  126.3172  C     
40   C        60.6079    8.8890  128.0761  C     
41   C        60.0860    8.7026  129.5238  C     
42   C        59.3193    9.9962  129.8536  C     
43   C        59.1519   10.7061  128.4918  C     
44   N        60.3720   10.3117  127.7524  N     
45   H        64.9145   13.8655  112.0311  H     
46   H        62.9339   18.9903  110.7684  H     
47   H        64.6178   19.3597  110.3915  H     
48   H        64.0681   19.4607  112.0364  H     
49   H        64.6901   17.5222  108.5602  H     
50   H        66.1186   18.1198  109.3962  H     
51   H        67.7788   15.8649  109.9479  H     
52   H        65.4943   16.6803  106.4866  H     
53   H        67.1085   15.4844  105.1626  H     
54   H        69.0132   14.4051  106.2171  H     
55   H        69.3411   14.6006  108.6231  H     
56   H        63.2002   12.9942  113.2918  H     
57   H        62.5107   12.0605  115.4050  H     
58   H        63.7922   16.7300  115.1641  H     
59   H        66.2801   12.9496  119.8118  H     
60   H        64.9987   13.4843  117.9395  H     
61   H        60.5388   12.6869  119.3683  H     
62   H        63.4847   11.3080  122.9732  H     
63   H        58.7699   10.6950  119.5835  H     
64   H        57.6273   10.4978  120.9177  H     
65   H        59.1685    9.6241  120.9548  H     
66   H        59.1853   11.5263  123.7746  H     
67   H        59.2687    9.8843  123.1400  H     
68   H        58.4657   10.2230  125.5630  H     
69   H        59.6527    8.9388  125.2870  H     
70   H        61.4879   10.5463  125.9983  H     
71   H        60.2743   11.7968  126.2748  H     
72   H        61.6812    8.6584  128.0148  H     
73   H        60.0611    8.2272  127.3920  H     
74   H        59.4205    7.8318  129.5734  H     
75   H        60.9166    8.5590  130.2274  H     
76   H        58.3426    9.7921  130.3045  H     
77   H        59.9100   10.6258  130.5309  H     
78   H        58.2379   10.3560  127.9907  H     
79   H        59.1079   11.7928  128.6235  H     
80   H        61.1306   10.8204  128.2013  H     
@<TRIPOS>BOND
     1    1    2 2
     2    1    5 1
     3    2    3 1
     4    2   16 1
     5    3    6 1
     6    3    8 2
     7    4    5 2
     8    4    6 1
     9    4    9 1
    10    6    7 1
    11    9   10 1
    12   10   11 2
    13   10   12 1
    14   11   15 1
    15   12   13 2
    16   13   14 1
    17   14   15 2
    18   16   17 1
    19   16   21 2
    20   17   18 2
    21   18   19 1
    22   19   20 2
    23   19   23 1
    24   20   21 1
    25   20   22 1
    26   23   24 1
    27   24   26 2
    28   24   28 1
    29   25   26 1
    30   25   33 2
    31   27   28 1
    32   27   32 2
    33   27   33 1
    34   28   29 2
    35   29   30 1
    36   30   31 2
    37   30   35 1
    38   31   32 1
    39   31   36 1
    40   34   35 1
    41   36   37 1
    42   37   38 1
    43   38   39 1
    44   39   44 1
    45   40   41 1
    46   40   44 1
    47   41   42 1
    48   42   43 1
    49   43   44 1
    50    1   45 1
    51    7   46 1
    52    7   47 1
    53    7   48 1
    54    9   49 1
    55    9   50 1
    56   11   51 1
    57   12   52 1
    58   13   53 1
    59   14   54 1
    60   15   55 1
    61   17   56 1
    62   18   57 1
    63   21   58 1
    64   25   59 1
    65   26   60 1
    66   29   61 1
    67   32   62 1
    68   34   63 1
    69   34   64 1
    70   34   65 1
    71   37   66 1
    72   37   67 1
    73   38   68 1
    74   38   69 1
    75   39   70 1
    76   39   71 1
    77   40   72 1
    78   40   73 1
    79   41   74 1
    80   41   75 1
    81   42   76 1
    82   42   77 1
    83   43   78 1
    84   43   79 1
    85   44   80 1
@<TRIPOS>PROPERTY_DATA
  Total_Score	| 13.7480
  Crash		| -1.3768
  Polar		| 3.6352
  FragIndex	| 1
  FragRMSD	| 0.319

