@<TRIPOS>MOLECULE
BindingDB_24756
 84 89 0 0 0
SMALL
NO_CHARGES


@<TRIPOS>ATOM
1    C        64.4153   14.7112  112.0280  C     
2    C        63.9022   15.4692  113.0250  C     
3    C        63.7813   16.8295  112.7511  C     
4    C        64.7665   16.5811  110.6273  C     
5    N        64.7895   15.2425  110.8674  N     
6    N        64.2975   17.4024  111.6338  N     
7    C        64.3033   18.8520  111.5131  C     
8    O        63.0846   17.5114  113.5047  O     
9    C        65.1288   16.9567  109.2252  C     
10   C        66.3381   16.3224  108.6181  C     
11   C        66.4308   16.2837  107.2053  C     
12   C        67.3840   15.7272  109.3722  C     
13   C        68.4614   15.0829  108.7309  C     
14   C        68.5235   15.0394  107.3284  C     
15   C        67.5109   15.6464  106.5667  C     
16   C        63.5822   14.8912  114.2821  C     
17   C        63.4978   15.6878  115.4523  C     
18   C        63.1452   15.1338  116.6963  C     
19   C        62.9355   13.7499  116.8246  C     
20   C        63.0302   12.9298  115.6852  C     
21   C        63.3397   13.4984  114.4320  C     
22   F        62.8251   11.6469  115.7901  F     
23   O        62.5504   13.2504  118.0400  O     
24   C        63.4459   12.8395  118.9681  C     
25   C        65.6244   12.7767  119.9083  C     
26   C        64.7784   13.0829  118.8814  C     
27   C        63.8328   12.0315  121.2342  C     
28   C        62.9339   12.2843  120.1607  C     
29   C        61.5718   11.9580  120.3454  C     
30   C        61.0975   11.4473  121.5775  C     
31   C        62.0021   11.2369  122.6446  C     
32   C        63.3701   11.5166  122.4614  C     
33   N        65.1519   12.2966  121.0477  N     
34   C        58.8344   12.1395  121.4626  C     
35   O        59.7808   11.0909  121.7345  O     
36   O        61.6198   10.6291  123.8142  O     
37   C        60.7046   11.3140  124.6875  C     
38   C        60.1353   10.3014  125.7072  C     
39   C        58.8170   10.7582  126.3936  C     
40   C        59.2512   10.7851  128.8628  C     
41   C        59.4673   11.6671  130.1190  C     
42   C        58.0059   13.4560  129.0426  C     
43   C        57.8058   12.5160  127.8284  C     
44   N        58.9744   11.5926  127.6330  N     
45   C        58.2893   12.6541  130.3333  C     
46   O        58.5874   13.5574  131.4000  O     
47   H        64.5518   13.7349  112.1371  H     
48   H        63.3230   19.2021  111.1763  H     
49   H        65.0671   19.2295  110.8338  H     
50   H        64.5264   19.3333  112.4715  H     
51   H        64.2699   16.6777  108.6013  H     
52   H        65.2272   18.0351  109.1152  H     
53   H        65.6995   16.7039  106.6202  H     
54   H        67.3634   15.7418  110.3944  H     
55   H        69.1972   14.6412  109.2903  H     
56   H        69.3061   14.5703  106.8678  H     
57   H        67.5527   15.6094  105.5461  H     
58   H        63.6970   16.6902  115.3985  H     
59   H        63.0515   15.7423  117.5099  H     
60   H        63.3644   12.8830  113.6136  H     
61   H        66.5987   12.9350  119.8181  H     
62   H        65.1659   13.5323  118.0832  H     
63   H        60.9013   12.0770  119.5829  H     
64   H        64.0320   11.3283  123.2180  H     
65   H        59.0433   13.0379  122.0479  H     
66   H        57.8459   11.7727  121.7368  H     
67   H        58.8206   12.3965  120.4015  H     
68   H        61.2573   12.0912  125.2190  H     
69   H        59.8882   11.7881  124.1525  H     
70   H        59.9288    9.3607  125.1804  H     
71   H        60.8934   10.0925  126.4679  H     
72   H        58.2477   11.3188  125.6490  H     
73   H        58.2219    9.8703  126.6332  H     
74   H        60.1621   10.1995  128.7264  H     
75   H        58.4298   10.0887  129.0570  H     
76   H        59.5623   11.0283  131.0017  H     
77   H        60.3963   12.2304  130.0084  H     
78   H        58.8420   14.1298  128.8363  H     
79   H        57.1044   14.0646  129.1833  H     
80   H        56.8850   11.9399  127.9689  H     
81   H        57.6719   13.1450  126.9428  H     
82   H        59.7864   12.1967  127.4818  H     
83   H        57.3902   12.0873  130.6096  H     
84   H        58.1889   13.1488  132.1991  H     
@<TRIPOS>BOND
     1    1    2 2
     2    1    5 1
     3    2    3 1
     4    2   16 1
     5    3    6 1
     6    3    8 2
     7    4    5 2
     8    4    6 1
     9    4    9 1
    10    6    7 1
    11    9   10 1
    12   10   11 2
    13   10   12 1
    14   11   15 1
    15   12   13 2
    16   13   14 1
    17   14   15 2
    18   16   17 1
    19   16   21 2
    20   17   18 2
    21   18   19 1
    22   19   20 2
    23   19   23 1
    24   20   21 1
    25   20   22 1
    26   23   24 1
    27   24   26 2
    28   24   28 1
    29   25   26 1
    30   25   33 2
    31   27   28 1
    32   27   32 2
    33   27   33 1
    34   28   29 2
    35   29   30 1
    36   30   31 2
    37   30   35 1
    38   31   32 1
    39   31   36 1
    40   34   35 1
    41   36   37 1
    42   37   38 1
    43   38   39 1
    44   39   44 1
    45   40   41 1
    46   40   44 1
    47   41   45 1
    48   42   43 1
    49   42   45 1
    50   43   44 1
    51   45   46 1
    52    1   47 1
    53    7   48 1
    54    7   49 1
    55    7   50 1
    56    9   51 1
    57    9   52 1
    58   11   53 1
    59   12   54 1
    60   13   55 1
    61   14   56 1
    62   15   57 1
    63   17   58 1
    64   18   59 1
    65   21   60 1
    66   25   61 1
    67   26   62 1
    68   29   63 1
    69   32   64 1
    70   34   65 1
    71   34   66 1
    72   34   67 1
    73   37   68 1
    74   37   69 1
    75   38   70 1
    76   38   71 1
    77   39   72 1
    78   39   73 1
    79   40   74 1
    80   40   75 1
    81   41   76 1
    82   41   77 1
    83   42   78 1
    84   42   79 1
    85   43   80 1
    86   43   81 1
    87   44   82 1
    88   45   83 1
    89   46   84 1
@<TRIPOS>PROPERTY_DATA
  Total_Score	| 14.3730
  Crash		| -2.7902
  Polar		| 3.5750
  FragIndex	| 1
  FragRMSD	| 0.534

