@<TRIPOS>MOLECULE
BindingDB_24750
 61 65 0 0 0
SMALL
NO_CHARGES


@<TRIPOS>ATOM
1    C        64.8634   14.8495  112.1322  C     
2    C        64.1206   15.5419  113.0244  C     
3    C        63.8643   16.8698  112.7017  C     
4    C        65.0194   16.6704  110.6526  C     
5    N        65.2882   15.3892  110.9994  N     
6    N        64.3293   17.4491  111.5672  N     
7    C        64.0619   18.8706  111.3451  C     
8    O        63.1409   17.5223  113.4540  O     
9    C        65.4924   17.1468  109.3179  C     
10   C        66.4738   16.3258  108.5476  C     
11   C        66.3968   16.2277  107.1324  C     
12   C        67.5659   15.7015  109.1968  C     
13   C        68.5308   14.9791  108.4737  C     
14   C        68.4360   14.8850  107.0696  C     
15   C        67.3755   15.5252  106.4035  C     
16   C        63.6452   14.9176  114.2107  C     
17   C        63.3870   13.5221  114.2528  C     
18   C        62.9449   12.8928  115.4296  C     
19   C        62.7515   13.6427  116.6111  C     
20   C        62.9551   15.0323  116.5785  C     
21   C        63.4264   15.6548  115.4054  C     
22   F        62.7390   15.7532  117.6352  F     
23   O        62.3677   12.9861  117.7581  O     
24   C        63.2025   12.8222  118.8146  C     
25   C        65.3361   12.7802  119.8473  C     
26   C        64.5446   13.0127  118.7618  C     
27   C        63.5007   12.0355  121.0987  C     
28   C        62.6321   12.3235  120.0097  C     
29   C        61.2482   12.0646  120.1742  C     
30   C        60.7467   11.5063  121.3725  C     
31   C        61.6283   11.1842  122.4294  C     
32   C        63.0080   11.4495  122.2826  C     
33   N        64.8307   12.2907  120.9650  N     
34   C        58.5263   12.2897  121.3825  C     
35   O        59.4204   11.1625  121.4623  O     
36   C        61.6132   10.9506  124.8058  C     
37   O        61.1322   10.5140  123.5204  O     
38   H        65.1345   13.9145  112.3194  H     
39   H        62.9853   19.0540  111.3066  H     
40   H        64.4824   19.2833  110.4307  H     
41   H        64.4848   19.4525  112.1758  H     
42   H        64.6024   17.2933  108.7022  H     
43   H        65.9470   18.1270  109.4583  H     
44   H        65.6455   16.6907  106.6242  H     
45   H        67.6478   15.7698  110.2150  H     
46   H        69.3131   14.5312  108.9581  H     
47   H        69.1441   14.3731  106.5363  H     
48   H        67.3170   15.4745  105.3796  H     
49   H        63.5063   12.9494  113.4168  H     
50   H        62.7933   11.8852  115.4373  H     
51   H        63.6153   16.6564  115.4299  H     
52   H        66.3127   12.9246  119.7904  H     
53   H        64.9790   13.3113  117.9245  H     
54   H        60.5958   12.2622  119.4138  H     
55   H        63.6564   11.1918  123.0302  H     
56   H        58.7078   13.0030  122.1919  H     
57   H        57.5099   11.9196  121.4792  H     
58   H        58.6113   12.8064  120.4224  H     
59   H        62.6886   10.7965  124.9135  H     
60   H        61.1118   10.3710  125.5733  H     
61   H        61.3824   12.0072  124.9724  H     
@<TRIPOS>BOND
     1    1    2 2
     2    1    5 1
     3    2    3 1
     4    2   16 1
     5    3    6 1
     6    3    8 2
     7    4    5 2
     8    4    6 1
     9    4    9 1
    10    6    7 1
    11    9   10 1
    12   10   11 2
    13   10   12 1
    14   11   15 1
    15   12   13 2
    16   13   14 1
    17   14   15 2
    18   16   17 1
    19   16   21 2
    20   17   18 2
    21   18   19 1
    22   19   20 2
    23   19   23 1
    24   20   21 1
    25   20   22 1
    26   23   24 1
    27   24   26 2
    28   24   28 1
    29   25   26 1
    30   25   33 2
    31   27   28 1
    32   27   32 2
    33   27   33 1
    34   28   29 2
    35   29   30 1
    36   30   31 2
    37   30   35 1
    38   31   32 1
    39   31   37 1
    40   34   35 1
    41   36   37 1
    42    1   38 1
    43    7   39 1
    44    7   40 1
    45    7   41 1
    46    9   42 1
    47    9   43 1
    48   11   44 1
    49   12   45 1
    50   13   46 1
    51   14   47 1
    52   15   48 1
    53   17   49 1
    54   18   50 1
    55   21   51 1
    56   25   52 1
    57   26   53 1
    58   29   54 1
    59   32   55 1
    60   34   56 1
    61   34   57 1
    62   34   58 1
    63   36   59 1
    64   36   60 1
    65   36   61 1
@<TRIPOS>PROPERTY_DATA
  Total_Score	| 12.4958
  Crash		| -1.4569
  Polar		| 2.1473
  FragIndex	| 1
  FragRMSD	| 1.270

