@<TRIPOS>MOLECULE
BindingDB_24759
 64 68 0 0 0
SMALL
NO_CHARGES


@<TRIPOS>ATOM
1    C        64.5833   14.8061  111.9960  C     
2    C        63.9153   15.4936  112.9478  C     
3    C        63.6889   16.8385  112.6830  C     
4    C        64.9370   16.7571  110.6840  C     
5    N        65.0595   15.4170  110.9141  N     
6    N        64.2510   17.4938  111.6332  N     
7    O        62.9000   17.4299  113.4116  O     
8    C        65.5224   17.2937  109.4000  C     
9    C        66.4521   16.3838  108.6442  C     
10   C        66.3765   16.1716  107.2364  C     
11   C        67.5046   15.7289  109.3419  C     
12   C        68.4503   14.9294  108.6703  C     
13   C        68.3648   14.7665  107.2732  C     
14   C        67.3240   15.3795  106.5599  C     
15   C        63.5286   14.8600  114.1559  C     
16   C        63.2624   13.4647  114.2278  C     
17   C        62.8873   12.8411  115.4415  C     
18   C        62.7821   13.5885  116.6346  C     
19   C        63.0308   14.9782  116.5806  C     
20   C        63.3936   15.5939  115.3627  C     
21   F        62.9357   15.6869  117.6768  F     
22   O        62.4284   12.9444  117.7954  O     
23   C        63.2767   12.7905  118.8545  C     
24   C        65.4341   12.7515  119.8505  C     
25   C        64.6289   12.9493  118.7735  C     
26   C        63.5975   12.0413  121.1436  C     
27   C        62.7074   12.3403  120.0724  C     
28   C        61.3161   12.1111  120.2848  C     
29   C        60.8499   11.5160  121.4816  C     
30   C        61.7661   11.2106  122.5172  C     
31   C        63.1390   11.4751  122.3482  C     
32   N        64.9323   12.2897  120.9869  N     
33   C        58.8633   10.2731  120.8655  C     
34   O        59.5205   11.2469  121.7106  O     
35   O        61.3145   10.5158  123.6122  O     
36   C        61.7439   11.0021  124.8971  C     
37   C        64.0798   18.9408  111.5375  C     
38   N        64.4231   17.7872  108.5490  N     
39   H        64.7868   13.8451  112.1224  H     
40   H        66.1271   18.1755  109.6374  H     
41   H        65.6387   16.6052  106.6794  H     
42   H        67.5918   15.8320  110.3556  H     
43   H        69.2146   14.4849  109.1870  H     
44   H        69.0643   14.2101  106.7779  H     
45   H        67.2716   15.2884  105.5458  H     
46   H        63.3491   12.8873  113.3856  H     
47   H        62.6991   11.8295  115.4646  H     
48   H        63.6003   16.5895  115.3654  H     
49   H        66.4140   12.9014  119.7816  H     
50   H        65.0614   13.2015  117.9125  H     
51   H        60.6122   12.3345  119.5558  H     
52   H        63.7940   11.2281  123.0924  H     
53   H        58.6185   10.7372  119.8962  H     
54   H        57.9699    9.9429  121.3712  H     
55   H        59.4981    9.4002  120.6867  H     
56   H        62.8286   10.8931  125.0199  H     
57   H        61.2394   10.4076  125.6615  H     
58   H        61.4594   12.0477  125.0386  H     
59   H        63.0460   19.1746  111.2793  H     
60   H        64.7183   19.4271  110.8012  H     
61   H        64.3165   19.4198  112.4879  H     
62   H        63.8076   17.0031  108.3075  H     
63   H        64.8131   18.1908  107.6851  H     
64   H        63.8820   18.5046  109.0257  H     
@<TRIPOS>BOND
     1    1    2 2
     2    1    5 1
     3    2    3 1
     4    2   15 1
     5    3    6 1
     6    3    7 2
     7    4    5 2
     8    4    6 1
     9    4    8 1
    10    6   37 1
    11    8    9 1
    12    8   38 1
    13    9   10 2
    14    9   11 1
    15   10   14 1
    16   11   12 2
    17   12   13 1
    18   13   14 2
    19   15   16 1
    20   15   20 2
    21   16   17 2
    22   17   18 1
    23   18   19 2
    24   18   22 1
    25   19   20 1
    26   19   21 1
    27   22   23 1
    28   23   25 2
    29   23   27 1
    30   24   25 1
    31   24   32 2
    32   26   27 1
    33   26   31 2
    34   26   32 1
    35   27   28 2
    36   28   29 1
    37   29   30 2
    38   29   34 1
    39   30   31 1
    40   30   35 1
    41   33   34 1
    42   35   36 1
    43    1   39 1
    44    8   40 1
    45   10   41 1
    46   11   42 1
    47   12   43 1
    48   13   44 1
    49   14   45 1
    50   16   46 1
    51   17   47 1
    52   20   48 1
    53   24   49 1
    54   25   50 1
    55   28   51 1
    56   31   52 1
    57   33   53 1
    58   33   54 1
    59   33   55 1
    60   36   56 1
    61   36   57 1
    62   36   58 1
    63   37   59 1
    64   37   60 1
    65   37   61 1
    66   38   62 1
    67   38   63 1
    68   38   64 1
@<TRIPOS>PROPERTY_DATA
  Total_Score	| 12.1183
  Crash		| -2.0260
  Polar		| 2.1316
  FragIndex	| 1
  FragRMSD	| 1.225

