@<TRIPOS>MOLECULE
BindingDB_24751
 81 86 0 0 0
SMALL
NO_CHARGES


@<TRIPOS>ATOM
1    C        64.5632   14.7726  112.0485  C     
2    C        63.8521   15.4539  112.9853  C     
3    C        63.6562   16.8068  112.7391  C     
4    C        64.9264   16.6974  110.7424  C     
5    N        65.0730   15.3674  110.9807  N     
6    N        64.2007   17.4409  111.6637  N     
7    C        63.9731   18.8716  111.5000  C     
8    O        62.8979   17.4154  113.4935  O     
9    C        65.5402   17.2411  109.4928  C     
10   C        66.4822   16.3637  108.7423  C     
11   C        67.5266   15.6736  109.4070  C     
12   C        66.3890   16.2250  107.3325  C     
13   C        67.3059   15.4363  106.6136  C     
14   C        68.3381   14.7533  107.2972  C     
15   C        68.4477   14.8731  108.6941  C     
16   C        63.4056   14.7850  114.1557  C     
17   C        63.0052   13.4214  114.1224  C     
18   C        62.7041   12.7156  115.2990  C     
19   C        62.7715   13.3406  116.5615  C     
20   C        63.0604   14.7226  116.6020  C     
21   C        63.3873   15.4324  115.4224  C     
22   F        63.0819   15.3421  117.7513  F     
23   O        62.5553   12.5592  117.6753  O     
24   C        63.4638   12.4341  118.6803  C     
25   C        65.5471   12.9161  119.7009  C     
26   C        64.7461   12.8749  118.6036  C     
27   C        63.8648   11.9402  121.0313  C     
28   C        63.0172   11.8592  119.8935  C     
29   C        61.7809   11.1835  120.0284  C     
30   C        61.3478   10.7162  121.2914  C     
31   C        62.1688   10.8726  122.4290  C     
32   C        63.4398   11.4620  122.2863  C     
33   N        65.1009   12.4785  120.8718  N     
34   C        58.9852   10.8417  121.1395  C     
35   O        60.1622   10.0403  121.4220  O     
36   O        61.8669   10.4008  123.6835  O     
37   C        60.5784   10.7408  124.2334  C     
38   C        60.6868   10.9043  125.7695  C     
39   C        59.3095   11.0374  126.4762  C     
40   C        58.2270   12.5032  128.1669  C     
41   C        58.2511   13.0457  129.6221  C     
42   C        59.7618   11.3061  130.3323  C     
43   C        59.6177   10.6126  128.9464  C     
44   N        59.3967   11.6187  127.8578  N     
45   O        59.4832   12.7211  130.2837  O     
46   H        64.7631   13.8002  112.1704  H     
47   H        62.9070   19.0536  111.3564  H     
48   H        64.4880   19.3231  110.6598  H     
49   H        64.3047   19.4198  112.3845  H     
50   H        64.7195   17.5429  108.8400  H     
51   H        66.0836   18.1500  109.7502  H     
52   H        67.6308   15.7445  110.4156  H     
53   H        65.6437   16.6982  106.8130  H     
54   H        67.2228   15.3436  105.6010  H     
55   H        69.0083   14.1937  106.7697  H     
56   H        69.1970   14.3824  109.1845  H     
57   H        62.9620   12.9334  113.2267  H     
58   H        62.4667   11.7205  115.2340  H     
59   H        63.6691   16.4113  115.4997  H     
60   H        66.4690   13.2701  119.6422  H     
61   H        65.1148   13.2051  117.7476  H     
62   H        61.1687   10.9982  119.2231  H     
63   H        64.0616   11.5531  123.0974  H     
64   H        58.9413   11.7481  121.7670  H     
65   H        58.1000   10.2399  121.3293  H     
66   H        58.9807   11.1539  120.0799  H     
67   H        60.1961   11.6706  123.8053  H     
68   H        59.8698    9.9385  124.0199  H     
69   H        61.2238   10.0397  126.1675  H     
70   H        61.2718   11.8025  125.9839  H     
71   H        58.6972   11.7024  125.8568  H     
72   H        58.8140   10.0602  126.4955  H     
73   H        57.2898   11.9615  127.9990  H     
74   H        58.2440   13.3535  127.4803  H     
75   H        58.1500   14.1322  129.6124  H     
76   H        57.4103   12.6433  130.1915  H     
77   H        59.1026   10.8325  131.0612  H     
78   H        60.7848   11.1925  130.6909  H     
79   H        60.5254   10.0374  128.7573  H     
80   H        58.7788    9.9108  128.9752  H     
81   H        60.2277   12.2220  127.8544  H     
@<TRIPOS>BOND
     1    1    2 2
     2    1    5 1
     3    2    3 1
     4    2   16 1
     5    3    6 1
     6    3    8 2
     7    4    5 2
     8    4    6 1
     9    4    9 1
    10    6    7 1
    11    9   10 1
    12   10   11 2
    13   10   12 1
    14   11   15 1
    15   12   13 2
    16   13   14 1
    17   14   15 2
    18   16   17 1
    19   16   21 2
    20   17   18 2
    21   18   19 1
    22   19   20 2
    23   19   23 1
    24   20   21 1
    25   20   22 1
    26   23   24 1
    27   24   26 2
    28   24   28 1
    29   25   26 1
    30   25   33 2
    31   27   28 1
    32   27   32 2
    33   27   33 1
    34   28   29 2
    35   29   30 1
    36   30   31 2
    37   30   35 1
    38   31   32 1
    39   31   36 1
    40   34   35 1
    41   36   37 1
    42   37   38 1
    43   38   39 1
    44   39   44 1
    45   40   41 1
    46   40   44 1
    47   41   45 1
    48   42   43 1
    49   42   45 1
    50   43   44 1
    51    1   46 1
    52    7   47 1
    53    7   48 1
    54    7   49 1
    55    9   50 1
    56    9   51 1
    57   11   52 1
    58   12   53 1
    59   13   54 1
    60   14   55 1
    61   15   56 1
    62   17   57 1
    63   18   58 1
    64   21   59 1
    65   25   60 1
    66   26   61 1
    67   29   62 1
    68   32   63 1
    69   34   64 1
    70   34   65 1
    71   34   66 1
    72   37   67 1
    73   37   68 1
    74   38   69 1
    75   38   70 1
    76   39   71 1
    77   39   72 1
    78   40   73 1
    79   40   74 1
    80   41   75 1
    81   41   76 1
    82   42   77 1
    83   42   78 1
    84   43   79 1
    85   43   80 1
    86   44   81 1
@<TRIPOS>PROPERTY_DATA
  Total_Score	| 15.1355
  Crash		| -2.4233
  Polar		| 4.2980
  FragIndex	| 1
  FragRMSD	| 1.434

