@<TRIPOS>MOLECULE
BindingDB_24768
 60 64 0 0 0
SMALL
NO_CHARGES


@<TRIPOS>ATOM
1    C        64.7304   14.7714  112.3481  C     
2    C        63.9406   15.5463  113.1242  C     
3    C        63.7694   16.8619  112.7060  C     
4    C        65.2270   16.5518  110.8803  C     
5    N        65.3416   15.2580  111.2727  N     
6    N        64.4094   17.3775  111.6266  N     
7    O        62.9819   17.5675  113.3311  O     
8    C        66.7401   16.2999  108.9263  C     
9    C        67.7649   15.4314  109.3773  C     
10   C        66.6607   16.5782  107.5408  C     
11   C        67.5470   15.9758  106.6284  C     
12   C        68.5386   15.0909  107.0887  C     
13   C        68.6480   14.8217  108.4667  C     
14   C        63.4317   15.0386  114.3422  C     
15   C        63.2202   15.9062  115.4440  C     
16   C        62.7502   15.4274  116.6779  C     
17   C        62.5349   14.0522  116.8666  C     
18   C        62.6923   13.1703  115.7796  C     
19   C        63.1364   13.6616  114.5325  C     
20   F        62.4408   11.8974  115.9288  F     
21   O        62.1742   13.6112  118.1126  O     
22   C        63.0999   13.1176  118.9757  C     
23   C        65.3084   12.8794  119.8094  C     
24   C        64.4348   13.3318  118.8594  C     
25   C        63.5470   11.9911  121.0856  C     
26   C        62.6111   12.4440  120.1154  C     
27   C        61.2384   12.2150  120.3544  C     
28   C        60.7998   11.5660  121.5272  C     
29   C        61.7402   11.1499  122.4995  C     
30   C        63.1190   11.3246  122.2494  C     
31   N        64.8671   12.2460  120.8862  N     
32   C        58.8517   10.4443  120.8518  C     
33   O        59.4585   11.3951  121.7455  O     
34   O        61.2905   10.5176  123.6313  O     
35   C        64.2204   18.7842  111.2985  C     
36   C        61.8072   11.0254  124.8733  C     
37   N        65.8657   16.9609  109.7472  N     
38   F        69.3574   14.5345  106.2387  F     
39   H        64.9299   13.8298  112.5881  H     
40   H        67.9017   15.2616  110.3741  H     
41   H        65.9473   17.2191  107.1838  H     
42   H        67.4702   16.1845  105.6303  H     
43   H        69.3765   14.1925  108.8120  H     
44   H        63.4274   16.9012  115.3654  H     
45   H        62.5983   16.0813  117.4492  H     
46   H        63.2364   13.0030  113.7572  H     
47   H        66.2830   13.0430  119.7147  H     
48   H        64.8024   13.8430  118.0904  H     
49   H        60.5352   12.5213  119.6780  H     
50   H        63.8081   10.9824  122.9237  H     
51   H        58.9012   10.7844  119.8144  H     
52   H        57.8020   10.3378  121.1233  H     
53   H        59.3279    9.4652  120.9356  H     
54   H        63.1686   18.9689  111.0665  H     
55   H        64.8029   19.1493  110.4555  H     
56   H        64.4983   19.4046  112.1551  H     
57   H        62.8842   10.8606  124.9482  H     
58   H        61.3252   10.4868  125.6888  H     
59   H        61.5916   12.0889  124.9942  H     
60   H        65.6194   17.8405  109.4340  H     
@<TRIPOS>BOND
     1    1    2 2
     2    1    5 1
     3    2    3 1
     4    2   14 1
     5    3    6 1
     6    3    7 2
     7    4    5 2
     8    4    6 1
     9    4   37 1
    10    6   35 1
    11    8    9 2
    12    8   10 1
    13    8   37 1
    14    9   13 1
    15   10   11 2
    16   11   12 1
    17   12   13 2
    18   12   38 1
    19   14   15 1
    20   14   19 2
    21   15   16 2
    22   16   17 1
    23   17   18 2
    24   17   21 1
    25   18   19 1
    26   18   20 1
    27   21   22 1
    28   22   24 2
    29   22   26 1
    30   23   24 1
    31   23   31 2
    32   25   26 1
    33   25   30 2
    34   25   31 1
    35   26   27 2
    36   27   28 1
    37   28   29 2
    38   28   33 1
    39   29   30 1
    40   29   34 1
    41   32   33 1
    42   34   36 1
    43    1   39 1
    44    9   40 1
    45   10   41 1
    46   11   42 1
    47   13   43 1
    48   15   44 1
    49   16   45 1
    50   19   46 1
    51   23   47 1
    52   24   48 1
    53   27   49 1
    54   30   50 1
    55   32   51 1
    56   32   52 1
    57   32   53 1
    58   35   54 1
    59   35   55 1
    60   35   56 1
    61   36   57 1
    62   36   58 1
    63   36   59 1
    64   37   60 1
@<TRIPOS>PROPERTY_DATA
  Total_Score	| 12.2352
  Crash		| -1.7593
  Polar		| 1.9115
  FragIndex	| 1
  FragRMSD	| 0.101

