@<TRIPOS>MOLECULE
BindingDB_24767
 60 64 0 0 0
SMALL
NO_CHARGES


@<TRIPOS>ATOM
1    C        64.8551   14.7809  112.2953  C     
2    C        64.0299   15.5034  113.0957  C     
3    C        63.8230   16.8190  112.6711  C     
4    C        65.2305   16.5628  110.8075  C     
5    N        65.4083   15.2785  111.2004  N     
6    N        64.4236   17.3649  111.5860  N     
7    O        63.0206   17.5287  113.2761  O     
8    C        66.6761   16.3085  108.8245  C     
9    C        66.5006   16.4057  107.4275  C     
10   C        67.8080   15.6110  109.3173  C     
11   C        68.7175   14.9960  108.4331  C     
12   C        68.5097   15.0683  107.0436  C     
13   C        67.4075   15.7844  106.5418  C     
14   C        63.4596   14.9175  114.2752  C     
15   C        63.1751   15.6591  115.4617  C     
16   C        62.7010   15.0559  116.6379  C     
17   C        62.5071   13.6602  116.6936  C     
18   C        62.7425   12.8965  115.5378  C     
19   C        63.1872   13.5162  114.3594  C     
20   F        62.5917   11.5958  115.5682  F     
21   O        62.1398   13.0292  117.8584  O     
22   C        63.0279   12.8236  118.8668  C     
23   C        65.2066   12.7477  119.7994  C     
24   C        64.3760   12.9347  118.7377  C     
25   C        63.3981   12.2089  121.1856  C     
26   C        62.4926   12.4130  120.1096  C     
27   C        61.1151   12.1999  120.3520  C     
28   C        60.6561   11.8200  121.6333  C     
29   C        61.5616   11.6369  122.7042  C     
30   C        62.9411   11.8368  122.4623  C     
31   N        64.7272   12.3933  120.9801  N     
32   C        58.8368   10.3510  121.8504  C     
33   O        59.3081   11.7128  121.8408  O     
34   O        61.0023   11.3707  123.9356  O     
35   C        64.2423   18.7794  111.2847  C     
36   C        61.7627   10.7809  125.0018  C     
37   N        65.7972   16.9679  109.6381  N     
38   F        65.4783   17.0444  106.9193  F     
39   H        65.1103   13.8458  112.5011  H     
40   H        67.9907   15.5659  110.3203  H     
41   H        69.5338   14.4997  108.8037  H     
42   H        69.1680   14.6220  106.4029  H     
43   H        67.2639   15.8394  105.5302  H     
44   H        63.3620   16.6573  115.5209  H     
45   H        62.5433   15.6232  117.4741  H     
46   H        63.3403   12.9021  113.5572  H     
47   H        66.1829   12.8702  119.6986  H     
48   H        64.7910   13.1636  117.8671  H     
49   H        60.4300   12.3433  119.6046  H     
50   H        63.6272   11.7296  123.2076  H     
51   H        59.0396    9.8493  120.8985  H     
52   H        57.7580   10.3722  122.0000  H     
53   H        59.2836    9.7761  122.6686  H     
54   H        63.1992   18.9770  111.0403  H     
55   H        64.8532   19.1584  110.4654  H     
56   H        64.5125   19.3720  112.1654  H     
57   H        62.3582    9.9362  124.6473  H     
58   H        61.0630   10.4220  125.7624  H     
59   H        62.4119   11.5225  125.4714  H     
60   H        65.4854   17.8163  109.2964  H     
@<TRIPOS>BOND
     1    1    2 2
     2    1    5 1
     3    2    3 1
     4    2   14 1
     5    3    6 1
     6    3    7 2
     7    4    5 2
     8    4    6 1
     9    4   37 1
    10    6   35 1
    11    8    9 2
    12    8   10 1
    13    8   37 1
    14    9   13 1
    15    9   38 1
    16   10   11 2
    17   11   12 1
    18   12   13 2
    19   14   15 1
    20   14   19 2
    21   15   16 2
    22   16   17 1
    23   17   18 2
    24   17   21 1
    25   18   19 1
    26   18   20 1
    27   21   22 1
    28   22   24 2
    29   22   26 1
    30   23   24 1
    31   23   31 2
    32   25   26 1
    33   25   30 2
    34   25   31 1
    35   26   27 2
    36   27   28 1
    37   28   29 2
    38   28   33 1
    39   29   30 1
    40   29   34 1
    41   32   33 1
    42   34   36 1
    43    1   39 1
    44   10   40 1
    45   11   41 1
    46   12   42 1
    47   13   43 1
    48   15   44 1
    49   16   45 1
    50   19   46 1
    51   23   47 1
    52   24   48 1
    53   27   49 1
    54   30   50 1
    55   32   51 1
    56   32   52 1
    57   32   53 1
    58   35   54 1
    59   35   55 1
    60   35   56 1
    61   36   57 1
    62   36   58 1
    63   36   59 1
    64   37   60 1
@<TRIPOS>PROPERTY_DATA
  Total_Score	| 13.2616
  Crash		| -1.2023
  Polar		| 2.1942
  FragIndex	| 1
  FragRMSD	| 0.314

