@<TRIPOS>MOLECULE
BindingDB_50154471
 35 34 0 0 0
SMALL
NO_CHARGES


@<TRIPOS>ATOM
1    S         0.0874    7.0202   12.6025  S     
2    S        -5.8487    1.7095   16.3397  S     
3    O        -1.0517    7.6532   11.5302  O     
4    O         1.6535    7.1949   11.9624  O     
5    O        -6.3691    0.1538   15.9568  O     
6    O        -4.5745    1.6279   17.4609  O     
7    N        -0.2576    5.4181   12.9509  N     
8    N        -7.1354    2.5670   16.9827  N     
9    O         0.0310    7.9407   14.0351  O     
10   O        -5.2090    2.4341   14.9388  O     
11   C        -5.9058    3.0317   13.8328  C     
12   C        -0.9414    7.8362   15.0891  C     
13   C        -2.3856    8.2533   14.6671  C     
14   C        -5.1833    4.3419   13.3585  C     
15   C        -3.8603    6.0658   14.8443  C     
16   C        -5.2439    5.4954   14.4195  C     
17   C        -3.2755    7.1978   13.9254  C     
18   H         0.4511    4.8361   13.2587  H     
19   H        -1.1170    5.0529   12.6834  H     
20   H        -7.0039    3.3516   17.5310  H     
21   H        -8.0298    2.1821   17.0213  H     
22   H        -5.9196    2.2740   13.0211  H     
23   H        -6.9476    3.2406   14.1263  H     
24   H        -0.9460    6.8389   15.5235  H     
25   H        -0.6058    8.5370   15.8631  H     
26   H        -2.9225    8.5896   15.5727  H     
27   H        -2.2894    9.1350   14.0109  H     
28   H        -4.1437    4.0580   13.1135  H     
29   H        -5.6583    4.6598   12.4356  H     
30   H        -3.9917    6.4619   15.8660  H     
31   H        -3.1362    5.2461   14.8854  H     
32   H        -5.8920    6.2787   14.0003  H     
33   H        -5.7591    5.1284   15.3319  H     
34   H        -4.1000    7.7437   13.4466  H     
35   H        -2.6787    6.7178   13.1350  H     
@<TRIPOS>BOND
     1    1    3 2
     2    1    4 2
     3    1    7 am
     4    1    9 1
     5    2    5 2
     6    2    6 2
     7    2    8 am
     8    2   10 1
     9    9   12 1
    10   10   11 1
    11   11   14 1
    12   12   13 1
    13   13   17 1
    14   14   16 1
    15   15   16 1
    16   15   17 1
    17    7   18 1
    18    7   19 1
    19    8   20 1
    20    8   21 1
    21   11   22 1
    22   11   23 1
    23   12   24 1
    24   12   25 1
    25   13   26 1
    26   13   27 1
    27   14   28 1
    28   14   29 1
    29   15   30 1
    30   15   31 1
    31   16   32 1
    32   16   33 1
    33   17   34 1
    34   17   35 1
@<TRIPOS>PROPERTY_DATA
  Total_Score	| 7.1284
  Crash		| -1.2744
  Polar		| 4.4462
  FragIndex	| 1
  FragRMSD	| 1.299

