@<TRIPOS>MOLECULE
BindingDB_33282
 44 43 0 0 0
SMALL
NO_CHARGES


@<TRIPOS>ATOM
1    S        -6.0196    1.5941   16.4779  S     
2    O        -6.1109    2.9105   15.4149  O     
3    N        -7.3303    1.5838   17.5258  N     
4    O        -6.0042    0.1403   15.6239  O     
5    O        -4.5733    1.6211   17.3474  O     
6    C        -5.4018    2.9684   14.1760  C     
7    C        -5.6794    4.3202   13.4768  C     
8    C        -5.1649    5.5690   14.2404  C     
9    C        -3.6332    5.8242   14.1354  C     
10   C        -3.2218    7.2403   14.6116  C     
11   C        -1.6851    7.4635   14.6918  C     
12   C        -1.2838    8.8274   15.3278  C     
13   C        -1.4569   10.0727   14.3989  C     
14   C        -0.1509   10.8588   14.0883  C     
15   C         0.7154   11.2071   15.3338  C     
16   O         1.1832   12.5576   15.2870  O     
17   S         0.4585   13.8462   16.1082  S     
18   N        -1.1139   14.0104   15.5476  N     
19   O         0.3590   13.5257   17.7657  O     
20   O         1.2820   15.3025   15.8750  O     
21   H        -7.3259    0.9909   18.2936  H     
22   H        -8.1648    1.9812   17.2357  H     
23   H        -4.3326    2.8338   14.3493  H     
24   H        -5.7469    2.1575   13.5315  H     
25   H        -5.2319    4.3003   12.4761  H     
26   H        -6.7633    4.4149   13.3513  H     
27   H        -5.6836    6.4399   13.8343  H     
28   H        -5.4454    5.4908   15.2960  H     
29   H        -3.1058    5.0783   14.7352  H     
30   H        -3.3188    5.6955   13.0969  H     
31   H        -3.6488    7.9772   13.9248  H     
32   H        -3.6559    7.4065   15.6045  H     
33   H        -1.2613    6.6694   15.3117  H     
34   H        -1.2451    7.3741   13.6947  H     
35   H        -1.8726    8.9805   16.2371  H     
36   H        -0.2399    8.7438   15.6422  H     
37   H        -1.8995    9.7760   13.4429  H     
38   H        -2.1616   10.7702   14.8649  H     
39   H         0.4546   10.2757   13.3842  H     
40   H        -0.4307   11.7854   13.5779  H     
41   H         0.1524   11.0470   16.2573  H     
42   H         1.5954   10.5615   15.3736  H     
43   H        -1.7036   14.6515   15.9720  H     
44   H        -1.4901   13.3158   14.9776  H     
@<TRIPOS>BOND
     1    1    2 1
     2    1    3 am
     3    1    4 2
     4    1    5 2
     5    2    6 1
     6    6    7 1
     7    7    8 1
     8    8    9 1
     9    9   10 1
    10   10   11 1
    11   11   12 1
    12   12   13 1
    13   13   14 1
    14   14   15 1
    15   15   16 1
    16   16   17 1
    17   17   18 am
    18   17   19 2
    19   17   20 2
    20    3   21 1
    21    3   22 1
    22    6   23 1
    23    6   24 1
    24    7   25 1
    25    7   26 1
    26    8   27 1
    27    8   28 1
    28    9   29 1
    29    9   30 1
    30   10   31 1
    31   10   32 1
    32   11   33 1
    33   11   34 1
    34   12   35 1
    35   12   36 1
    36   13   37 1
    37   13   38 1
    38   14   39 1
    39   14   40 1
    40   15   41 1
    41   15   42 1
    42   18   43 1
    43   18   44 1
@<TRIPOS>PROPERTY_DATA
  Total_Score	| 7.5584
  Crash		| -0.8879
  Polar		| 4.3682
  FragIndex	| 1
  FragRMSD	| 1.075

