@<TRIPOS>MOLECULE
BindingDB_50159803
 62 61 0 0 0
SMALL
NO_CHARGES


@<TRIPOS>ATOM
1    S         2.5905   14.4153   21.1719  S     
2    S        -5.8269    1.6108   16.2988  S     
3    O         2.5882   13.0711   22.2028  O     
4    O         4.1767   14.9609   20.9465  O     
5    O        -6.4073    0.0419   16.0808  O     
6    O        -4.3568    1.5359   17.1252  O     
7    N         1.7081   15.7047   21.8043  N     
8    N        -6.9253    2.5372   17.1586  N     
9    O         1.9674   14.0949   19.6378  O     
10   O        -5.5513    2.2622   14.7571  O     
11   C        -6.2076    3.3867   14.1463  C     
12   C         1.7837   12.7676   19.1126  C     
13   C         0.9413   12.8146   17.8045  C     
14   C        -5.1887    4.3657   13.5306  C     
15   C        -0.7093    8.4713   14.8806  C     
16   C        -1.6918    7.9531   13.7880  C     
17   C        -2.9510    7.2178   14.3305  C     
18   C        -2.9982    5.6962   13.9880  C     
19   C        -4.2338    4.9741   14.5921  C     
20   C         0.6613   14.2512   17.2530  C     
21   C         0.6118   14.3395   15.6976  C     
22   C        -0.8439   14.3472   15.1228  C     
23   C        -1.0609   13.5621   13.7809  C     
24   C        -1.6145   12.1057   13.9471  C     
25   C        -0.5231   11.0557   14.3001  C     
26   C        -0.9486    9.9437   15.3302  C     
27   H         1.4544   16.4479   21.2296  H     
28   H         1.2743   15.6297   22.6672  H     
29   H        -6.6207    3.1514   17.8405  H     
30   H        -7.8732    2.4169   17.0184  H     
31   H        -6.8332    2.9941   13.3417  H     
32   H        -6.8545    3.9183   14.8510  H     
33   H         2.7656   12.3149   18.9087  H     
34   H         1.2559   12.1426   19.8473  H     
35   H         1.4816   12.2043   17.0676  H     
36   H        -0.0136   12.3192   17.9978  H     
37   H        -4.6086    3.8380   12.7739  H     
38   H        -5.7284    5.1669   13.0363  H     
39   H        -0.7781    7.8362   15.7725  H     
40   H         0.3172    8.3721   14.5191  H     
41   H        -2.0277    8.7957   13.1775  H     
42   H        -1.1554    7.2785   13.1106  H     
43   H        -3.0048    7.3419   15.4185  H     
44   H        -3.8396    7.6917   13.9041  H     
45   H        -2.9802    5.5534   12.9060  H     
46   H        -2.0897    5.2196   14.3737  H     
47   H        -4.7848    5.6733   15.2227  H     
48   H        -3.8783    4.1723   15.2453  H     
49   H        -0.3022   14.5940   17.6699  H     
50   H         1.4287   14.9572   17.6065  H     
51   H         1.1015   15.2744   15.3937  H     
52   H         1.2108   13.5187   15.2843  H     
53   H        -1.5433   13.9626   15.8785  H     
54   H        -1.1243   15.3951   14.9625  H     
55   H        -1.8001   14.1156   13.1910  H     
56   H        -0.1395   13.5380   13.1844  H     
57   H        -2.4121   12.1068   14.7050  H     
58   H        -2.0855   11.7944   13.0104  H     
59   H        -0.1790   10.5996   13.3629  H     
60   H         0.3418   11.5637   14.7260  H     
61   H        -1.9966   10.0471   15.6266  H     
62   H        -0.3605   10.0904   16.2406  H     
@<TRIPOS>BOND
     1    1    3 2
     2    1    4 2
     3    1    7 am
     4    1    9 1
     5    2    5 2
     6    2    6 2
     7    2    8 am
     8    2   10 1
     9    9   12 1
    10   10   11 1
    11   11   14 1
    12   12   13 1
    13   13   20 1
    14   14   19 1
    15   15   16 1
    16   15   26 1
    17   16   17 1
    18   17   18 1
    19   18   19 1
    20   20   21 1
    21   21   22 1
    22   22   23 1
    23   23   24 1
    24   24   25 1
    25   25   26 1
    26    7   27 1
    27    7   28 1
    28    8   29 1
    29    8   30 1
    30   11   31 1
    31   11   32 1
    32   12   33 1
    33   12   34 1
    34   13   35 1
    35   13   36 1
    36   14   37 1
    37   14   38 1
    38   15   39 1
    39   15   40 1
    40   16   41 1
    41   16   42 1
    42   17   43 1
    43   17   44 1
    44   18   45 1
    45   18   46 1
    46   19   47 1
    47   19   48 1
    48   20   49 1
    49   20   50 1
    50   21   51 1
    51   21   52 1
    52   22   53 1
    53   22   54 1
    54   23   55 1
    55   23   56 1
    56   24   57 1
    57   24   58 1
    58   25   59 1
    59   25   60 1
    60   26   61 1
    61   26   62 1
@<TRIPOS>PROPERTY_DATA
  Total_Score	| 8.6075
  Crash		| -1.3902
  Polar		| 4.2730
  FragIndex	| 1
  FragRMSD	| 1.368

