@<TRIPOS>MOLECULE
BindingDB_33281
 38 37 0 0 0
SMALL
NO_CHARGES


@<TRIPOS>ATOM
1    S        -0.1585   12.0265   14.3382  S     
2    O        -0.2474   10.5040   15.0781  O     
3    N        -1.6880   12.7334   14.3158  N     
4    O         0.9096   13.0583   15.1514  O     
5    O         0.3469   11.8818   12.7305  O     
6    C        -1.3344    9.5958   14.8760  C     
7    C        -0.8432    8.1367   15.0360  C     
8    C        -1.7785    7.0712   14.4003  C     
9    C        -3.2945    7.2696   14.6735  C     
10   C        -4.0862    5.9327   14.8112  C     
11   C        -5.0199    5.6011   13.6043  C     
12   C        -4.9338    4.1354   13.0848  C     
13   C        -5.7472    3.0722   13.8659  C     
14   O        -5.1854    2.8423   15.1547  O     
15   S        -5.8400    1.7672   16.2893  S     
16   N        -7.2867    2.4018   16.8707  N     
17   O        -6.1847    0.2296   15.6696  O     
18   O        -4.7578    1.6139   17.5753  O     
19   H        -1.7875   13.6598   14.0383  H     
20   H        -2.4715   12.2112   14.5630  H     
21   H        -2.1139    9.8101   15.6111  H     
22   H        -1.7439    9.7463   13.8719  H     
23   H         0.1340    8.0473   14.5491  H     
24   H        -0.7051    7.9113   16.0957  H     
25   H        -1.6080    7.0517   13.3205  H     
26   H        -1.4780    6.0941   14.7855  H     
27   H        -3.4061    7.8340   15.5985  H     
28   H        -3.7201    7.8700   13.8699  H     
29   H        -3.3802    5.1143   14.9692  H     
30   H        -4.7104    5.9890   15.7117  H     
31   H        -6.0583    5.8349   13.8798  H     
32   H        -4.7747    6.2469   12.7476  H     
33   H        -5.3008    4.1305   12.0559  H     
34   H        -3.8829    3.8255   13.0519  H     
35   H        -6.7935    3.3839   13.9744  H     
36   H        -5.7173    2.1379   13.2921  H     
37   H        -7.9309    1.7966   17.2735  H     
38   H        -7.4600    3.3579   16.8375  H     
@<TRIPOS>BOND
     1    1    2 1
     2    1    3 am
     3    1    4 2
     4    1    5 2
     5    2    6 1
     6    6    7 1
     7    7    8 1
     8    8    9 1
     9    9   10 1
    10   10   11 1
    11   11   12 1
    12   12   13 1
    13   13   14 1
    14   14   15 1
    15   15   16 am
    16   15   17 2
    17   15   18 2
    18    3   19 1
    19    3   20 1
    20    6   21 1
    21    6   22 1
    22    7   23 1
    23    7   24 1
    24    8   25 1
    25    8   26 1
    26    9   27 1
    27    9   28 1
    28   10   29 1
    29   10   30 1
    30   11   31 1
    31   11   32 1
    32   12   33 1
    33   12   34 1
    34   13   35 1
    35   13   36 1
    36   16   37 1
    37   16   38 1
@<TRIPOS>PROPERTY_DATA
  Total_Score	| 6.5939
  Crash		| -0.9389
  Polar		| 3.3445
  FragIndex	| 1
  FragRMSD	| 1.248

