@<TRIPOS>MOLECULE
BindingDB_33280
 38 37 0 0 0
SMALL
NO_CHARGES


@<TRIPOS>ATOM
1    S        -6.0328    1.6053   16.4560  S     
2    O        -6.1514    2.9368   15.4188  O     
3    N        -7.3267    1.5802   17.5214  N     
4    O        -5.9917    0.1621   15.5856  O     
5    O        -4.5864    1.6466   17.3256  O     
6    C        -5.4994    3.0252   14.1500  C     
7    C        -5.8149    4.3870   13.4764  C     
8    C        -5.2459    5.6386   14.2105  C     
9    C        -3.6972    5.7205   14.1953  C     
10   C        -3.1316    7.1179   14.5741  C     
11   C        -1.6083    7.2209   14.2886  C     
12   C        -0.8532    8.4263   14.9168  C     
13   C        -1.4830    9.8259   14.6429  C     
14   C        -0.4769   10.9768   14.3660  C     
15   C         0.6773   11.1067   15.3874  C     
16   H        -7.3396    0.9525   18.2615  H     
17   H        -8.1438    2.0542   17.2878  H     
18   H        -4.4164    2.9020   14.2708  H     
19   H        -5.8649    2.2243   13.4993  H     
20   H        -5.4367    4.3729   12.4503  H     
21   H        -6.9022    4.4865   13.4113  H     
22   H        -5.6401    6.5242   13.7023  H     
23   H        -5.6175    5.6584   15.2443  H     
24   H        -3.2938    4.9775   14.8943  H     
25   H        -3.3561    5.4619   13.1895  H     
26   H        -3.6543    7.8787   13.9952  H     
27   H        -3.3228    7.3085   15.6347  H     
28   H        -1.1216    6.2997   14.6306  H     
29   H        -1.4708    7.2642   13.2038  H     
30   H        -0.7715    8.2771   15.9989  H     
31   H         0.1645    8.3989   14.5182  H     
32   H        -2.1375    9.7612   13.7703  H     
33   H        -2.1181   10.0990   15.4921  H     
34   H        -0.0453   10.8441   13.3730  H     
35   H        -1.0321   11.9179   14.3609  H     
36   H         0.2876   11.2816   16.3920  H     
37   H         1.3191   11.9467   15.1130  H     
38   H         1.2916   10.2013   15.4000  H     
@<TRIPOS>BOND
     1    1    2 1
     2    1    3 am
     3    1    4 2
     4    1    5 2
     5    2    6 1
     6    6    7 1
     7    7    8 1
     8    8    9 1
     9    9   10 1
    10   10   11 1
    11   11   12 1
    12   12   13 1
    13   13   14 1
    14   14   15 1
    15    3   16 1
    16    3   17 1
    17    6   18 1
    18    6   19 1
    19    7   20 1
    20    7   21 1
    21    8   22 1
    22    8   23 1
    23    9   24 1
    24    9   25 1
    25   10   26 1
    26   10   27 1
    27   11   28 1
    28   11   29 1
    29   12   30 1
    30   12   31 1
    31   13   32 1
    32   13   33 1
    33   14   34 1
    34   14   35 1
    35   15   36 1
    36   15   37 1
    37   15   38 1
@<TRIPOS>PROPERTY_DATA
  Total_Score	| 6.0645
  Crash		| -0.7265
  Polar		| 3.1610
  FragIndex	| 1
  FragRMSD	| 1.090

