@<TRIPOS>MOLECULE
BindingDB_50159810
 50 49 0 0 0
SMALL
NO_CHARGES


@<TRIPOS>ATOM
1    S         1.5844   13.1680   18.3186  S     
2    S        -5.9035    1.7093   16.3038  S     
3    O         2.8676   12.6398   17.3562  O     
4    O         1.9802   14.7177   18.8878  O     
5    O        -6.3534    0.1120   15.9634  O     
6    O        -4.6720    1.6685   17.4641  O     
7    N         1.3125   12.1645   19.6433  N     
8    N        -7.2655    2.4900   16.9168  N     
9    O         0.1467   13.3230   17.4340  O     
10   O        -5.2926    2.5099   14.9378  O     
11   C        -6.0573    3.4465   14.1583  C     
12   C         0.0013   14.1419   16.2687  C     
13   C         0.4903   13.3951   14.9961  C     
14   C        -5.1156    4.3157   13.2818  C     
15   C        -4.9774    5.7974   13.7199  C     
16   C        -0.4332   12.2563   14.4769  C     
17   C        -0.0656   10.8382   15.0020  C     
18   C        -1.1908    9.7931   14.7641  C     
19   C        -0.7032    8.3308   14.9481  C     
20   C        -1.6398    7.2465   14.3360  C     
21   C        -3.1503    7.4084   14.6789  C     
22   C        -3.9195    6.0629   14.8348  C     
23   H         0.5089   12.2688   20.1750  H     
24   H         1.8982   11.4005   19.8080  H     
25   H        -7.3473    3.4612   16.8499  H     
26   H        -8.0106    1.9593   17.2617  H     
27   H        -6.7317    2.8843   13.5056  H     
28   H        -6.6529    4.0806   14.8245  H     
29   H        -1.0576   14.4009   16.1647  H     
30   H         0.5663   15.0697   16.3793  H     
31   H         0.5714   14.1446   14.2031  H     
32   H         1.4982   13.0003   15.1767  H     
33   H        -4.1224    3.8600   13.2380  H     
34   H        -5.5043    4.3188   12.2641  H     
35   H        -4.7144    6.3839   12.8330  H     
36   H        -5.9569    6.1615   14.0737  H     
37   H        -1.4769   12.4832   14.7331  H     
38   H        -0.3616   12.2368   13.3851  H     
39   H         0.8569   10.4994   14.5057  H     
40   H         0.1224   10.8899   16.0770  H     
41   H        -1.9915    9.9910   15.4819  H     
42   H        -1.5917    9.9162   13.7503  H     
43   H         0.2786    8.2168   14.4699  H     
44   H        -0.5732    8.1244   16.0165  H     
45   H        -1.5154    7.2476   13.2480  H     
46   H        -1.2927    6.2795   14.7164  H     
47   H        -3.2406    7.9724   15.6157  H     
48   H        -3.6212    8.0149   13.8955  H     
49   H        -4.4420    6.0741   15.7927  H     
50   H        -3.2125    5.2248   14.8742  H     
@<TRIPOS>BOND
     1    1    3 2
     2    1    4 2
     3    1    7 am
     4    1    9 1
     5    2    5 2
     6    2    6 2
     7    2    8 am
     8    2   10 1
     9    9   12 1
    10   10   11 1
    11   11   14 1
    12   12   13 1
    13   13   16 1
    14   14   15 1
    15   15   22 1
    16   16   17 1
    17   17   18 1
    18   18   19 1
    19   19   20 1
    20   20   21 1
    21   21   22 1
    22    7   23 1
    23    7   24 1
    24    8   25 1
    25    8   26 1
    26   11   27 1
    27   11   28 1
    28   12   29 1
    29   12   30 1
    30   13   31 1
    31   13   32 1
    32   14   33 1
    33   14   34 1
    34   15   35 1
    35   15   36 1
    36   16   37 1
    37   16   38 1
    38   17   39 1
    39   17   40 1
    40   18   41 1
    41   18   42 1
    42   19   43 1
    43   19   44 1
    44   20   45 1
    45   20   46 1
    46   21   47 1
    47   21   48 1
    48   22   49 1
    49   22   50 1
@<TRIPOS>PROPERTY_DATA
  Total_Score	| 8.5256
  Crash		| -1.0671
  Polar		| 4.2695
  FragIndex	| 1
  FragRMSD	| 1.211

