@<TRIPOS>MOLECULE
BindingDB_50071253
 71 71 0 0 0
SMALL
NO_CHARGES


@<TRIPOS>ATOM
1    C        74.5567    8.4864    7.9655  C     
2    C        72.0518    9.6640    9.9425  C     
3    N        73.3664    9.6026    9.7793  N     
4    N        75.1800    8.3673    6.7701  N     
5    C        74.1011    9.7624    8.5430  C     
6    C        71.4692    9.7096   11.2911  C     
7    C        71.0098   11.1436   13.2981  C     
8    C        71.2327   11.1721   11.8439  C     
9    O        74.4116    7.4829    8.6620  O     
10   O        71.2943    9.6931    8.9860  O     
11   O        71.9598   10.9468   14.0384  O     
12   N        69.8511   11.2592   13.9235  N     
13   O        68.7138   11.4123   13.3247  O     
14   C        75.6714    7.0681    6.3082  C     
15   C        75.4285    9.5265    5.9204  C     
16   C        70.1637    8.8274   11.3538  C     
17   C        75.3000   10.7035    8.8606  C     
18   C        72.3735   12.1833   11.5135  C     
19   O        75.0472    5.0648    4.9139  O     
20   C        74.5567    6.1824    5.6853  C     
21   C        76.2221    4.4014    5.4144  C     
22   C        70.4251    7.3448   11.7042  C     
23   C        71.4277    4.4142   13.0799  C     
24   C        72.7616    5.0348   13.6018  C     
25   C        72.9733    6.6180   11.4632  C     
26   C        73.1417    6.4121   13.0013  C     
27   C        71.5406    6.6500   10.8569  C     
28   C        76.4708   10.5015    6.5319  C     
29   C        75.9011   11.4300    7.6318  C     
30   C        71.6425    3.4039   11.9333  C     
31   H        73.9060    9.5463   10.5833  H     
32   H        73.4613   10.2546    7.8078  H     
33   H        72.2109    9.2670   11.9656  H     
34   H        70.3365   11.5652   11.3514  H     
35   H        69.8168   11.2094   14.8932  H     
36   H        68.2634   10.5412   13.4455  H     
37   H        76.4670    7.1710    5.5693  H     
38   H        76.1234    6.5326    7.1492  H     
39   H        75.7906    9.2374    4.9310  H     
40   H        74.4998   10.0623    5.7218  H     
41   H        69.4870    9.2125   12.1203  H     
42   H        69.5909    8.8650   10.4194  H     
43   H        74.9749   11.4892    9.5458  H     
44   H        76.0916   10.1438    9.3701  H     
45   H        73.3336   11.8349   11.9017  H     
46   H        72.1548   13.1631   11.9430  H     
47   H        72.4674   12.3137   10.4320  H     
48   H        73.8713    5.8279    6.4623  H     
49   H        73.9754    6.8019    4.9958  H     
50   H        77.0798    5.0755    5.4372  H     
51   H        76.4560    3.5732    4.7436  H     
52   H        76.0436    3.9971    6.4124  H     
53   H        70.6410    7.3254   12.7774  H     
54   H        69.4866    6.7945   11.5542  H     
55   H        70.9237    3.8857   13.8885  H     
56   H        70.7239    5.1899   12.7730  H     
57   H        72.6570    5.1920   14.6855  H     
58   H        73.6020    4.3421   13.4658  H     
59   H        73.4696    7.5560   11.2034  H     
60   H        73.5351    5.8333   10.9570  H     
61   H        72.5710    7.1605   13.5550  H     
62   H        74.1974    6.5881   13.2394  H     
63   H        71.2224    5.6319   10.6359  H     
64   H        71.6097    7.1283    9.8740  H     
65   H        77.3134    9.9269    6.9327  H     
66   H        76.8633   11.1362    5.7306  H     
67   H        75.1400   12.0796    7.1909  H     
68   H        76.7136   12.0771    7.9782  H     
69   H        72.1792    3.8668   11.1094  H     
70   H        70.6777    3.0448   11.5752  H     
71   H        72.2274    2.5474   12.2758  H     
@<TRIPOS>BOND
     1    1    4 1
     2    1    5 1
     3    1    9 2
     4    2    3 am
     5    2    6 1
     6    2   10 2
     7    3    5 1
     8    4   14 1
     9    4   15 1
    10    5   17 1
    11    6    8 1
    12    6   16 1
    13    7    8 1
    14    7   11 2
    15    7   12 am
    16    8   18 1
    17   12   13 1
    18   14   20 1
    19   15   28 1
    20   16   22 1
    21   17   29 1
    22   19   20 1
    23   19   21 1
    24   22   27 1
    25   23   24 1
    26   23   30 1
    27   24   26 1
    28   25   26 1
    29   25   27 1
    30   28   29 1
    31    3   31 1
    32    5   32 1
    33    6   33 1
    34    8   34 1
    35   12   35 1
    36   13   36 1
    37   14   37 1
    38   14   38 1
    39   15   39 1
    40   15   40 1
    41   16   41 1
    42   16   42 1
    43   17   43 1
    44   17   44 1
    45   18   45 1
    46   18   46 1
    47   18   47 1
    48   20   48 1
    49   20   49 1
    50   21   50 1
    51   21   51 1
    52   21   52 1
    53   22   53 1
    54   22   54 1
    55   23   55 1
    56   23   56 1
    57   24   57 1
    58   24   58 1
    59   25   59 1
    60   25   60 1
    61   26   61 1
    62   26   62 1
    63   27   63 1
    64   27   64 1
    65   28   65 1
    66   28   66 1
    67   29   67 1
    68   29   68 1
    69   30   69 1
    70   30   70 1
    71   30   71 1
@<TRIPOS>PROPERTY_DATA
  Total_Score	| 6.1133
  Crash		| -5.9787
  Polar		| 8.0570
  FragIndex	| 1
  FragRMSD	| 1.492

