@<TRIPOS>MOLECULE
BindingDB_50071250
 67 67 0 0 0
SMALL
NO_CHARGES


@<TRIPOS>ATOM
1    N        74.5925    8.3073    6.3848  N     
2    C        74.2962    8.5304    7.6813  C     
3    C        72.4872    9.9260    9.7622  C     
4    N        73.8080    9.8876    9.6172  N     
5    C        74.5127    9.8164    8.3677  C     
6    C        74.1354    7.0895    5.7111  C     
7    C        70.9884   11.1116   13.0095  C     
8    C        75.1126    5.9838    5.8002  C     
9    C        71.8885    9.7881   11.0842  C     
10   O        73.9463    7.5805    8.3713  O     
11   C        71.3750   11.1712   11.6136  C     
12   O        71.7308    9.9409    8.8015  O     
13   O        71.8674   11.0139   13.8608  O     
14   O        75.0575    4.9697    4.9082  O     
15   N        69.7172   11.0591   13.3642  N     
16   C        75.3835    9.2529    5.6068  C     
17   O        76.0616    6.0315    6.7772  O     
18   O        69.3865   10.8563   14.6043  O     
19   C        76.0122   10.1071    8.6251  C     
20   C        70.7656    8.6994   11.0912  C     
21   C        77.1166    5.0868    6.9827  C     
22   C        71.1312    7.4099   10.2921  C     
23   C        76.7950    9.5253    6.1961  C     
24   C        73.5333    5.9041   13.7634  C     
25   C        72.7080    4.6985   13.2251  C     
26   C        72.0394    4.7926   11.8342  C     
27   C        70.2266    6.1823   10.5885  C     
28   C        70.6084    5.4280   11.8883  C     
29   C        76.7967   10.5449    7.3640  C     
30   C        73.1344    7.3402   13.3267  C     
31   H        74.3498    9.8134   10.4250  H     
32   H        74.1330   10.6050    7.7208  H     
33   H        73.1763    6.7143    6.1145  H     
34   H        73.9166    7.3089    4.6607  H     
35   H        72.6621    9.4527   11.7786  H     
36   H        70.5384   11.5151   11.0017  H     
37   H        72.1613   11.9236   11.5143  H     
38   H        69.0306   11.0928   12.6781  H     
39   H        75.5298    8.8852    4.5852  H     
40   H        74.8311   10.1838    5.4886  H     
41   H        68.4077   10.7370   14.6076  H     
42   H        76.0844   10.9281    9.3434  H     
43   H        76.4939    9.2321    9.0758  H     
44   H        70.5706    8.4261   12.1274  H     
45   H        69.8342    9.1034   10.6860  H     
46   H        76.7255    4.0883    7.1549  H     
47   H        77.6990    5.3909    7.8608  H     
48   H        77.7818    5.0630    6.1094  H     
49   H        71.0651    7.6409    9.2215  H     
50   H        72.1712    7.1514   10.4871  H     
51   H        77.2421    8.5841    6.5245  H     
52   H        77.4135    9.9332    5.3937  H     
53   H        73.4915    5.8713   14.8568  H     
54   H        74.5863    5.7523   13.4773  H     
55   H        73.3992    3.8485   13.1882  H     
56   H        71.9455    4.4355   13.9655  H     
57   H        72.7073    5.3244   11.1487  H     
58   H        71.9220    3.7806   11.4346  H     
59   H        69.1875    6.5349   10.6254  H     
60   H        70.2912    5.4844    9.7528  H     
61   H        69.8835    4.6183   12.0517  H     
62   H        70.5198    6.1046   12.7325  H     
63   H        76.4046   11.5038    6.9986  H     
64   H        77.8340   10.7097    7.6635  H     
65   H        73.3415    7.4954   12.2598  H     
66   H        73.7473    8.0642   13.8647  H     
67   H        72.0793    7.5388   13.5326  H     
@<TRIPOS>BOND
     1    1    2 1
     2    1    6 1
     3    1   16 1
     4    2    5 1
     5    2   10 2
     6    3    4 am
     7    3    9 1
     8    3   12 2
     9    4    5 1
    10    5   19 1
    11    6    8 1
    12    7   11 1
    13    7   13 2
    14    7   15 am
    15    8   14 2
    16    8   17 1
    17    9   11 1
    18    9   20 1
    19   15   18 1
    20   16   23 1
    21   17   21 1
    22   19   29 1
    23   20   22 1
    24   22   27 1
    25   23   29 1
    26   24   25 1
    27   24   30 1
    28   25   26 1
    29   26   28 1
    30   27   28 1
    31    4   31 1
    32    5   32 1
    33    6   33 1
    34    6   34 1
    35    9   35 1
    36   11   36 1
    37   11   37 1
    38   15   38 1
    39   16   39 1
    40   16   40 1
    41   18   41 1
    42   19   42 1
    43   19   43 1
    44   20   44 1
    45   20   45 1
    46   21   46 1
    47   21   47 1
    48   21   48 1
    49   22   49 1
    50   22   50 1
    51   23   51 1
    52   23   52 1
    53   24   53 1
    54   24   54 1
    55   25   55 1
    56   25   56 1
    57   26   57 1
    58   26   58 1
    59   27   59 1
    60   27   60 1
    61   28   61 1
    62   28   62 1
    63   29   63 1
    64   29   64 1
    65   30   65 1
    66   30   66 1
    67   30   67 1
@<TRIPOS>PROPERTY_DATA
  Total_Score	| 10.2516
  Crash		| -5.0372
  Polar		| 9.2172
  FragIndex	| 1
  FragRMSD	| 1.320

