@<TRIPOS>MOLECULE
BindingDB_50071244
 66 66 0 0 0
SMALL
NO_CHARGES


@<TRIPOS>ATOM
1    C        72.5500    9.1026    9.7812  C     
2    C        74.3208    8.0446    7.4255  C     
3    C        72.0491    9.1880   11.1639  C     
4    N        73.8480    9.2298    9.5181  N     
5    N        74.5791    7.9200    6.1048  N     
6    C        74.4277    9.2906    8.1924  C     
7    C        71.1541   10.7327   12.9274  C     
8    C        71.6370   10.6685   11.5466  C     
9    O        71.7508    9.0003    8.8565  O     
10   O        74.0675    7.0400    8.0906  O     
11   C        71.0245    8.0279   11.4689  C     
12   O        71.9802   10.7112   13.8318  O     
13   N        69.8673   10.7303   13.2251  N     
14   O        69.4621   10.7091   14.4645  O     
15   C        74.3697    6.6509    5.4155  C     
16   C        75.0932    9.0323    5.3177  C     
17   C        70.7479   11.4359   10.5099  C     
18   O        72.6047   13.6650   10.9391  O     
19   C        75.9143    9.7529    8.3083  C     
20   C        71.6054    6.8465   12.3123  C     
21   O        76.1816    5.7978    6.8109  O     
22   C        75.5978    5.7017    5.5022  C     
23   C        71.3246   13.8060   11.5488  C     
24   C        77.2387    4.8665    7.0678  C     
25   C        70.2637   12.8697   10.8987  C     
26   C        70.5827    5.6808   12.3862  C     
27   C        72.9755    6.3184   11.7964  C     
28   C        76.4795    9.5500    5.7717  C     
29   C        76.4566   10.4461    7.0337  C     
30   H        72.9126    8.9969   11.8142  H     
31   H        74.4403    9.3411   10.2787  H     
32   H        73.8738   10.0767    7.6672  H     
33   H        72.5687   11.2447   11.5173  H     
34   H        70.1700    8.4295   12.0185  H     
35   H        70.6017    7.6292   10.5368  H     
36   H        69.2138   10.7339   12.5043  H     
37   H        68.4830   10.6930   14.4127  H     
38   H        73.4950    6.1150    5.8037  H     
39   H        74.1407    6.8148    4.3580  H     
40   H        75.2113    8.7524    4.2682  H     
41   H        74.3804    9.8560    5.3264  H     
42   H        71.3165   11.5595    9.5844  H     
43   H        69.8743   10.8207   10.2775  H     
44   H        72.4552   13.8306    9.9776  H     
45   H        76.0130   10.4810    9.1278  H     
46   H        76.5529    8.8963    8.5615  H     
47   H        71.7546    7.2151   13.3292  H     
48   H        75.2736    4.6724    5.3236  H     
49   H        76.3199    5.9740    4.7306  H     
50   H        71.4279   13.5714   12.6130  H     
51   H        70.9892   14.8497   11.4752  H     
52   H        76.8874    3.8329    6.9949  H     
53   H        77.6059    5.0303    8.0844  H     
54   H        78.0641    5.0251    6.3674  H     
55   H        69.9006   13.3511    9.9905  H     
56   H        69.4207   12.7930   11.5840  H     
57   H        69.6150    6.0380   12.7588  H     
58   H        70.9557    4.9043   13.0597  H     
59   H        70.4363    5.2409   11.3919  H     
60   H        72.8932    6.0289   10.7486  H     
61   H        73.2871    5.4483   12.3737  H     
62   H        73.7618    7.0767   11.8828  H     
63   H        77.1581    8.7054    5.9369  H     
64   H        76.9049   10.1464    4.9620  H     
65   H        75.8664   11.3446    6.8328  H     
66   H        77.4809   10.7748    7.2388  H     
@<TRIPOS>BOND
     1    1    3 1
     2    1    4 am
     3    1    9 2
     4    2    5 1
     5    2    6 1
     6    2   10 2
     7    3    8 1
     8    3   11 1
     9    4    6 1
    10    5   15 1
    11    5   16 1
    12    6   19 1
    13    7    8 1
    14    7   12 2
    15    7   13 am
    16    8   17 1
    17   11   20 1
    18   13   14 1
    19   15   22 1
    20   16   28 1
    21   17   25 1
    22   18   23 1
    23   19   29 1
    24   20   26 1
    25   20   27 1
    26   21   22 1
    27   21   24 1
    28   23   25 1
    29   28   29 1
    30    3   30 1
    31    4   31 1
    32    6   32 1
    33    8   33 1
    34   11   34 1
    35   11   35 1
    36   13   36 1
    37   14   37 1
    38   15   38 1
    39   15   39 1
    40   16   40 1
    41   16   41 1
    42   17   42 1
    43   17   43 1
    44   18   44 1
    45   19   45 1
    46   19   46 1
    47   20   47 1
    48   22   48 1
    49   22   49 1
    50   23   50 1
    51   23   51 1
    52   24   52 1
    53   24   53 1
    54   24   54 1
    55   25   55 1
    56   25   56 1
    57   26   57 1
    58   26   58 1
    59   26   59 1
    60   27   60 1
    61   27   61 1
    62   27   62 1
    63   28   63 1
    64   28   64 1
    65   29   65 1
    66   29   66 1
@<TRIPOS>PROPERTY_DATA
  Total_Score	| 11.6808
  Crash		| -1.7405
  Polar		| 9.0723
  FragIndex	| 1
  FragRMSD	| 1.132

