@<TRIPOS>MOLECULE
BindingDB_50071245
 55 55 0 0 0
SMALL
NO_CHARGES


@<TRIPOS>ATOM
1    N        74.6368    8.5874    6.1144  N     
2    C        74.1902    8.4477    7.3882  C     
3    C        72.3035    9.0142    9.9113  C     
4    N        73.6033    9.1551    9.6754  N     
5    C        74.2238    9.5079    8.4192  C     
6    C        71.8649    8.4235   11.1813  C     
7    C        74.5253    7.4678    5.1647  C     
8    C        70.5567   10.4655   11.9812  C     
9    C        75.3841    6.3039    5.4826  C     
10   C        70.5229    9.0294   11.7133  C     
11   O        73.7253    7.3628    7.7388  O     
12   O        71.4700    9.2151    9.0382  O     
13   C        71.8106    6.8600   10.9778  C     
14   O        70.8283   11.2519   11.0831  O     
15   O        75.1885    5.1334    4.8121  O     
16   N        70.2350   11.0401   13.1232  N     
17   C        75.2115    9.8345    5.6281  C     
18   O        76.3178    6.4148    6.4752  O     
19   O        69.8496   10.4080   14.1942  O     
20   C        75.6925    9.9223    8.7530  C     
21   C        72.0444    5.8872   12.1919  C     
22   C        77.1747    5.3540    6.9125  C     
23   C        76.5473   10.2048    6.3152  C     
24   C        72.9007    6.4770   13.3464  C     
25   C        70.7395    5.2270   12.7140  C     
26   C        76.3780   10.8378    7.7086  C     
27   H        74.2077    8.9509   10.4224  H     
28   H        73.6871   10.3833    8.0381  H     
29   H        72.6243    8.6274   11.9361  H     
30   H        73.4751    7.1430    5.1146  H     
31   H        74.7982    7.7433    4.1379  H     
32   H        69.7318    8.8443   10.9838  H     
33   H        70.2369    8.5028   12.6270  H     
34   H        70.8521    6.6052   10.4975  H     
35   H        72.5845    6.5938   10.2397  H     
36   H        70.3040   12.0102   13.1842  H     
37   H        75.4107    9.8019    4.5525  H     
38   H        74.4929   10.6429    5.7523  H     
39   H        68.9660   10.0241   13.9615  H     
40   H        75.6992   10.4907    9.6847  H     
41   H        76.3101    9.0353    8.9157  H     
42   H        72.6363    5.0487   11.7892  H     
43   H        76.5866    4.5071    7.2942  H     
44   H        77.8223    5.7302    7.7084  H     
45   H        77.8036    5.0161    6.0830  H     
46   H        77.1880    9.3190    6.3746  H     
47   H        77.0688   10.9283    5.6784  H     
48   H        73.8327    6.8940   12.9572  H     
49   H        73.1457    5.6999   14.0722  H     
50   H        72.3479    7.2600   13.8693  H     
51   H        70.0929    5.9624   13.1962  H     
52   H        70.9732    4.4423   13.4364  H     
53   H        70.1856    4.7669   11.8943  H     
54   H        75.8167   11.7665    7.6092  H     
55   H        77.3730   11.1060    8.0770  H     
@<TRIPOS>BOND
     1    1    2 1
     2    1    7 1
     3    1   17 1
     4    2    5 1
     5    2   11 2
     6    3    4 am
     7    3    6 1
     8    3   12 2
     9    4    5 1
    10    5   20 1
    11    6   10 1
    12    6   13 1
    13    7    9 1
    14    8   10 1
    15    8   14 2
    16    8   16 am
    17    9   15 2
    18    9   18 1
    19   13   21 1
    20   16   19 1
    21   17   23 1
    22   18   22 1
    23   20   26 1
    24   21   24 1
    25   21   25 1
    26   23   26 1
    27    4   27 1
    28    5   28 1
    29    6   29 1
    30    7   30 1
    31    7   31 1
    32   10   32 1
    33   10   33 1
    34   13   34 1
    35   13   35 1
    36   16   36 1
    37   17   37 1
    38   17   38 1
    39   19   39 1
    40   20   40 1
    41   20   41 1
    42   21   42 1
    43   22   43 1
    44   22   44 1
    45   22   45 1
    46   23   46 1
    47   23   47 1
    48   24   48 1
    49   24   49 1
    50   24   50 1
    51   25   51 1
    52   25   52 1
    53   25   53 1
    54   26   54 1
    55   26   55 1
@<TRIPOS>PROPERTY_DATA
  Total_Score	| 9.8528
  Crash		| -1.4317
  Polar		| 6.8994
  FragIndex	| 1
  FragRMSD	| 1.232

