@<TRIPOS>MOLECULE
BindingDB_50109170
 56 55 0 0 0
SMALL
NO_CHARGES


@<TRIPOS>ATOM
1    C        72.3022    9.0706    9.7816  C     
2    C        74.1720    7.9423    7.5343  C     
3    N        73.6044    9.1510    9.5255  N     
4    C        74.2345    9.2279    8.2392  C     
5    C        71.8316    9.0607   11.1680  C     
6    N        73.9496    7.9211    6.2199  N     
7    C        70.8656   10.5911   12.9294  C     
8    C        71.1430   10.4274   11.5105  C     
9    O        71.4799    9.0387    8.8681  O     
10   O        74.4357    6.9018    8.1339  O     
11   C        75.7149    9.6852    8.4298  C     
12   C        70.9370    7.7982   11.4571  C     
13   O        71.7884   10.4877   13.7329  O     
14   N        69.6432   10.8303   13.3624  N     
15   O        75.3352    5.0594    4.6094  O     
16   C        75.2306    6.1087    5.2257  C     
17   C        73.9294    6.7779    5.3367  C     
18   O        69.3685   10.8631   14.6326  O     
19   C        71.5949    6.6936   12.3348  C     
20   C        75.8735   11.1156    9.0416  C     
21   C        73.4283    7.2616    3.9387  C     
22   C        70.6530    5.4664   12.4683  C     
23   C        72.9877    6.2408   11.8114  C     
24   C        77.1316   11.2113    9.9411  C     
25   C        75.9201   12.2236    7.9526  C     
26   H        74.1943    9.2219   10.2948  H     
27   H        73.7180    9.9895    7.6467  H     
28   H        72.7183    9.0129   11.8209  H     
29   H        73.7281    8.7748    5.8061  H     
30   H        71.7868   11.2667   11.2039  H     
31   H        70.2144   10.5016   10.9302  H     
32   H        76.2057    8.9488    9.0748  H     
33   H        76.2303    9.6444    7.4679  H     
34   H        70.0376    8.1272   11.9820  H     
35   H        70.5980    7.3372   10.5241  H     
36   H        68.9311   10.9547   12.7176  H     
37   H        76.0087    6.4444    5.7638  H     
38   H        73.2089    6.0608    5.7375  H     
39   H        68.3903   10.7957   14.6878  H     
40   H        71.7352    7.1072   13.3406  H     
41   H        75.0130   11.3188    9.6843  H     
42   H        72.4604    7.7718    4.0211  H     
43   H        73.2992    6.4144    3.2568  H     
44   H        74.1506    7.9624    3.5032  H     
45   H        69.6733    5.7750   12.8365  H     
46   H        71.0571    4.7339   13.1686  H     
47   H        70.5134    4.9736   11.5045  H     
48   H        72.9013    5.8796   10.7814  H     
49   H        73.3940    5.4363   12.4304  H     
50   H        73.7074    7.0662   11.8310  H     
51   H        77.0553   10.5166   10.7789  H     
52   H        77.2428   12.2158   10.3500  H     
53   H        78.0266   10.9710    9.3696  H     
54   H        76.8351   12.1445    7.3630  H     
55   H        75.8884   13.2127    8.4122  H     
56   H        75.0693   12.1472    7.2805  H     
@<TRIPOS>BOND
     1    1    3 am
     2    1    5 1
     3    1    9 2
     4    2    4 1
     5    2    6 am
     6    2   10 2
     7    3    4 1
     8    4   11 1
     9    5    8 1
    10    5   12 1
    11    6   17 1
    12    7    8 1
    13    7   13 2
    14    7   14 am
    15   11   20 1
    16   12   19 1
    17   14   18 1
    18   15   16 2
    19   16   17 1
    20   17   21 1
    21   19   22 1
    22   19   23 1
    23   20   24 1
    24   20   25 1
    25    3   26 1
    26    4   27 1
    27    5   28 1
    28    6   29 1
    29    8   30 1
    30    8   31 1
    31   11   32 1
    32   11   33 1
    33   12   34 1
    34   12   35 1
    35   14   36 1
    36   16   37 1
    37   17   38 1
    38   18   39 1
    39   19   40 1
    40   20   41 1
    41   21   42 1
    42   21   43 1
    43   21   44 1
    44   22   45 1
    45   22   46 1
    46   22   47 1
    47   23   48 1
    48   23   49 1
    49   23   50 1
    50   24   51 1
    51   24   52 1
    52   24   53 1
    53   25   54 1
    54   25   55 1
    55   25   56 1
@<TRIPOS>PROPERTY_DATA
  Total_Score	| 13.5628
  Crash		| -1.2733
  Polar		| 10.4883
  FragIndex	| 1
  FragRMSD	| 0.767

