@<TRIPOS>MOLECULE
BindingDB_50089194
 62 62 0 0 0
SMALL
NO_CHARGES


@<TRIPOS>ATOM
1    C        74.0186    8.6166    7.4205  C     
2    N        74.6837    8.4426    6.2539  N     
3    N        73.3822    9.5448    9.5611  N     
4    C        73.9289    9.8470    8.2437  C     
5    C        72.1027    9.4439    9.8998  C     
6    C        70.5825   10.9295   12.2670  C     
7    O        73.3180    7.6739    7.7804  O     
8    C        71.7348    8.9049   11.2182  C     
9    C        74.7069    7.1868    5.5150  C     
10   C        70.4386    9.5450   11.8315  C     
11   O        71.2362    9.5462    9.0337  O     
12   O        71.0358   11.7581   11.4842  O     
13   N        70.2089   11.4001   13.4433  N     
14   C        75.2305   10.6914    8.4940  C     
15   C        75.3801    9.4749    5.5472  C     
16   O        69.7364   10.6808   14.4379  O     
17   O        75.6231    6.1487    7.6166  O     
18   C        75.5113    8.9535    4.1065  C     
19   C        75.1141    5.8950    6.2991  C     
20   C        75.6335    7.4434    4.3006  C     
21   C        71.6196    7.3398   11.1215  C     
22   C        75.0245   11.8536    9.5237  C     
23   C        76.4715    9.8412    8.9142  C     
24   C        72.9598    6.5802   11.4158  C     
25   C        72.5892    4.9680   13.4728  C     
26   C        73.1903    6.2988   12.9379  C     
27   C        71.1639    4.6248   12.9463  C     
28   H        74.0360    9.3458   10.2606  H     
29   H        73.2406   10.5158    7.7153  H     
30   H        72.5499    9.1518   11.9153  H     
31   H        73.6990    7.0408    5.1068  H     
32   H        70.1503    8.9333   12.6827  H     
33   H        69.6244    9.4864   11.1050  H     
34   H        70.3544   12.3488   13.6116  H     
35   H        75.4942   11.1938    7.5620  H     
36   H        74.8446   10.4306    5.5395  H     
37   H        76.3812    9.6053    5.9700  H     
38   H        68.8285   10.3988   14.1544  H     
39   H        76.5195    6.5619    7.4926  H     
40   H        74.5997    9.1840    3.5383  H     
41   H        76.3840    9.3784    3.5893  H     
42   H        74.2185    5.2821    6.4218  H     
43   H        75.8522    5.2889    5.7539  H     
44   H        76.6725    7.1990    4.5338  H     
45   H        75.3227    6.8996    3.4064  H     
46   H        70.8720    6.9578   11.8137  H     
47   H        71.2618    7.0511   10.1277  H     
48   H        74.1205   12.4247    9.2625  H     
49   H        75.8889   12.5325    9.5017  H     
50   H        74.9172   11.4561   10.5416  H     
51   H        76.2654    9.3531    9.8758  H     
52   H        77.3656   10.4776    9.0167  H     
53   H        76.6864    9.0716    8.1613  H     
54   H        72.9438    5.6326   10.8636  H     
55   H        73.8077    7.1605   11.0187  H     
56   H        73.2662    4.1449   13.2146  H     
57   H        72.5550    5.0442   14.5640  H     
58   H        74.2714    6.2627   13.1209  H     
59   H        72.7981    7.1251   13.5394  H     
60   H        70.4707    5.4639   13.1412  H     
61   H        70.7913    3.7202   13.4594  H     
62   H        71.2076    4.4212   11.8623  H     
@<TRIPOS>BOND
     1    1    2 am
     2    1    4 1
     3    1    7 2
     4    2    9 1
     5    2   15 1
     6    3    4 1
     7    3    5 am
     8    4   14 1
     9    5    8 1
    10    5   11 2
    11    6   10 1
    12    6   12 2
    13    6   13 am
    14    8   10 1
    15    8   21 1
    16    9   19 1
    17    9   20 1
    18   13   16 1
    19   14   22 1
    20   14   23 1
    21   15   18 1
    22   17   19 1
    23   18   20 1
    24   21   24 1
    25   24   26 1
    26   25   26 1
    27   25   27 1
    28    3   28 1
    29    4   29 1
    30    8   30 1
    31    9   31 1
    32   10   32 1
    33   10   33 1
    34   13   34 1
    35   14   35 1
    36   15   36 1
    37   15   37 1
    38   16   38 1
    39   17   39 1
    40   18   40 1
    41   18   41 1
    42   19   42 1
    43   19   43 1
    44   20   44 1
    45   20   45 1
    46   21   46 1
    47   21   47 1
    48   22   48 1
    49   22   49 1
    50   22   50 1
    51   23   51 1
    52   23   52 1
    53   23   53 1
    54   24   54 1
    55   24   55 1
    56   25   56 1
    57   25   57 1
    58   26   58 1
    59   26   59 1
    60   27   60 1
    61   27   61 1
    62   27   62 1
@<TRIPOS>PROPERTY_DATA
  Total_Score	| 9.1083
  Crash		| -2.0463
  Polar		| 5.8232
  FragIndex	| 1
  FragRMSD	| 1.308

