@<TRIPOS>MOLECULE
BindingDB_50071243
 68 68 0 0 0
SMALL
NO_CHARGES


@<TRIPOS>ATOM
1    C        74.0214    8.4335    7.7953  C     
2    C        72.1440    9.4330   10.2499  C     
3    N        73.4540    9.4392   10.0034  N     
4    N        74.4396    8.4397    6.5087  N     
5    C        74.1366    9.5643    8.7301  C     
6    C        70.1849   11.8314   12.3838  C     
7    C        71.6606    9.8944   11.5665  C     
8    O        73.5656    7.3953    8.2637  O     
9    C        70.3381   10.7445   11.4186  C     
10   O        71.3412    9.2239    9.3454  O     
11   O        70.2725   12.9849   11.9818  O     
12   N        69.8907   11.7216   13.6675  N     
13   C        74.2076    7.2832    5.6430  C     
14   O        69.7313   10.5951   14.3171  O     
15   C        75.1435    9.5811    5.9314  C     
16   C        75.6393    9.8644    9.0481  C     
17   O        75.8095    6.0945    7.0444  O     
18   C        71.4764    8.7424   12.6136  C     
19   C        75.3881    6.2838    5.6803  C     
20   C        76.9452    5.2388    7.2130  C     
21   C        72.6871    7.7937   12.8529  C     
22   C        71.1896    4.3769   13.0662  C     
23   C        70.3150    5.5034   12.4593  C     
24   C        73.1399    6.8149   11.7464  C     
25   C        72.1336    6.2686   10.6905  C     
26   C        70.6532    5.9249   11.0088  C     
27   C        76.5144    9.8627    6.5987  C     
28   C        76.4121   10.6202    7.9411  C     
29   C        71.6548    3.3360   12.0292  C     
30   H        74.0152    9.5505   10.7845  H     
31   H        73.7010   10.4458    8.2514  H     
32   H        72.4243   10.5595   11.9870  H     
33   H        69.4622   10.0949   11.4764  H     
34   H        70.2963   11.1936   10.4183  H     
35   H        69.8251   12.5429   14.1863  H     
36   H        73.2817    6.7578    5.9075  H     
37   H        74.0553    7.5989    4.6073  H     
38   H        68.8847   10.2003   14.0031  H     
39   H        75.3526    9.4299    4.8657  H     
40   H        74.5150   10.4743    5.9856  H     
41   H        75.7095   10.4991    9.9379  H     
42   H        76.1636    8.9327    9.2835  H     
43   H        71.3010    9.2058   13.5812  H     
44   H        70.5724    8.1711   12.4147  H     
45   H        75.0574    5.3325    5.2488  H     
46   H        76.2163    6.6808    5.0793  H     
47   H        76.7199    4.2267    6.8653  H     
48   H        77.1802    5.2064    8.2771  H     
49   H        77.8215    5.6239    6.6835  H     
50   H        73.5538    8.4050   13.1342  H     
51   H        72.4550    7.1943   13.7287  H     
52   H        72.0568    4.8014   13.5728  H     
53   H        70.5804    3.8658   13.8202  H     
54   H        69.2774    5.1760   12.4739  H     
55   H        70.3631    6.3783   13.1051  H     
56   H        73.9571    7.2863   11.1975  H     
57   H        73.5897    5.9569   12.2598  H     
58   H        72.0978    6.9820    9.8788  H     
59   H        72.5919    5.3728   10.2775  H     
60   H        70.3546    5.1001   10.3496  H     
61   H        70.0087    6.7631   10.7203  H     
62   H        77.0485    8.9213    6.7525  H     
63   H        77.1064   10.4803    5.9138  H     
64   H        75.9406   11.5939    7.7652  H     
65   H        77.4314   10.8052    8.2992  H     
66   H        70.7851    2.8974   11.5406  H     
67   H        72.2328    2.5497   12.5023  H     
68   H        72.2947    3.8061   11.2756  H     
@<TRIPOS>BOND
     1    1    4 1
     2    1    5 1
     3    1    8 2
     4    2    3 am
     5    2    7 1
     6    2   10 2
     7    3    5 1
     8    4   13 1
     9    4   15 1
    10    5   16 1
    11    6    9 1
    12    6   11 2
    13    6   12 am
    14    7    9 1
    15    7   18 1
    16   12   14 1
    17   13   19 1
    18   15   27 1
    19   16   28 1
    20   17   19 1
    21   17   20 1
    22   18   21 1
    23   21   24 1
    24   22   23 1
    25   22   29 1
    26   23   26 1
    27   24   25 1
    28   25   26 1
    29   27   28 1
    30    3   30 1
    31    5   31 1
    32    7   32 1
    33    9   33 1
    34    9   34 1
    35   12   35 1
    36   13   36 1
    37   13   37 1
    38   14   38 1
    39   15   39 1
    40   15   40 1
    41   16   41 1
    42   16   42 1
    43   18   43 1
    44   18   44 1
    45   19   45 1
    46   19   46 1
    47   20   47 1
    48   20   48 1
    49   20   49 1
    50   21   50 1
    51   21   51 1
    52   22   52 1
    53   22   53 1
    54   23   54 1
    55   23   55 1
    56   24   56 1
    57   24   57 1
    58   25   58 1
    59   25   59 1
    60   26   60 1
    61   26   61 1
    62   27   62 1
    63   27   63 1
    64   28   64 1
    65   28   65 1
    66   29   66 1
    67   29   67 1
    68   29   68 1
@<TRIPOS>PROPERTY_DATA
  Total_Score	| 6.8759
  Crash		| -5.9865
  Polar		| 5.7163
  FragIndex	| 1
  FragRMSD	| 1.372

