@<TRIPOS>MOLECULE
BindingDB_50146631
 63 62 0 0 0
SMALL
NO_CHARGES


@<TRIPOS>ATOM
1    C        74.0475    7.7918    7.5051  C     
2    C        72.2394    8.7534    9.9089  C     
3    N        73.5118    8.9190    9.5469  N     
4    N        73.8960    7.8087    6.1843  N     
5    C        74.0219    9.0787    8.1976  C     
6    C        71.8617    8.8269   11.3224  C     
7    C        75.2223    5.9652    5.2752  C     
8    C        70.9192   10.5242   12.9593  C     
9    C        73.9364    6.6987    5.2657  C     
10   C        71.1770   10.2172   11.5676  C     
11   O        74.3867    6.7626    8.0872  O     
12   O        71.3645    8.7254    9.0476  O     
13   O        75.3029    4.7866    4.6185  O     
14   C        75.4444    9.7355    8.2215  C     
15   C        70.9477    7.6497   11.8179  C     
16   O        71.8348   10.9592   13.6565  O     
17   N        69.7219   10.3196   13.4845  N     
18   O        76.3027    6.4374    5.9739  O     
19   O        69.4809   10.5189   14.7389  O     
20   C        75.4797   11.2713    8.4952  C     
21   C        71.6068    6.3224   12.3373  C     
22   C        73.6202    7.2339    3.8453  C     
23   C        77.5663    5.7918    6.1732  C     
24   C        74.2529   12.0205    7.8907  C     
25   C        71.7562    5.2466   11.2379  C     
26   C        75.6637   11.6378    9.9959  C     
27   C        72.9474    6.5469   13.0844  C     
28   C        77.4695    4.6682    7.2223  C     
29   H        74.1761    8.9773   10.2872  H     
30   H        73.6907    8.6784    5.7762  H     
31   H        73.3294    9.7350    7.6631  H     
32   H        72.7623    8.8142   11.9301  H     
33   H        73.1544    6.0003    5.5489  H     
34   H        71.8069   11.0238   11.1526  H     
35   H        70.2319   10.2452   10.9984  H     
36   H        76.0677    9.2407    8.9892  H     
37   H        75.9796    9.5644    7.2779  H     
38   H        70.3208    8.0072   12.6478  H     
39   H        70.2331    7.3798   11.0146  H     
40   H        69.0472    9.8862   12.9383  H     
41   H        68.4873   10.4650   14.7964  H     
42   H        76.3785   11.6556    7.9742  H     
43   H        70.9100    5.9042   13.0723  H     
44   H        72.6613    7.7553    3.8457  H     
45   H        73.5593    6.4115    3.1332  H     
46   H        74.3952    7.9324    3.5116  H     
47   H        77.9422    5.3994    5.2269  H     
48   H        78.2673    6.5447    6.5355  H     
49   H        74.0696   11.6775    6.8735  H     
50   H        74.4708   13.1033    7.8586  H     
51   H        73.3600   11.8499    8.5003  H     
52   H        70.8041    5.0731   10.7340  H     
53   H        72.0760    4.3004   11.6834  H     
54   H        72.5028    5.5430   10.4968  H     
55   H        74.8138   11.3018   10.5930  H     
56   H        75.7365   12.7282   10.1094  H     
57   H        76.5796   11.1945   10.4088  H     
58   H        73.7635    6.7642   12.4001  H     
59   H        73.2164    5.6440   13.6592  H     
60   H        72.8585    7.3666   13.7952  H     
61   H        77.1471    5.0810    8.1827  H     
62   H        78.4436    4.1949    7.3518  H     
63   H        76.7497    3.9065    6.9113  H     
@<TRIPOS>BOND
     1    1    4 am
     2    1    5 1
     3    1   11 2
     4    2    3 am
     5    2    6 1
     6    2   12 2
     7    5    3 1
     8    4    9 1
     9    5   14 1
    10    6   10 1
    11    6   15 1
    12    7    9 1
    13    7   13 2
    14    7   18 1
    15    8   10 1
    16    8   16 2
    17    8   17 am
    18    9   22 1
    19   14   20 1
    20   15   21 1
    21   17   19 1
    22   18   23 1
    23   20   24 1
    24   20   26 1
    25   21   25 1
    26   21   27 1
    27   23   28 1
    28    3   29 1
    29    4   30 1
    30    5   31 1
    31    6   32 1
    32    9   33 1
    33   10   34 1
    34   10   35 1
    35   14   36 1
    36   14   37 1
    37   15   38 1
    38   15   39 1
    39   17   40 1
    40   19   41 1
    41   20   42 1
    42   21   43 1
    43   22   44 1
    44   22   45 1
    45   22   46 1
    46   23   47 1
    47   23   48 1
    48   24   49 1
    49   24   50 1
    50   24   51 1
    51   25   52 1
    52   25   53 1
    53   25   54 1
    54   26   55 1
    55   26   56 1
    56   26   57 1
    57   27   58 1
    58   27   59 1
    59   27   60 1
    60   28   61 1
    61   28   62 1
    62   28   63 1
@<TRIPOS>PROPERTY_DATA
  Total_Score	| 14.4033
  Crash		| -1.5728
  Polar		| 10.4631
  FragIndex	| 1
  FragRMSD	| 0.321

