@<TRIPOS>MOLECULE
BindingDB_50071256
 58 58 0 0 0
SMALL
NO_CHARGES


@<TRIPOS>ATOM
1    N        74.5411    8.0504    6.1265  N     
2    C        74.3115    8.0819    7.4513  C     
3    C        72.5691    9.0401    9.8492  C     
4    C        72.0719    9.1250   11.2251  C     
5    N        73.8739    9.1423    9.6027  N     
6    C        74.4809    9.2724    8.2997  C     
7    C        71.1435   10.7175   12.9539  C     
8    C        71.6140   10.5950   11.5705  C     
9    C        74.2511    6.8572    5.3341  C     
10   C        75.2784    5.8244    5.5657  C     
11   O        74.1026    7.0313    8.0451  O     
12   O        71.7769    8.9658    8.9189  O     
13   C        71.0532    7.9666   11.5516  C     
14   O        71.9709   10.7010   13.8669  O     
15   O        75.4544    4.8297    4.6621  O     
16   N        69.8638   10.7782   13.2777  N     
17   C        75.1270    9.1920    5.4292  C     
18   O        76.0490    5.9205    6.6896  O     
19   O        69.4374   10.7563   14.5117  O     
20   C        75.9885    9.6233    8.4661  C     
21   C        70.6631   11.2820   10.5234  C     
22   C        71.6377    6.7658   12.3798  C     
23   C        77.1187    5.0415    7.0383  C     
24   C        76.5575    9.5565    5.9225  C     
25   C        70.6287    5.5858   12.4448  C     
26   C        73.0108    6.2547   11.8649  C     
27   C        76.5892   10.3646    7.2410  C     
28   H        72.9214    8.9627   11.8994  H     
29   H        74.4685    9.2259   10.3708  H     
30   H        73.9788   10.1161    7.8205  H     
31   H        72.5207   11.2165   11.5325  H     
32   H        73.2751    6.4237    5.5731  H     
33   H        74.1975    7.1144    4.2731  H     
34   H        70.2332    8.3737   12.1502  H     
35   H        70.5996    7.5710   10.6401  H     
36   H        69.1974   10.7577   12.5649  H     
37   H        75.2009    9.0103    4.3538  H     
38   H        74.4772   10.0647    5.5293  H     
39   H        68.4691   10.5878   14.4196  H     
40   H        76.1141   10.2873    9.3252  H     
41   H        76.5708    8.7175    8.6748  H     
42   H        71.2052   11.4653    9.5877  H     
43   H        70.3004   12.2516   10.8950  H     
44   H        69.8003   10.6393   10.3095  H     
45   H        71.7866    7.1067   13.4104  H     
46   H        76.7568    4.0162    7.1366  H     
47   H        77.5374    5.3554    7.9918  H     
48   H        77.9004    5.0811    6.2783  H     
49   H        77.1536    8.6450    6.0324  H     
50   H        77.0455   10.1697    5.1567  H     
51   H        69.6414    5.9394   12.7630  H     
52   H        70.9561    4.8236   13.1655  H     
53   H        70.5264    5.1124   11.4648  H     
54   H        72.9364    5.9662   10.8169  H     
55   H        73.3441    5.3889   12.4417  H     
56   H        73.7761    7.0213   11.9633  H     
57   H        76.0598   11.3120    7.1043  H     
58   H        77.6319   10.6089    7.4776  H     
@<TRIPOS>BOND
     1    1    2 1
     2    1    9 1
     3    1   17 1
     4    2    6 1
     5    2   11 2
     6    3    4 1
     7    3    5 am
     8    3   12 2
     9    4    8 1
    10    4   13 1
    11    5    6 1
    12    6   20 1
    13    7    8 1
    14    7   14 2
    15    7   16 am
    16    8   21 1
    17    9   10 1
    18   10   15 2
    19   10   18 1
    20   13   22 1
    21   16   19 1
    22   17   24 1
    23   18   23 1
    24   20   27 1
    25   22   25 1
    26   22   26 1
    27   24   27 1
    28    4   28 1
    29    5   29 1
    30    6   30 1
    31    8   31 1
    32    9   32 1
    33    9   33 1
    34   13   34 1
    35   13   35 1
    36   16   36 1
    37   17   37 1
    38   17   38 1
    39   19   39 1
    40   20   40 1
    41   20   41 1
    42   21   42 1
    43   21   43 1
    44   21   44 1
    45   22   45 1
    46   23   46 1
    47   23   47 1
    48   23   48 1
    49   24   49 1
    50   24   50 1
    51   25   51 1
    52   25   52 1
    53   25   53 1
    54   26   54 1
    55   26   55 1
    56   26   56 1
    57   27   57 1
    58   27   58 1
@<TRIPOS>PROPERTY_DATA
  Total_Score	| 12.4286
  Crash		| -1.6846
  Polar		| 8.9138
  FragIndex	| 1
  FragRMSD	| 1.080

