@<TRIPOS>MOLECULE
BindingDB_50071251
 64 64 0 0 0
SMALL
NO_CHARGES


@<TRIPOS>ATOM
1    N        74.5675    8.1952    6.1147  N     
2    C        74.2322    8.2653    7.4253  C     
3    C        72.5735    9.3373    9.8213  C     
4    C        72.0451    9.3622   11.1898  C     
5    N        73.8836    9.3482    9.5988  N     
6    C        74.5146    9.4163    8.3024  C     
7    C        71.1285   10.7823   13.0241  C     
8    C        71.5820   10.8082   11.6305  C     
9    C        74.2714    6.9878    5.3361  C     
10   C        75.2002    5.8782    5.6023  C     
11   O        73.6734    7.3025    7.9481  O     
12   O        71.7803    9.3028    8.8820  O     
13   C        71.0439    8.1538   11.4066  C     
14   O        71.9628   10.8593   13.9148  O     
15   O        75.2651    4.8458    4.7180  O     
16   N        69.8460   10.6997   13.3439  N     
17   C        75.2693    9.2864    5.4516  C     
18   O        75.9845    5.8685    6.7180  O     
19   O        69.4464   10.7132   14.5771  O     
20   C        70.6410   11.6045   10.6591  C     
21   C        76.0460    9.6220    8.5139  C     
22   C        71.5848    6.9602   12.2762  C     
23   C        76.9341    4.8676    7.0772  C     
24   C        70.0587   12.9326   11.2464  C     
25   C        76.7090    9.5092    5.9936  C     
26   C        70.5378    5.8140   12.3527  C     
27   C        72.9444    6.4020   11.7628  C     
28   C        76.7680   10.3010    7.3236  C     
29   C        69.4391   13.8980   10.2109  C     
30   H        72.8911    9.1777   11.8566  H     
31   H        74.4615    9.3791   10.3800  H     
32   H        74.1182   10.3189    7.8251  H     
33   H        72.5011   11.4103   11.6247  H     
34   H        73.2546    6.6498    5.5462  H     
35   H        74.2967    7.1702    4.2595  H     
36   H        70.1276    8.5285   11.8634  H     
37   H        70.7285    7.7320   10.4447  H     
38   H        69.1832   10.6609   12.6323  H     
39   H        75.3710    9.1174    4.3763  H     
40   H        74.6945   10.2116    5.5365  H     
41   H        68.4601   10.6784   14.5356  H     
42   H        71.2074   11.8424    9.7587  H     
43   H        69.8259   10.9508   10.3462  H     
44   H        76.2088   10.2733    9.3785  H     
45   H        76.5331    8.6657    8.7390  H     
46   H        71.7253    7.3256   13.3003  H     
47   H        76.4578    3.8824    7.1001  H     
48   H        77.3240    5.0940    8.0724  H     
49   H        77.7595    4.8590    6.3577  H     
50   H        69.2950   12.6931   11.9905  H     
51   H        70.8307   13.5048   11.7722  H     
52   H        77.2024    8.5426    6.1190  H     
53   H        77.2788   10.0686    5.2451  H     
54   H        69.5692    6.1860   12.6886  H     
55   H        70.8585    5.0460   13.0584  H     
56   H        70.4043    5.3430   11.3739  H     
57   H        72.8897    6.1805   10.6882  H     
58   H        73.2146    5.4925   12.3027  H     
59   H        73.7537    7.1131   11.9302  H     
60   H        76.3493   11.3005    7.1656  H     
61   H        77.8227   10.4339    7.5904  H     
62   H        70.2273   14.2945    9.5636  H     
63   H        68.9593   14.7373   10.7170  H     
64   H        68.6954   13.3823    9.6000  H     
@<TRIPOS>BOND
     1    1    2 1
     2    1    9 1
     3    1   17 1
     4    2    6 1
     5    2   11 2
     6    3    4 1
     7    3    5 am
     8    3   12 2
     9    4    8 1
    10    4   13 1
    11    5    6 1
    12    6   21 1
    13    7    8 1
    14    7   14 2
    15    7   16 am
    16    8   20 1
    17    9   10 1
    18   10   15 2
    19   10   18 1
    20   13   22 1
    21   16   19 1
    22   17   25 1
    23   18   23 1
    24   20   24 1
    25   21   28 1
    26   22   26 1
    27   22   27 1
    28   24   29 1
    29   25   28 1
    30    4   30 1
    31    5   31 1
    32    6   32 1
    33    8   33 1
    34    9   34 1
    35    9   35 1
    36   13   36 1
    37   13   37 1
    38   16   38 1
    39   17   39 1
    40   17   40 1
    41   19   41 1
    42   20   42 1
    43   20   43 1
    44   21   44 1
    45   21   45 1
    46   22   46 1
    47   23   47 1
    48   23   48 1
    49   23   49 1
    50   24   50 1
    51   24   51 1
    52   25   52 1
    53   25   53 1
    54   26   54 1
    55   26   55 1
    56   26   56 1
    57   27   57 1
    58   27   58 1
    59   27   59 1
    60   28   60 1
    61   28   61 1
    62   29   62 1
    63   29   63 1
    64   29   64 1
@<TRIPOS>PROPERTY_DATA
  Total_Score	| 12.6623
  Crash		| -1.6009
  Polar		| 8.3689
  FragIndex	| 1
  FragRMSD	| 1.157

