@<TRIPOS>MOLECULE
BindingDB_50071255
 58 58 0 0 0
SMALL
NO_CHARGES


@<TRIPOS>ATOM
1    N        74.4074    8.2881    6.3295  N     
2    C        74.1025    8.3656    7.6432  C     
3    C        72.3557    9.4078   10.0310  C     
4    N        73.6562    9.4857    9.7673  N     
5    C        74.2965    9.5646    8.4771  C     
6    C        74.1006    7.0779    5.5671  C     
7    C        70.3216   11.0185   12.1955  C     
8    C        75.1413    6.0383    5.7003  C     
9    C        71.9300    9.2154   11.4195  C     
10   O        73.6793    7.3659    8.2218  O     
11   C        70.4495    9.6350   11.7525  C     
12   O        71.5383    9.3672    9.1092  O     
13   O        70.6468   11.9106   11.4270  O     
14   O        75.1812    5.0175    4.8104  O     
15   N        69.9416   11.4030   13.4015  N     
16   C        75.0924    9.3735    5.6318  C     
17   O        76.0296    6.1040    6.7269  O     
18   O        69.6935   10.5855   14.3886  O     
19   C        75.8164    9.8467    8.6945  C     
20   C        72.2570    7.7690   11.9110  C     
21   C        77.0873    5.1889    7.0073  C     
22   C        71.1560    6.7018   11.6717  C     
23   C        76.5157    9.6573    6.1833  C     
24   C        72.1320    4.5334   12.8545  C     
25   C        71.6865    5.2470   11.5443  C     
26   C        76.5366   10.4933    7.4856  C     
27   C        73.1425    5.3132   13.7338  C     
28   H        74.2449    9.5035   10.5409  H     
29   H        73.8498   10.4275    7.9725  H     
30   H        73.1418    6.6488    5.8770  H     
31   H        73.9827    7.3006    4.5034  H     
32   H        72.5794    9.8624   12.0223  H     
33   H        70.0538    8.9786   12.5281  H     
34   H        69.8026    9.4829   10.8859  H     
35   H        69.9610   12.3515   13.5996  H     
36   H        75.2082    9.1615    4.5633  H     
37   H        74.4932   10.2836    5.6769  H     
38   H        68.8481   10.1264   14.1590  H     
39   H        75.9348   10.5383    9.5353  H     
40   H        76.3319    8.9226    8.9700  H     
41   H        73.1837    7.4331   11.4323  H     
42   H        72.4538    7.8222   12.9847  H     
43   H        76.6862    4.1832    7.1418  H     
44   H        77.5818    5.5002    7.9275  H     
45   H        77.8180    5.1861    6.1969  H     
46   H        70.4175    6.7428   12.4805  H     
47   H        70.6353    6.9361   10.7395  H     
48   H        77.0388    8.7132    6.3482  H     
49   H        77.0811   10.2081    5.4255  H     
50   H        71.2546    4.2868   13.4578  H     
51   H        72.6089    3.5868   12.5777  H     
52   H        70.8797    4.6540   11.1026  H     
53   H        72.5124    5.2358   10.8267  H     
54   H        76.0957   11.4732    7.2890  H     
55   H        77.5808   10.6591    7.7625  H     
56   H        74.0222    5.5889   13.1513  H     
57   H        73.4762    4.6895   14.5641  H     
58   H        72.7018    6.2178   14.1520  H     
@<TRIPOS>BOND
     1    1    2 1
     2    1    6 1
     3    1   16 1
     4    2    5 1
     5    2   10 2
     6    3    4 am
     7    3    9 1
     8    3   12 2
     9    4    5 1
    10    5   19 1
    11    6    8 1
    12    7   11 1
    13    7   13 2
    14    7   15 am
    15    8   14 2
    16    8   17 1
    17    9   11 1
    18    9   20 1
    19   15   18 1
    20   16   23 1
    21   17   21 1
    22   19   26 1
    23   20   22 1
    24   22   25 1
    25   23   26 1
    26   24   25 1
    27   24   27 1
    28    4   28 1
    29    5   29 1
    30    6   30 1
    31    6   31 1
    32    9   32 1
    33   11   33 1
    34   11   34 1
    35   15   35 1
    36   16   36 1
    37   16   37 1
    38   18   38 1
    39   19   39 1
    40   19   40 1
    41   20   41 1
    42   20   42 1
    43   21   43 1
    44   21   44 1
    45   21   45 1
    46   22   46 1
    47   22   47 1
    48   23   48 1
    49   23   49 1
    50   24   50 1
    51   24   51 1
    52   25   52 1
    53   25   53 1
    54   26   54 1
    55   26   55 1
    56   27   56 1
    57   27   57 1
    58   27   58 1
@<TRIPOS>PROPERTY_DATA
  Total_Score	| 10.0352
  Crash		| -1.7810
  Polar		| 7.0629
  FragIndex	| 1
  FragRMSD	| 1.306

