@<TRIPOS>MOLECULE
BindingDB_50071248
 70 70 0 0 0
SMALL
NO_CHARGES


@<TRIPOS>ATOM
1    N        74.6418    8.2988    6.1810  N     
2    C        74.3085    8.2902    7.4878  C     
3    C        72.3385    9.3415    9.7918  C     
4    N        73.6519    9.3201    9.6247  N     
5    C        74.3431    9.4751    8.3663  C     
6    C        71.7740    9.4203   11.1445  C     
7    C        71.1980   11.0115   13.0354  C     
8    C        71.7387   10.9108   11.6756  C     
9    C        74.4024    7.1210    5.3526  C     
10   C        75.3288    6.0031    5.6090  C     
11   O        73.9575    7.2424    8.0211  O     
12   O        71.5934    9.3747    8.8268  O     
13   O        71.9819   11.0418   13.9772  O     
14   O        75.2806    4.9178    4.8045  O     
15   N        69.8955   10.9678   13.2817  N     
16   C        75.2347    9.4791    5.5502  C     
17   O        76.2179    6.0476    6.6325  O     
18   O        69.4419   10.8435   14.4915  O     
19   C        70.4061    8.6752   11.3381  C     
20   C        75.8160    9.9104    8.6498  C     
21   C        71.0532   11.9304   10.7094  C     
22   C        77.1576    5.0301    6.9772  C     
23   C        70.1172    7.3728   10.5417  C     
24   C        76.6101    9.8745    6.1611  C     
25   C        73.4257    5.3303   13.7123  C     
26   C        72.7756    4.3456   12.7044  C     
27   C        71.2225    4.2451   12.8170  C     
28   C        70.8732    6.0865   10.9691  C     
29   C        70.4543    5.5234   12.3675  C     
30   C        76.5058   10.6673    7.4884  C     
31   C        73.3401    6.8235   13.3350  C     
32   H        74.1877    9.2927   10.4331  H     
33   H        73.8376   10.3018    7.8674  H     
34   H        72.4958    8.8898   11.7709  H     
35   H        72.7797   11.2455   11.7243  H     
36   H        73.3790    6.7670    5.5055  H     
37   H        74.4802    7.3387    4.2863  H     
38   H        69.2703   10.9128   12.5418  H     
39   H        75.4227    9.3239    4.4816  H     
40   H        74.5599   10.3340    5.6107  H     
41   H        68.4810   10.6649   14.3887  H     
42   H        70.3127    8.3938   12.3870  H     
43   H        69.6005    9.3813   11.1279  H     
44   H        75.8397   10.5893    9.5116  H     
45   H        76.4179    9.0360    8.9152  H     
46   H        71.4850   11.8773    9.7110  H     
47   H        71.1919   12.9487   11.0733  H     
48   H        69.9803   11.7395   10.6248  H     
49   H        76.6399    4.1119    7.2377  H     
50   H        77.7491    5.3493    7.8357  H     
51   H        77.8365    4.8378    6.1474  H     
52   H        69.0459    7.1844   10.6304  H     
53   H        70.3276    7.5568    9.4843  H     
54   H        77.2217    8.9749    6.3158  H     
55   H        77.1420   10.5124    5.4433  H     
56   H        72.9702    5.2258   14.6996  H     
57   H        74.4726    5.0601   13.8162  H     
58   H        73.0592    4.6212   11.6930  H     
59   H        73.2027    3.3593   12.9026  H     
60   H        70.8661    3.4058   12.2192  H     
61   H        70.9724    4.0495   13.8656  H     
62   H        70.6830    5.3261   10.2098  H     
63   H        71.9543    6.2892   10.9669  H     
64   H        69.3681    5.3003   12.3943  H     
65   H        70.6232    6.3222   13.1093  H     
66   H        75.9713   11.6090    7.2993  H     
67   H        77.5237   10.9295    7.8126  H     
68   H        73.6826    6.9963   12.3087  H     
69   H        73.9626    7.4011   14.0191  H     
70   H        72.3185    7.1747   13.4435  H     
@<TRIPOS>BOND
     1    1    2 1
     2    1    9 1
     3    1   16 1
     4    2    5 1
     5    2   11 2
     6    3    4 am
     7    3    6 1
     8    3   12 2
     9    4    5 1
    10    5   20 1
    11    6    8 1
    12    6   19 1
    13    7    8 1
    14    7   13 2
    15    7   15 am
    16    8   21 1
    17    9   10 1
    18   10   14 2
    19   10   17 1
    20   15   18 1
    21   16   24 1
    22   17   22 1
    23   19   23 1
    24   20   30 1
    25   23   28 1
    26   24   30 1
    27   25   26 1
    28   25   31 1
    29   26   27 1
    30   27   29 1
    31   28   29 1
    32    4   32 1
    33    5   33 1
    34    6   34 1
    35    8   35 1
    36    9   36 1
    37    9   37 1
    38   15   38 1
    39   16   39 1
    40   16   40 1
    41   18   41 1
    42   19   42 1
    43   19   43 1
    44   20   44 1
    45   20   45 1
    46   21   46 1
    47   21   47 1
    48   21   48 1
    49   22   49 1
    50   22   50 1
    51   22   51 1
    52   23   52 1
    53   23   53 1
    54   24   54 1
    55   24   55 1
    56   25   56 1
    57   25   57 1
    58   26   58 1
    59   26   59 1
    60   27   60 1
    61   27   61 1
    62   28   62 1
    63   28   63 1
    64   29   64 1
    65   29   65 1
    66   30   66 1
    67   30   67 1
    68   31   68 1
    69   31   69 1
    70   31   70 1
@<TRIPOS>PROPERTY_DATA
  Total_Score	| 10.5292
  Crash		| -5.3119
  Polar		| 8.8468
  FragIndex	| 1
  FragRMSD	| 1.286

