@<TRIPOS>MOLECULE
BindingDB_50071246
 71 71 0 0 0
SMALL
NO_CHARGES


@<TRIPOS>ATOM
1    C        74.0727    8.5318    7.5535  C     
2    C        72.3178    9.7454    9.7850  C     
3    N        73.6443    9.7277    9.6400  N     
4    N        74.4488    8.4098    6.2560  N     
5    C        74.3508    9.7217    8.3781  C     
6    C        71.6756    9.7559   11.1142  C     
7    C        71.0506   11.2123   13.0672  C     
8    C        71.5188   11.2219   11.6721  C     
9    O        73.5297    7.5830    8.1264  O     
10   O        71.5916    9.8000    8.7979  O     
11   O        71.8846   11.0844   13.9585  O     
12   N        69.7616   11.1858   13.3784  N     
13   O        69.3690   10.9572   14.5983  O     
14   C        74.1106    7.1909    5.5083  C     
15   C        75.2229    9.4330    5.5622  C     
16   C        70.3303    8.9184   11.1378  C     
17   C        75.8722    9.8915    8.6495  C     
18   C        70.6891   12.1961   10.7632  C     
19   O        75.7433    6.0642    6.9835  O     
20   C        75.1877    6.0858    5.6498  C     
21   C        76.9143    5.2401    7.1373  C     
22   C        70.4905    7.4132   11.4986  C     
23   C        71.4313    4.4527   13.0277  C     
24   C        72.7411    5.1025   13.5682  C     
25   C        73.0665    6.6641   11.4758  C     
26   C        73.1027    6.5076   13.0148  C     
27   C        71.6869    6.7224   10.7747  C     
28   C        76.6316    9.6007    6.1707  C     
29   C        76.6761   10.4606    7.4560  C     
30   C        71.6064    3.3792   11.9174  C     
31   H        74.1715    9.7545   10.4617  H     
32   H        74.0018   10.6057    7.8363  H     
33   H        72.3667    9.2683   11.8000  H     
34   H        72.5308   11.6584   11.6860  H     
35   H        69.0981   11.2503   12.6635  H     
36   H        68.3968   10.8205   14.5313  H     
37   H        73.1511    6.7613    5.8181  H     
38   H        73.9866    7.4020    4.4394  H     
39   H        75.3486    9.1796    4.5013  H     
40   H        74.6737   10.3781    5.5767  H     
41   H        69.6279    9.3433   11.8591  H     
42   H        69.8133    8.9727   10.1681  H     
43   H        76.0119   10.5850    9.4840  H     
44   H        76.3064    8.9323    8.9528  H     
45   H        71.1813   12.3299    9.7981  H     
46   H        70.6052   13.1763   11.2427  H     
47   H        69.6833   11.8093   10.5828  H     
48   H        74.7226    5.1125    5.4110  H     
49   H        75.9898    6.2751    4.9214  H     
50   H        76.6176    4.1771    7.1399  H     
51   H        77.3702    5.4763    8.1065  H     
52   H        77.6626    5.4158    6.3430  H     
53   H        70.5358    7.2968   12.5896  H     
54   H        69.5695    6.9164   11.1704  H     
55   H        70.9343    3.9574   13.8589  H     
56   H        70.7361    5.2077   12.6663  H     
57   H        72.6277    5.2066   14.6559  H     
58   H        73.5876    4.4244   13.4083  H     
59   H        73.6293    7.5537   11.2307  H     
60   H        73.6105    5.8322   11.0488  H     
61   H        72.4859    7.2524   13.5123  H     
62   H        74.1268    6.7102   13.3447  H     
63   H        71.3814    5.7230   10.5520  H     
64   H        71.8369    7.2079    9.8002  H     
65   H        77.0531    8.6176    6.3638  H     
66   H        77.2692   10.0736    5.4292  H     
67   H        76.3223   11.4645    7.2236  H     
68   H        77.7189   10.5483    7.7583  H     
69   H        71.8416    3.8091   10.9540  H     
70   H        70.6686    2.8269   11.8003  H     
71   H        72.3977    2.6715   12.1625  H     
@<TRIPOS>BOND
     1    1    4 1
     2    1    5 1
     3    1    9 2
     4    2    3 am
     5    2    6 1
     6    2   10 2
     7    3    5 1
     8    4   14 1
     9    4   15 1
    10    5   17 1
    11    6    8 1
    12    6   16 1
    13    7    8 1
    14    7   11 2
    15    7   12 am
    16    8   18 1
    17   12   13 1
    18   14   20 1
    19   15   28 1
    20   16   22 1
    21   17   29 1
    22   19   20 1
    23   19   21 1
    24   22   27 1
    25   23   24 1
    26   23   30 1
    27   24   26 1
    28   25   26 1
    29   25   27 1
    30   28   29 1
    31    3   31 1
    32    5   32 1
    33    6   33 1
    34    8   34 1
    35   12   35 1
    36   13   36 1
    37   14   37 1
    38   14   38 1
    39   15   39 1
    40   15   40 1
    41   16   41 1
    42   16   42 1
    43   17   43 1
    44   17   44 1
    45   18   45 1
    46   18   46 1
    47   18   47 1
    48   20   48 1
    49   20   49 1
    50   21   50 1
    51   21   51 1
    52   21   52 1
    53   22   53 1
    54   22   54 1
    55   23   55 1
    56   23   56 1
    57   24   57 1
    58   24   58 1
    59   25   59 1
    60   25   60 1
    61   26   61 1
    62   26   62 1
    63   27   63 1
    64   27   64 1
    65   28   65 1
    66   28   66 1
    67   29   67 1
    68   29   68 1
    69   30   69 1
    70   30   70 1
    71   30   71 1
@<TRIPOS>PROPERTY_DATA
  Total_Score	| 9.8639
  Crash		| -4.9763
  Polar		| 7.7627
  FragIndex	| 1
  FragRMSD	| 1.362

