@<TRIPOS>MOLECULE
BindingDB_12609
 50 52 0 0 0
SMALL
NO_CHARGES


@<TRIPOS>ATOM
1    C         1.7943   29.5606    6.8444  C     
2    C        -0.2464   29.1411    7.9764  C     
3    C        -0.5402   30.5266    8.1015  C     
4    C         0.4109   31.3934    7.4949  C     
5    N         1.5236   30.8904    6.8959  N     
6    N         0.8868   28.7050    7.3764  N     
7    N         0.2894   32.7315    7.4465  N     
8    C        -1.6613   30.9670    8.8343  C     
9    O        -1.7177   32.1084    9.2745  O     
10   C        -2.6923   30.1407    9.2641  C     
11   C        -3.6154   29.6289    8.3177  C     
12   C        -4.6516   28.7692    8.7223  C     
13   C        -4.7953   28.4295   10.0803  C     
14   C        -3.8992   28.9478   11.0301  C     
15   C        -2.8345   29.7802   10.6313  C     
16   N         2.9625   29.1494    6.2935  N     
17   O        -1.9513   30.2305   11.5804  O     
18   C        -0.9007   29.2926   11.8776  C     
19   C         3.4566   27.7996    6.2323  C     
20   C         4.7548   27.7655    5.3729  C     
21   C         5.3965   26.3484    5.3479  C     
22   C         4.4219   25.7991    7.5220  C     
23   C         3.7649   27.2005    7.6346  C     
24   N         5.6227   25.8437    6.6971  N     
25   C         6.8418   25.4506    7.1233  C     
26   O         7.7931   25.4013    6.3487  O     
27   C         7.1515   25.0594    8.4899  C     
28   H        -0.8644   28.4242    8.3685  H     
29   H         0.9751   33.2649    7.0182  H     
30   H        -0.4915   33.1650    7.8183  H     
31   H        -3.5309   29.8711    7.3252  H     
32   H        -5.2992   28.3883    8.0308  H     
33   H        -5.5580   27.8108   10.3732  H     
34   H        -4.0087   28.6946   12.0115  H     
35   H         3.5241   29.8385    5.9122  H     
36   H        -1.3016   28.3635   12.2917  H     
37   H        -0.2425   29.7346   12.6274  H     
38   H        -0.3014   29.0700   10.9929  H     
39   H         2.7065   27.1775    5.7335  H     
40   H         4.5234   28.0708    4.3480  H     
41   H         5.4871   28.4731    5.7792  H     
42   H         4.7260   25.6623    4.8203  H     
43   H         6.3083   26.4145    4.7489  H     
44   H         4.5899   25.4336    8.5338  H     
45   H         3.7067   25.1104    7.0645  H     
46   H         4.4388   27.8689    8.1822  H     
47   H         2.8452   27.1015    8.2121  H     
48   H         6.8566   25.8580    9.1736  H     
49   H         8.2180   24.8748    8.6401  H     
50   H         6.6111   24.1463    8.7515  H     
@<TRIPOS>BOND
     1    1    5 2
     2    1    6 1
     3    1   16 1
     4    2    3 1
     5    2    6 2
     6    3    4 2
     7    3    8 1
     8    4    5 1
     9    4    7 1
    10    8    9 2
    11    8   10 1
    12   10   11 1
    13   10   15 2
    14   11   12 2
    15   12   13 1
    16   13   14 2
    17   14   15 1
    18   15   17 1
    19   16   19 1
    20   17   18 1
    21   19   20 1
    22   19   23 1
    23   20   21 1
    24   21   24 1
    25   22   23 1
    26   22   24 1
    27   24   25 am
    28   25   26 2
    29   25   27 1
    30    2   28 1
    31    7   29 1
    32    7   30 1
    33   11   31 1
    34   12   32 1
    35   13   33 1
    36   14   34 1
    37   16   35 1
    38   18   36 1
    39   18   37 1
    40   18   38 1
    41   19   39 1
    42   20   40 1
    43   20   41 1
    44   21   42 1
    45   21   43 1
    46   22   44 1
    47   22   45 1
    48   23   46 1
    49   23   47 1
    50   27   48 1
    51   27   49 1
    52   27   50 1
@<TRIPOS>PROPERTY_DATA
  Total_Score	| 9.0117
  Crash		| -0.8057
  Polar		| 2.1971
  FragIndex	| 1
  FragRMSD	| 0.418

