@<TRIPOS>MOLECULE
BindingDB_12611
 51 53 0 0 0
SMALL
NO_CHARGES


@<TRIPOS>ATOM
1    C         1.7993   29.5706    6.9716  C     
2    C        -0.1596   29.1098    8.2232  C     
3    C        -0.5430   30.4739    8.2275  C     
4    C         0.3111   31.3483    7.5031  C     
5    N         1.4362   30.8749    6.9041  N     
6    N         0.9866   28.7069    7.6271  N     
7    N         0.0594   32.6602    7.3433  N     
8    C        -1.6551   30.9105    8.9687  C     
9    O        -1.6583   32.0339    9.4570  O     
10   C        -2.7041   30.0829    9.3487  C     
11   C        -3.5813   29.5770    8.3610  C     
12   C        -4.6365   28.7158    8.7073  C     
13   C        -4.8290   28.3459   10.0475  C     
14   C        -3.9707   28.8462   11.0412  C     
15   C        -2.9043   29.7048   10.7042  C     
16   N         2.9559   29.1784    6.3902  N     
17   O        -2.0907   30.1640   11.7100  O     
18   C        -0.9826   29.2933   12.0005  C     
19   C         3.5401   27.8699    6.4673  C     
20   C         4.8204   27.8208    5.5896  C     
21   C         5.5665   26.4664    5.7259  C     
22   C         4.6744   26.1476    8.0084  C     
23   C         3.9181   27.4940    7.9304  C     
24   N         5.7929   26.1055    7.1032  N     
25   C         6.6468   23.3743    7.8891  C     
26   S         7.0873   25.0812    7.4977  S     
27   O         8.1717   25.0435    6.3279  O     
28   O         7.9070   25.7200    8.7016  O     
29   H        -0.7054   28.4006    8.7184  H     
30   H         0.6551   33.2215    6.8285  H     
31   H        -0.7518   33.0486    7.7028  H     
32   H        -3.4622   29.8379    7.3789  H     
33   H        -5.2646   28.3589    7.9825  H     
34   H        -5.5929   27.7150   10.2992  H     
35   H        -4.1233   28.5781   12.0137  H     
36   H         3.4523   29.8536    5.9049  H     
37   H        -1.3092   28.2818   12.2527  H     
38   H        -0.4481   29.7014   12.8600  H     
39   H        -0.2861   29.2489   11.1608  H     
40   H         2.8294   27.1391    6.0730  H     
41   H         4.5591   27.9810    4.5394  H     
42   H         5.4995   28.6241    5.8867  H     
43   H         4.9765   25.6795    5.2485  H     
44   H         6.5048   26.5615    5.1733  H     
45   H         4.9944   26.0073    9.0451  H     
46   H         3.9895   25.3332    7.7587  H     
47   H         4.5534   28.2762    8.3525  H     
48   H         3.0199   27.4204    8.5472  H     
49   H         5.9526   23.3521    8.7363  H     
50   H         7.5497   22.8156    8.1570  H     
51   H         6.1786   22.9178    7.0177  H     
@<TRIPOS>BOND
     1    1    5 2
     2    1    6 1
     3    1   16 1
     4    2    3 1
     5    2    6 2
     6    3    4 2
     7    3    8 1
     8    4    5 1
     9    4    7 1
    10    8    9 2
    11    8   10 1
    12   10   11 1
    13   10   15 2
    14   11   12 2
    15   12   13 1
    16   13   14 2
    17   14   15 1
    18   15   17 1
    19   16   19 1
    20   17   18 1
    21   19   20 1
    22   19   23 1
    23   20   21 1
    24   21   24 1
    25   22   23 1
    26   22   24 1
    27   24   26 1
    28   25   26 1
    29   26   27 2
    30   26   28 2
    31    2   29 1
    32    7   30 1
    33    7   31 1
    34   11   32 1
    35   12   33 1
    36   13   34 1
    37   14   35 1
    38   16   36 1
    39   18   37 1
    40   18   38 1
    41   18   39 1
    42   19   40 1
    43   20   41 1
    44   20   42 1
    45   21   43 1
    46   21   44 1
    47   22   45 1
    48   22   46 1
    49   23   47 1
    50   23   48 1
    51   25   49 1
    52   25   50 1
    53   25   51 1
@<TRIPOS>PROPERTY_DATA
  Total_Score	| 10.7415
  Crash		| -0.8414
  Polar		| 4.0722
  FragIndex	| 1
  FragRMSD	| 0.198

