@<TRIPOS>MOLECULE
BindingDB_12606
 49 51 0 0 0
SMALL
NO_CHARGES


@<TRIPOS>ATOM
1    C         1.8396   29.6213    7.1856  C     
2    C        -0.1606   29.1779    8.3756  C     
3    C        -0.5859   30.5291    8.2680  C     
4    C         0.2808   31.3875    7.5416  C     
5    N         1.4525   30.9143    7.0355  N     
6    N         1.0172   28.7715    7.8496  N     
7    N        -0.0049   32.6825    7.3091  N     
8    C        -1.7668   30.9595    8.8972  C     
9    O        -1.9085   32.1471    9.1795  O     
10   C        -2.7752   30.1008    9.3108  C     
11   C        -3.6643   29.5619    8.3477  C     
12   C        -4.6870   28.6770    8.7343  C     
13   C        -4.8359   28.3160   10.0828  C     
14   C        -3.9554   28.8398   11.0458  C     
15   C        -2.9252   29.7244   10.6753  C     
16   N         3.0460   29.2509    6.7030  N     
17   O        -2.1106   30.2169   11.6630  O     
18   C        -1.0282   29.3464   12.0420  C     
19   C         3.6623   27.9604    6.8227  C     
20   C         4.2815   27.5321    5.4658  C     
21   C         5.0889   26.2131    5.6021  C     
22   C         5.5413   26.6741    7.9930  C     
23   C         4.7599   28.0110    7.9181  C     
24   N         6.1332   26.3112    6.6691  N     
25   C         6.9908   25.0953    6.7511  C     
26   H        -0.7135   28.4814    8.8828  H     
27   H         0.6039   33.2598    6.8211  H     
28   H        -0.8479   33.0417    7.6162  H     
29   H        -3.5706   29.8068    7.3582  H     
30   H        -5.3300   28.2935    8.0355  H     
31   H        -5.5810   27.6763   10.3638  H     
32   H        -4.0682   28.5684   12.0265  H     
33   H         3.5766   29.9501    6.2960  H     
34   H        -1.3630   28.3314   12.2686  H     
35   H        -0.5816   29.7548   12.9496  H     
36   H        -0.2659   29.3101   11.2577  H     
37   H         2.9275   27.1993    7.1095  H     
38   H         3.4862   27.3956    4.7270  H     
39   H         4.9512   28.3191    5.1006  H     
40   H         4.4015   25.3887    5.8145  H     
41   H         5.5680   26.0112    4.6381  H     
42   H         6.3321   26.7888    8.7378  H     
43   H         4.8698   25.8806    8.3431  H     
44   H         5.4621   28.8230    7.7087  H     
45   H         4.2956   28.2078    8.8895  H     
46   H         6.7546   27.0793    6.3955  H     
47   H         6.4062   24.2163    7.0297  H     
48   H         7.7836   25.2369    7.4897  H     
49   H         7.4737   24.9051    5.7900  H     
@<TRIPOS>BOND
     1    1    5 2
     2    1    6 1
     3    1   16 1
     4    2    3 1
     5    2    6 2
     6    3    4 2
     7    3    8 1
     8    4    5 1
     9    4    7 1
    10    8    9 2
    11    8   10 1
    12   10   11 1
    13   10   15 2
    14   11   12 2
    15   12   13 1
    16   13   14 2
    17   14   15 1
    18   15   17 1
    19   16   19 1
    20   17   18 1
    21   19   20 1
    22   19   23 1
    23   20   21 1
    24   21   24 1
    25   22   23 1
    26   22   24 1
    27   24   25 1
    28    2   26 1
    29    7   27 1
    30    7   28 1
    31   11   29 1
    32   12   30 1
    33   13   31 1
    34   14   32 1
    35   16   33 1
    36   18   34 1
    37   18   35 1
    38   18   36 1
    39   19   37 1
    40   20   38 1
    41   20   39 1
    42   21   40 1
    43   21   41 1
    44   22   42 1
    45   22   43 1
    46   23   44 1
    47   23   45 1
    48   24   46 1
    49   25   47 1
    50   25   48 1
    51   25   49 1
@<TRIPOS>PROPERTY_DATA
  Total_Score	| 9.6076
  Crash		| -0.7225
  Polar		| 2.3799
  FragIndex	| 1
  FragRMSD	| 0.270

