@<TRIPOS>MOLECULE
BindingDB_12621
 51 53 0 0 0
SMALL
NO_CHARGES


@<TRIPOS>ATOM
1    C         1.8337   29.6343    7.0663  C     
2    C        -0.1828   29.1592    8.2242  C     
3    C        -0.5698   30.5295    8.2179  C     
4    C         0.2978   31.4073    7.5134  C     
5    N         1.4570   30.9365    6.9710  N     
6    N         0.9850   28.7699    7.6762  N     
7    N         0.0361   32.7152    7.3417  N     
8    C        -1.6996   30.9584    8.9418  C     
9    O        -1.7770   32.1123    9.3591  O     
10   C        -2.7183   30.1032    9.3436  C     
11   C        -3.6257   29.5888    8.3777  C     
12   C        -4.6304   28.6851    8.7590  C     
13   C        -4.7822   28.3338   10.1137  C     
14   C        -3.9169   28.8723   11.0900  C     
15   C        -2.8632   29.7350   10.7079  C     
16   N         3.0325   29.2381    6.5777  N     
17   C         3.6533   27.9587    6.8010  C     
18   C         4.6026   27.6123    5.6234  C     
19   C         5.3662   26.2875    5.8915  C     
20   C         5.1953   26.6558    8.3558  C     
21   C         4.4700   28.0019    8.1194  C     
22   N         5.9714   26.2346    7.2058  N     
23   C         6.6514   23.4288    7.8751  C     
24   S         7.1925   25.1051    7.4965  S     
25   O         8.2348   25.0340    6.2888  O     
26   O         8.0892   25.6766    8.6980  O     
27   F        -3.5474   29.9603    7.1171  F     
28   O        -2.0282   30.2207   11.6851  O     
29   C        -0.9195   29.3539   11.9959  C     
30   F        -5.4261   28.1557    7.8639  F     
31   H        -0.7489   28.4367    8.6616  H     
32   H         0.6596   33.2797    6.8583  H     
33   H        -0.7894   33.0937    7.6817  H     
34   H        -5.5183   27.6837   10.3967  H     
35   H        -4.0410   28.6192   12.0724  H     
36   H         3.5930   29.9228    6.1791  H     
37   H         2.8960   27.1636    6.8718  H     
38   H         4.0178   27.5216    4.7037  H     
39   H         5.3256   28.4241    5.4894  H     
40   H         4.6767   25.4454    5.7906  H     
41   H         6.1314   26.1927    5.1196  H     
42   H         5.8304   26.7821    9.2372  H     
43   H         4.4529   25.8849    8.5872  H     
44   H         5.2069   28.8124    8.0696  H     
45   H         3.7922   28.2087    8.9533  H     
46   H         6.0992   23.4347    8.8158  H     
47   H         7.5186   22.7695    7.9632  H     
48   H         6.0038   23.0705    7.0734  H     
49   H        -1.2670   28.3529   12.2627  H     
50   H        -0.3988   29.7725   12.8586  H     
51   H        -0.2146   29.2908   11.1595  H     
@<TRIPOS>BOND
     1    1    5 2
     2    1    6 1
     3    1   16 1
     4    2    3 1
     5    2    6 2
     6    3    4 2
     7    3    8 1
     8    4    5 1
     9    4    7 1
    10    8    9 2
    11    8   10 1
    12   10   11 1
    13   10   15 2
    14   11   12 2
    15   11   27 1
    16   12   13 1
    17   12   30 1
    18   13   14 2
    19   14   15 1
    20   15   28 1
    21   16   17 1
    22   17   18 1
    23   17   21 1
    24   18   19 1
    25   19   22 1
    26   20   21 1
    27   20   22 1
    28   22   24 1
    29   23   24 1
    30   24   25 2
    31   24   26 2
    32   28   29 1
    33    2   31 1
    34    7   32 1
    35    7   33 1
    36   13   34 1
    37   14   35 1
    38   16   36 1
    39   17   37 1
    40   18   38 1
    41   18   39 1
    42   19   40 1
    43   19   41 1
    44   20   42 1
    45   20   43 1
    46   21   44 1
    47   21   45 1
    48   23   46 1
    49   23   47 1
    50   23   48 1
    51   29   49 1
    52   29   50 1
    53   29   51 1
@<TRIPOS>PROPERTY_DATA
  Total_Score	| 11.3932
  Crash		| -1.2310
  Polar		| 3.9273
  FragIndex	| 1
  FragRMSD	| 0.101

