@<TRIPOS>MOLECULE
BindingDB_12616
 51 53 0 0 0
SMALL
NO_CHARGES


@<TRIPOS>ATOM
1    C         1.9821   29.3040    7.0434  C     
2    C        -0.2438   29.0635    7.8221  C     
3    C        -0.3817   30.4567    8.0668  C     
4    C         0.7583   31.2371    7.7096  C     
5    N         1.8806   30.6456    7.2260  N     
6    N         0.8984   28.5399    7.3283  N     
7    N         0.8283   32.5774    7.8210  N     
8    C        -1.5435   30.9759    8.6824  C     
9    O        -1.6203   32.1584    8.9874  O     
10   C        -2.5872   30.1873    9.1532  C     
11   C        -3.5422   29.6765    8.2402  C     
12   C        -4.5623   28.8143    8.6843  C     
13   C        -4.6594   28.4781   10.0471  C     
14   C        -3.7358   29.0049   10.9663  C     
15   C        -2.6867   29.8384   10.5269  C     
16   N         3.1316   28.7752    6.5542  N     
17   C         3.3181   27.3900    6.2037  C     
18   C         4.5526   27.1833    5.2790  C     
19   C         5.8956   27.1358    6.0504  C     
20   C         4.7819   26.4722    8.1401  C     
21   C         3.4040   26.4338    7.4344  C     
22   N         5.8243   26.2400    7.1762  N     
23   C         6.5331   23.5188    7.9643  C     
24   S         7.0921   25.1817    7.5634  S     
25   O         8.1519   25.0248    6.3813  O     
26   O         7.9103   25.7796    8.7938  O     
27   O        -1.7872   30.3012   11.4537  O     
28   C        -0.8387   29.3023   11.8732  C     
29   F        -5.6001   27.6717   10.4519  F     
30   H        -0.9925   28.4022    8.0301  H     
31   H         1.6485   33.0431    7.5949  H     
32   H         0.0682   33.0871    8.1333  H     
33   H        -3.4825   29.9068    7.2408  H     
34   H        -5.2359   28.4328    8.0173  H     
35   H        -3.8067   28.7594   11.9557  H     
36   H         3.8530   29.3948    6.3490  H     
37   H         2.4487   27.0952    5.6102  H     
38   H         4.4336   26.2368    4.7419  H     
39   H         4.5918   27.9833    4.5341  H     
40   H         6.6708   26.8449    5.3419  H     
41   H         6.1338   28.1405    6.4183  H     
42   H         4.9337   27.4507    8.6077  H     
43   H         4.7743   25.7229    8.9390  H     
44   H         2.6301   26.6684    8.1667  H     
45   H         3.2304   25.4098    7.0976  H     
46   H         5.8266   23.5523    8.7976  H     
47   H         7.3929   22.9032    8.2430  H     
48   H         6.0426   23.0783    7.0898  H     
49   H        -1.3387   28.4421   12.3334  H     
50   H        -0.1807   29.7454   12.6190  H     
51   H        -0.2220   28.9617   11.0359  H     
@<TRIPOS>BOND
     1    1    5 2
     2    1    6 1
     3    1   16 1
     4    2    3 1
     5    2    6 2
     6    3    4 2
     7    3    8 1
     8    4    5 1
     9    4    7 1
    10    8    9 2
    11    8   10 1
    12   10   11 1
    13   10   15 2
    14   11   12 2
    15   12   13 1
    16   13   14 2
    17   13   29 1
    18   14   15 1
    19   15   27 1
    20   16   17 1
    21   17   18 1
    22   17   21 1
    23   18   19 1
    24   19   22 1
    25   20   21 1
    26   20   22 1
    27   22   24 1
    28   23   24 1
    29   24   25 2
    30   24   26 2
    31   27   28 1
    32    2   30 1
    33    7   31 1
    34    7   32 1
    35   11   33 1
    36   12   34 1
    37   14   35 1
    38   16   36 1
    39   17   37 1
    40   18   38 1
    41   18   39 1
    42   19   40 1
    43   19   41 1
    44   20   42 1
    45   20   43 1
    46   21   44 1
    47   21   45 1
    48   23   46 1
    49   23   47 1
    50   23   48 1
    51   28   49 1
    52   28   50 1
    53   28   51 1
@<TRIPOS>PROPERTY_DATA
  Total_Score	| 9.7252
  Crash		| -1.8714
  Polar		| 3.5707
  FragIndex	| 1
  FragRMSD	| 0.545

