@<TRIPOS>MOLECULE
BindingDB_12620
 47 49 0 0 0
SMALL
NO_CHARGES


@<TRIPOS>ATOM
1    C         1.8508   29.7024    7.1338  C     
2    C        -0.1258   29.2775    8.3699  C     
3    C        -0.5851   30.6099    8.1988  C     
4    C         0.2920   31.4647    7.4705  C     
5    N         1.4549   30.9860    6.9571  N     
6    N         1.0551   28.8708    7.8507  N     
7    N         0.0610   32.7755    7.2672  N     
8    C        -1.8349   31.0141    8.7154  C     
9    O        -2.1048   32.2022    8.8293  O     
10   C        -2.8412   30.1340    9.1167  C     
11   C        -3.7878   29.6236    8.1882  C     
12   C        -4.7625   28.6942    8.5996  C     
13   C        -4.8198   28.2741    9.9369  C     
14   C        -3.8896   28.7704   10.8665  C     
15   C        -2.9125   29.7010   10.4650  C     
16   N         3.0248   29.2971    6.5980  N     
17   C         3.6409   28.0212    6.8206  C     
18   C         4.5632   27.6410    5.6321  C     
19   C         5.2844   26.2919    5.8979  C     
20   C         5.2099   26.6968    8.3531  C     
21   C         4.4793   28.0440    8.1305  C     
22   N         5.9360   26.2552    7.1861  N     
23   C         6.5964   23.4391    7.7479  C     
24   S         7.1691   25.1200    7.4384  S     
25   O         8.2037   25.1007    6.2304  O     
26   O         8.0444   25.6158    8.6704  O     
27   F        -3.7640   29.9654    6.9249  F     
28   F        -2.0683   30.1521   11.3609  F     
29   H        -0.6707   28.5858    8.8975  H     
30   H         0.6900   33.3224    6.7724  H     
31   H        -0.7319   33.1970    7.6299  H     
32   H        -5.4265   28.3111    7.9222  H     
33   H        -5.5328   27.6035   10.2321  H     
34   H        -3.9264   28.4533   11.8348  H     
35   H         3.5080   29.9339    6.0510  H     
36   H         2.8649   27.2496    6.8946  H     
37   H         3.9691   27.5625    4.7154  H     
38   H         5.3143   28.4231    5.4807  H     
39   H         4.5552   25.4798    5.8526  H     
40   H         6.0011   26.1401    5.0885  H     
41   H         5.8825   26.8284    9.2056  H     
42   H         4.4760   25.9332    8.6243  H     
43   H         5.2251   28.8425    8.0719  H     
44   H         3.8349   28.2523    8.9869  H     
45   H         5.9031   23.4398    8.5874  H     
46   H         7.4455   22.8006    7.9842  H     
47   H         6.0895   23.0576    6.8619  H     
@<TRIPOS>BOND
     1    1    5 2
     2    1    6 1
     3    1   16 1
     4    2    3 1
     5    2    6 2
     6    3    4 2
     7    3    8 1
     8    4    5 1
     9    4    7 1
    10    8    9 2
    11    8   10 1
    12   10   11 1
    13   10   15 2
    14   11   12 2
    15   11   27 1
    16   12   13 1
    17   13   14 2
    18   14   15 1
    19   15   28 1
    20   16   17 1
    21   17   18 1
    22   17   21 1
    23   18   19 1
    24   19   22 1
    25   20   21 1
    26   20   22 1
    27   22   24 1
    28   23   24 1
    29   24   25 2
    30   24   26 2
    31    2   29 1
    32    7   30 1
    33    7   31 1
    34   12   32 1
    35   13   33 1
    36   14   34 1
    37   16   35 1
    38   17   36 1
    39   18   37 1
    40   18   38 1
    41   19   39 1
    42   19   40 1
    43   20   41 1
    44   20   42 1
    45   21   43 1
    46   21   44 1
    47   23   45 1
    48   23   46 1
    49   23   47 1
@<TRIPOS>PROPERTY_DATA
  Total_Score	| 10.9073
  Crash		| -1.0383
  Polar		| 3.8171
  FragIndex	| 1
  FragRMSD	| 0.259

