@<TRIPOS>MOLECULE
BindingDB_12610
 56 58 0 0 0
SMALL
NO_CHARGES


@<TRIPOS>ATOM
1    C         2.0286   29.5884    7.2661  C     
2    C        -0.1440   29.1496    8.0967  C     
3    C        -0.4702   30.5313    8.1565  C     
4    C         0.5452   31.4047    7.6703  C     
5    N         1.7388   30.9121    7.2533  N     
6    N         1.0702   28.7251    7.6772  N     
7    N         0.4202   32.7437    7.5780  N     
8    C        -1.6999   30.9624    8.6905  C     
9    O        -1.9897   32.1513    8.7708  O     
10   C        -2.6807   30.1124    9.1775  C     
11   C        -3.6524   29.6070    8.2811  C     
12   C        -4.6346   28.7057    8.7297  C     
13   C        -4.6865   28.3368   10.0846  C     
14   C        -3.7404   28.8525   10.9882  C     
15   C        -2.7144   29.7166   10.5410  C     
16   N         3.2553   29.1911    6.8591  N     
17   O        -1.8078   30.2191   11.4440  O     
18   C        -0.7611   29.2999   11.8103  C     
19   C         3.7556   27.8475    6.8057  C     
20   C         4.0827   27.4890    5.3298  C     
21   C         4.8142   26.1210    5.2149  C     
22   C         5.6918   26.3211    7.5009  C     
23   C         5.0374   27.7190    7.6755  C     
24   N         5.9801   26.0366    6.0941  N     
25   C         7.2191   25.6951    5.6731  C     
26   O         8.1695   25.7412    6.4535  O     
27   C         7.6091   25.2141    4.3427  C     
28   C         8.7719   26.0417    3.7221  C     
29   C         8.3061   27.1160    2.7098  C     
30   H        -0.8060   28.4326    8.3918  H     
31   H         1.1602   33.2830    7.2522  H     
32   H        -0.4116   33.1814    7.8115  H     
33   H        -3.6372   29.8719    7.2916  H     
34   H        -5.3176   28.3251    8.0693  H     
35   H        -5.4130   27.6926   10.4113  H     
36   H        -3.7918   28.5838   11.9748  H     
37   H         3.8588   29.8834    6.5457  H     
38   H        -1.1600   28.4182   12.3165  H     
39   H        -0.0863   29.8051   12.5004  H     
40   H        -0.1802   28.9840   10.9424  H     
41   H         3.0206   27.1222    7.1748  H     
42   H         3.1521   27.4331    4.7555  H     
43   H         4.7131   28.2681    4.8868  H     
44   H         4.1192   25.3158    5.4934  H     
45   H         5.0577   25.9915    4.1498  H     
46   H         6.5747   26.2846    8.1505  H     
47   H         5.0031   25.5537    7.8759  H     
48   H         5.7637   28.4835    7.3834  H     
49   H         4.7847   27.8692    8.7300  H     
50   H         7.9416   24.1710    4.4251  H     
51   H         6.7589   25.1905    3.6460  H     
52   H         9.3507   26.5271    4.5194  H     
53   H         9.4471   25.3577    3.1955  H     
54   H         7.8262   26.6418    1.8478  H     
55   H         9.1635   27.6944    2.3552  H     
56   H         7.5967   27.8018    3.1776  H     
@<TRIPOS>BOND
     1    1    5 2
     2    1    6 1
     3    1   16 1
     4    2    3 1
     5    2    6 2
     6    3    4 2
     7    3    8 1
     8    4    5 1
     9    4    7 1
    10    8    9 2
    11    8   10 1
    12   10   11 1
    13   10   15 2
    14   11   12 2
    15   12   13 1
    16   13   14 2
    17   14   15 1
    18   15   17 1
    19   16   19 1
    20   17   18 1
    21   19   20 1
    22   19   23 1
    23   20   21 1
    24   21   24 1
    25   22   23 1
    26   22   24 1
    27   24   25 am
    28   25   26 2
    29   25   27 1
    30   27   28 1
    31   28   29 1
    32    2   30 1
    33    7   31 1
    34    7   32 1
    35   11   33 1
    36   12   34 1
    37   13   35 1
    38   14   36 1
    39   16   37 1
    40   18   38 1
    41   18   39 1
    42   18   40 1
    43   19   41 1
    44   20   42 1
    45   20   43 1
    46   21   44 1
    47   21   45 1
    48   22   46 1
    49   22   47 1
    50   23   48 1
    51   23   49 1
    52   27   50 1
    53   27   51 1
    54   28   52 1
    55   28   53 1
    56   29   54 1
    57   29   55 1
    58   29   56 1
@<TRIPOS>PROPERTY_DATA
  Total_Score	| 9.3806
  Crash		| -0.9694
  Polar		| 2.1328
  FragIndex	| 1
  FragRMSD	| 0.503

