@<TRIPOS>MOLECULE
BindingDB_12605
 46 48 0 0 0
SMALL
NO_CHARGES


@<TRIPOS>ATOM
1    C         1.8659   29.6345    7.1675  C     
2    C        -0.1752   29.1701    8.2732  C     
3    C        -0.5831   30.5314    8.2215  C     
4    C         0.3173   31.4006    7.5453  C     
5    N         1.4971   30.9366    7.0563  N     
6    N         1.0144   28.7702    7.7698  N     
7    N         0.0657   32.7085    7.3441  N     
8    C        -1.7627   30.9543    8.8599  C     
9    O        -1.9496   32.1383    9.1340  O     
10   C        -2.7666   30.0984    9.2733  C     
11   C        -3.6619   29.5709    8.3127  C     
12   C        -4.6919   28.7027    8.7033  C     
13   C        -4.8465   28.3525   10.0573  C     
14   C        -3.9592   28.8700   11.0174  C     
15   C        -2.9129   29.7338   10.6387  C     
16   N         3.0797   29.2662    6.6999  N     
17   O        -2.0826   30.2366   11.6115  O     
18   C        -1.0183   29.3491   12.0021  C     
19   C         3.6834   27.9690    6.7984  C     
20   C         4.2782   27.5608    5.4225  C     
21   C         5.0823   26.2389    5.5297  C     
22   C         5.5708   26.6611    7.9306  C     
23   C         4.7962   28.0020    7.8832  C     
24   N         6.1068   26.3049    6.5975  N     
25   H        -0.7498   28.4601    8.7290  H     
26   H         0.7039   33.2712    6.8776  H     
27   H        -0.7734   33.0940    7.6400  H     
28   H        -3.5647   29.8171    7.3212  H     
29   H        -5.3322   28.3227    8.0031  H     
30   H        -5.6022   27.7257   10.3391  H     
31   H        -4.0731   28.6035   11.9979  H     
32   H         3.6344   29.9687    6.3336  H     
33   H        -1.3954   28.3813   12.3473  H     
34   H        -0.4761   29.8104   12.8285  H     
35   H        -0.3189   29.1938   11.1813  H     
36   H         2.9451   27.2117    7.0832  H     
37   H         3.4698   27.4353    4.6957  H     
38   H         4.9422   28.3502    5.0546  H     
39   H         4.4026   25.4033    5.7215  H     
40   H         5.5883   26.0486    4.5805  H     
41   H         6.4037   26.7480    8.6311  H     
42   H         4.9144   25.8630    8.2884  H     
43   H         5.5033   28.8119    7.6731  H     
44   H         4.3481   28.1900    8.8635  H     
45   H         6.5665   25.3945    6.6641  H     
46   H         6.8083   26.9991    6.3269  H     
@<TRIPOS>BOND
     1    1    5 2
     2    1    6 1
     3    1   16 1
     4    2    3 1
     5    2    6 2
     6    3    4 2
     7    3    8 1
     8    4    5 1
     9    4    7 1
    10    8    9 2
    11    8   10 1
    12   10   11 1
    13   10   15 2
    14   11   12 2
    15   12   13 1
    16   13   14 2
    17   14   15 1
    18   15   17 1
    19   16   19 1
    20   17   18 1
    21   19   20 1
    22   19   23 1
    23   20   21 1
    24   21   24 1
    25   22   23 1
    26   22   24 1
    27    2   25 1
    28    7   26 1
    29    7   27 1
    30   11   28 1
    31   12   29 1
    32   13   30 1
    33   14   31 1
    34   16   32 1
    35   18   33 1
    36   18   34 1
    37   18   35 1
    38   19   36 1
    39   20   37 1
    40   20   38 1
    41   21   39 1
    42   21   40 1
    43   22   41 1
    44   22   42 1
    45   23   43 1
    46   23   44 1
    47   24   45 1
    48   24   46 1
@<TRIPOS>PROPERTY_DATA
  Total_Score	| 8.8014
  Crash		| -0.7389
  Polar		| 2.2662
  FragIndex	| 1
  FragRMSD	| 0.292

