@<TRIPOS>MOLECULE
BindingDB_12624
 51 53 0 0 0
SMALL
NO_CHARGES


@<TRIPOS>ATOM
1    C         1.8591   29.6588    7.0715  C     
2    C        -0.1636   29.1956    8.2173  C     
3    C        -0.5589   30.5556    8.1786  C     
4    C         0.3322   31.4312    7.4973  C     
5    N         1.4941   30.9617    6.9697  N     
6    N         1.0154   28.7952    7.6886  N     
7    N         0.0752   32.7370    7.3103  N     
8    C        -1.7219   30.9890    8.8371  C     
9    O        -1.8211   32.1552    9.1981  O     
10   C        -2.7282   30.1325    9.2629  C     
11   C        -3.6310   29.6049    8.3115  C     
12   C        -4.6418   28.7093    8.7005  C     
13   C        -4.7557   28.3194   10.0461  C     
14   C        -3.8695   28.8442   11.0040  C     
15   C        -2.8467   29.7401   10.6213  C     
16   N         3.0542   29.2684    6.5731  N     
17   C         3.6537   27.9756    6.7479  C     
18   C         4.7057   27.7188    5.6365  C     
19   C         5.4411   26.3662    5.8404  C     
20   C         5.0846   26.5021    8.2896  C     
21   C         4.3542   27.8594    8.1328  C     
22   N         5.9566   26.2141    7.1789  N     
23   C         6.6842   23.4320    7.7990  C     
24   S         7.2189   25.1177    7.4530  S     
25   O         8.2500   25.0816    6.2423  O     
26   O         8.0854   25.6623    8.6711  O     
27   O        -1.9632   30.2014   11.5696  O     
28   C        -0.9092   29.2653   11.8754  C     
29   F        -5.4612   28.2351    7.8047  F     
30   F        -5.6618   27.4484   10.4002  F     
31   F        -3.9690   28.4614   12.2460  F     
32   H        -0.7370   28.4845    8.6771  H     
33   H         0.6997   33.3014    6.8301  H     
34   H        -0.7551   33.1211    7.6310  H     
35   H        -3.5437   29.8579    7.3245  H     
36   H         3.5728   29.9359    6.0996  H     
37   H         2.8764   27.2083    6.6624  H     
38   H         4.2145   27.7202    4.6589  H     
39   H         5.4453   28.5241    5.6395  H     
40   H         4.7501   25.5440    5.6344  H     
41   H         6.2448   26.3196    5.1021  H     
42   H         5.6425   26.5363    9.2312  H     
43   H         4.3419   25.7025    8.3713  H     
44   H         5.0851   28.6673    8.2424  H     
45   H         3.6238   27.9614    8.9387  H     
46   H         6.0421   23.4257    8.6822  H     
47   H         7.5569   22.8024    7.9820  H     
48   H         6.1284   23.0424    6.9437  H     
49   H        -1.3070   28.3280   12.2718  H     
50   H        -0.2714   29.7068   12.6393  H     
51   H        -0.2934   29.0526   11.0003  H     
@<TRIPOS>BOND
     1    1    5 2
     2    1    6 1
     3    1   16 1
     4    2    3 1
     5    2    6 2
     6    3    4 2
     7    3    8 1
     8    4    5 1
     9    4    7 1
    10    8    9 2
    11    8   10 1
    12   10   11 1
    13   10   15 2
    14   11   12 2
    15   12   13 1
    16   12   29 1
    17   13   14 2
    18   13   30 1
    19   14   15 1
    20   14   31 1
    21   15   27 1
    22   16   17 1
    23   17   18 1
    24   17   21 1
    25   18   19 1
    26   19   22 1
    27   20   21 1
    28   20   22 1
    29   22   24 1
    30   23   24 1
    31   24   25 2
    32   24   26 2
    33   27   28 1
    34    2   32 1
    35    7   33 1
    36    7   34 1
    37   11   35 1
    38   16   36 1
    39   17   37 1
    40   18   38 1
    41   18   39 1
    42   19   40 1
    43   19   41 1
    44   20   42 1
    45   20   43 1
    46   21   44 1
    47   21   45 1
    48   23   46 1
    49   23   47 1
    50   23   48 1
    51   28   49 1
    52   28   50 1
    53   28   51 1
@<TRIPOS>PROPERTY_DATA
  Total_Score	| 10.5803
  Crash		| -1.5980
  Polar		| 3.9064
  FragIndex	| 1
  FragRMSD	| 0.124

