@<TRIPOS>MOLECULE
BindingDB_12617
 51 53 0 0 0
SMALL
NO_CHARGES


@<TRIPOS>ATOM
1    C         1.8247   29.6283    6.9557  C     
2    C        -0.1157   29.1396    8.2264  C     
3    C        -0.5336   30.4953    8.2083  C     
4    C         0.2996   31.3808    7.4669  C     
5    N         1.4328   30.9259    6.8696  N     
6    N         1.0351   28.7553    7.6299  N     
7    N         0.0210   32.6866    7.2983  N     
8    C        -1.6528   30.9111    8.9496  C     
9    O        -1.7295   32.0640    9.3575  O     
10   C        -2.6829   30.0655    9.3451  C     
11   C        -3.5627   29.5413    8.3702  C     
12   C        -4.6328   28.7030    8.7447  C     
13   C        -4.8493   28.4034   10.1019  C     
14   C        -3.9880   28.9274   11.0805  C     
15   C        -2.8870   29.7316   10.7100  C     
16   N         2.9948   29.2497    6.3921  N     
17   C         3.6460   27.9883    6.6084  C     
18   C         4.6794   27.7010    5.4857  C     
19   C         5.4516   26.3807    5.7557  C     
20   C         5.1417   26.6605    8.2117  C     
21   C         4.3743   27.9859    7.9824  C     
22   N         5.9852   26.3014    7.0951  N     
23   C         6.6131   23.5021    7.7396  C     
24   S         7.2069   25.1684    7.4022  S     
25   O         8.2585   25.1115    6.2100  O     
26   O         8.0741   25.6740    8.6341  O     
27   O        -2.0208   30.1628   11.6842  O     
28   C        -0.9658   29.2184   11.9575  C     
29   F        -5.4387   28.2253    7.8358  F     
30   H        -0.6451   28.4230    8.7256  H     
31   H         0.6118   33.2580    6.7879  H     
32   H        -0.7875   33.0669    7.6740  H     
33   H        -3.4296   29.7660    7.3811  H     
34   H        -5.6286   27.8024   10.3801  H     
35   H        -4.1502   28.7036   12.0622  H     
36   H         3.4838   29.9192    5.8924  H     
37   H         2.8993   27.1845    6.5886  H     
38   H         4.1621   27.6256    4.5246  H     
39   H         5.3947   28.5264    5.4183  H     
40   H         4.7772   25.5342    5.5962  H     
41   H         6.2518   26.3129    5.0133  H     
42   H         5.7306   26.7814    9.1265  H     
43   H         4.4195   25.8558    8.3842  H     
44   H         5.0842   28.8174    8.0230  H     
45   H         3.6522   28.1229    8.7913  H     
46   H         5.9629   23.5166    8.6150  H     
47   H         7.4603   22.8439    7.9291  H     
48   H         6.0541   23.1332    6.8801  H     
49   H        -1.3613   28.3026   12.4060  H     
50   H        -0.2774   29.6696   12.6722  H     
51   H        -0.3990   28.9619   11.0580  H     
@<TRIPOS>BOND
     1    1    5 2
     2    1    6 1
     3    1   16 1
     4    2    3 1
     5    2    6 2
     6    3    4 2
     7    3    8 1
     8    4    5 1
     9    4    7 1
    10    8    9 2
    11    8   10 1
    12   10   11 1
    13   10   15 2
    14   11   12 2
    15   12   13 1
    16   12   29 1
    17   13   14 2
    18   14   15 1
    19   15   27 1
    20   16   17 1
    21   17   18 1
    22   17   21 1
    23   18   19 1
    24   19   22 1
    25   20   21 1
    26   20   22 1
    27   22   24 1
    28   23   24 1
    29   24   25 2
    30   24   26 2
    31   27   28 1
    32    2   30 1
    33    7   31 1
    34    7   32 1
    35   11   33 1
    36   13   34 1
    37   14   35 1
    38   16   36 1
    39   17   37 1
    40   18   38 1
    41   18   39 1
    42   19   40 1
    43   19   41 1
    44   20   42 1
    45   20   43 1
    46   21   44 1
    47   21   45 1
    48   23   46 1
    49   23   47 1
    50   23   48 1
    51   28   49 1
    52   28   50 1
    53   28   51 1
@<TRIPOS>PROPERTY_DATA
  Total_Score	| 11.0817
  Crash		| -1.3061
  Polar		| 3.9716
  FragIndex	| 1
  FragRMSD	| 0.126

