@<TRIPOS>MOLECULE
BindingDB_12612
 54 56 0 0 0
SMALL
NO_CHARGES


@<TRIPOS>ATOM
1    C         1.9246   29.4909    7.0114  C     
2    C        -0.2193   29.0811    7.9347  C     
3    C        -0.4798   30.4648    8.1312  C     
4    C         0.5590   31.3336    7.6636  C     
5    N         1.6976   30.8235    7.1353  N     
6    N         0.9473   28.6377    7.4075  N     
7    N         0.5186   32.6838    7.7095  N     
8    C        -1.6508   30.9097    8.7786  C     
9    O        -1.8362   32.0895    9.0579  O     
10   C        -2.6641   30.0689    9.2246  C     
11   C        -3.6150   29.5743    8.3051  C     
12   C        -4.6512   28.7224    8.7334  C     
13   C        -4.7719   28.3865   10.0932  C     
14   C        -3.8497   28.9006   11.0235  C     
15   C        -2.7854   29.7239   10.6006  C     
16   N         3.1258   29.0784    6.5478  N     
17   O        -1.8954   30.2037   11.5344  O     
18   C        -0.8776   29.2532   11.9150  C     
19   C         3.5936   27.7218    6.4381  C     
20   C         4.9807   27.7306    5.7304  C     
21   C         5.6095   26.3101    5.6680  C     
22   C         4.4072   25.6277    7.7054  C     
23   C         3.7372   27.0232    7.8207  C     
24   N         5.6378   25.6906    6.9635  N     
25   S         7.0218   24.8807    7.5599  S     
26   O         8.1297   24.8133    6.4290  O     
27   O         7.6845   25.7666    8.7152  O     
28   C         6.7786   23.1466    8.0452  C     
29   C         6.4485   22.9340    9.5409  C     
30   H        -0.8865   28.3665    8.2267  H     
31   H         1.2862   33.2032    7.3985  H     
32   H        -0.2808   33.1379    8.0342  H     
33   H        -3.5446   29.8063    7.3095  H     
34   H        -5.3136   28.3495    8.0573  H     
35   H        -5.5381   27.7856   10.4040  H     
36   H        -3.9539   28.6635   12.0100  H     
37   H         3.7478   29.7762    6.2911  H     
38   H        -1.3095   28.3562   12.3771  H     
39   H        -0.2252   29.7230   12.6534  H     
40   H        -0.2632   28.9590   11.0551  H     
41   H         2.8902   27.1611    5.8071  H     
42   H         4.8787   28.1159    4.7114  H     
43   H         5.6700   28.3846    6.2753  H     
44   H         5.0209   25.6761    4.9997  H     
45   H         6.6028   26.4122    5.2326  H     
46   H         4.5436   25.2672    8.7239  H     
47   H         3.7239   24.9400    7.1969  H     
48   H         4.3388   27.6537    8.4828  H     
49   H         2.7505   26.8994    8.2762  H     
50   H         5.9750   22.7197    7.4343  H     
51   H         7.6946   22.5938    7.8175  H     
52   H         7.2327   23.3849   10.1681  H     
53   H         6.3992   21.8611    9.7543  H     
54   H         5.4867   23.3828    9.7888  H     
@<TRIPOS>BOND
     1    1    5 2
     2    1    6 1
     3    1   16 1
     4    2    3 1
     5    2    6 2
     6    3    4 2
     7    3    8 1
     8    4    5 1
     9    4    7 1
    10    8    9 2
    11    8   10 1
    12   10   11 1
    13   10   15 2
    14   11   12 2
    15   12   13 1
    16   13   14 2
    17   14   15 1
    18   15   17 1
    19   16   19 1
    20   17   18 1
    21   19   20 1
    22   19   23 1
    23   20   21 1
    24   21   24 1
    25   22   23 1
    26   22   24 1
    27   24   25 1
    28   25   26 2
    29   25   27 2
    30   25   28 1
    31   28   29 1
    32    2   30 1
    33    7   31 1
    34    7   32 1
    35   11   33 1
    36   12   34 1
    37   13   35 1
    38   14   36 1
    39   16   37 1
    40   18   38 1
    41   18   39 1
    42   18   40 1
    43   19   41 1
    44   20   42 1
    45   20   43 1
    46   21   44 1
    47   21   45 1
    48   22   46 1
    49   22   47 1
    50   23   48 1
    51   23   49 1
    52   28   50 1
    53   28   51 1
    54   29   52 1
    55   29   53 1
    56   29   54 1
@<TRIPOS>PROPERTY_DATA
  Total_Score	| 10.7143
  Crash		| -0.9202
  Polar		| 3.8455
  FragIndex	| 1
  FragRMSD	| 0.417

