@<TRIPOS>MOLECULE
BindingDB_12619
 51 53 0 0 0
SMALL
NO_CHARGES


@<TRIPOS>ATOM
1    C         1.9648   29.3565    7.0930  C     
2    C        -0.2359   29.0753    7.9437  C     
3    C        -0.4059   30.4686    8.1505  C     
4    C         0.7075   31.2705    7.7550  C     
5    N         1.8312   30.6928    7.2519  N     
6    N         0.9100   28.5727    7.4350  N     
7    N         0.7351   32.6130    7.8295  N     
8    C        -1.5796   30.9651    8.7540  C     
9    O        -1.7052   32.1619    8.9982  O     
10   C        -2.6315   30.1642    9.1969  C     
11   C        -3.5867   29.6540    8.2776  C     
12   C        -4.6141   28.7958    8.7226  C     
13   C        -4.7315   28.4793   10.0839  C     
14   C        -3.8025   28.9940   11.0047  C     
15   C        -2.7394   29.8131   10.5697  C     
16   N         3.1091   28.8262    6.5918  N     
17   C         3.2908   27.4263    6.2901  C     
18   C         4.4862   27.1720    5.3249  C     
19   C         5.8563   27.1406    6.0449  C     
20   C         4.8196   26.5305    8.1938  C     
21   C         3.4066   26.5177    7.5543  C     
22   N         5.8211   26.2670    7.1896  N     
23   C         6.5302   23.5300    7.9287  C     
24   S         7.0949   25.2039    7.5505  S     
25   O         8.1436   25.0627    6.3634  O     
26   O         7.9267   25.7805    8.7797  O     
27   O        -1.8434   30.2735   11.5048  O     
28   C        -0.8557   29.2947   11.8764  C     
29   F        -3.5359   29.9441    7.0027  F     
30   H        -0.9588   28.4033    8.1978  H     
31   H         1.5340   33.1005    7.5634  H     
32   H        -0.0413   33.1094    8.1307  H     
33   H        -5.2913   28.4157    8.0544  H     
34   H        -5.4915   27.8684   10.4026  H     
35   H        -3.8944   28.7548   11.9967  H     
36   H         3.8144   29.4426    6.3436  H     
37   H         2.4028   27.1133    5.7342  H     
38   H         4.3332   26.2001    4.8441  H     
39   H         4.4970   27.9360    4.5386  H     
40   H         6.6022   26.8227    5.3169  H     
41   H         6.1133   28.1511    6.3748  H     
42   H         5.0125   27.5074    8.6504  H     
43   H         4.8349   25.7840    8.9944  H     
44   H         2.6753   26.8104    8.3117  H     
45   H         3.1757   25.4877    7.2613  H     
46   H         5.8524   23.5540    8.7800  H     
47   H         7.3928   22.9033    8.1668  H     
48   H         6.0099   23.1228    7.0618  H     
49   H        -1.3164   28.4100   12.3231  H     
50   H        -0.1947   29.7387   12.6209  H     
51   H        -0.2448   28.9915   11.0198  H     
@<TRIPOS>BOND
     1    1    5 2
     2    1    6 1
     3    1   16 1
     4    2    3 1
     5    2    6 2
     6    3    4 2
     7    3    8 1
     8    4    5 1
     9    4    7 1
    10    8    9 2
    11    8   10 1
    12   10   11 1
    13   10   15 2
    14   11   12 2
    15   11   29 1
    16   12   13 1
    17   13   14 2
    18   14   15 1
    19   15   27 1
    20   16   17 1
    21   17   18 1
    22   17   21 1
    23   18   19 1
    24   19   22 1
    25   20   21 1
    26   20   22 1
    27   22   24 1
    28   23   24 1
    29   24   25 2
    30   24   26 2
    31   27   28 1
    32    2   30 1
    33    7   31 1
    34    7   32 1
    35   12   33 1
    36   13   34 1
    37   14   35 1
    38   16   36 1
    39   17   37 1
    40   18   38 1
    41   18   39 1
    42   19   40 1
    43   19   41 1
    44   20   42 1
    45   20   43 1
    46   21   44 1
    47   21   45 1
    48   23   46 1
    49   23   47 1
    50   23   48 1
    51   28   49 1
    52   28   50 1
    53   28   51 1
@<TRIPOS>PROPERTY_DATA
  Total_Score	| 9.9053
  Crash		| -1.7846
  Polar		| 3.5603
  FragIndex	| 1
  FragRMSD	| 0.495

