@<TRIPOS>MOLECULE
BindingDB_12622
 51 53 0 0 0
SMALL
NO_CHARGES


@<TRIPOS>ATOM
1    C         1.8753   29.6658    7.1705  C     
2    C        -0.0292   29.2474    8.5210  C     
3    C        -0.4990   30.5731    8.3534  C     
4    C         0.3082   31.4156    7.5431  C     
5    N         1.4512   30.9413    6.9799  N     
6    N         1.1239   28.8411    7.9431  N     
7    N        -0.0156   32.6954    7.2853  N     
8    C        -1.6498   31.0181    9.0156  C     
9    O        -1.6521   32.1434    9.4887  O     
10   C        -2.6642   30.1569    9.4147  C     
11   C        -3.5404   29.6181    8.4420  C     
12   C        -4.5645   28.7241    8.8126  C     
13   C        -4.7060   28.3369   10.1572  C     
14   C        -3.8408   28.8670   11.1319  C     
15   C        -2.8179   29.7666   10.7697  C     
16   N         3.0339   29.2602    6.6006  N     
17   C         3.6741   27.9953    6.8253  C     
18   C         4.6517   27.6635    5.6646  C     
19   C         5.4071   26.3319    5.9252  C     
20   C         5.2160   26.6687    8.3852  C     
21   C         4.4671   28.0060    8.1636  C     
22   N         6.0007   26.2704    7.2403  N     
23   C         6.6179   23.4783    7.9381  C     
24   S         7.2181   25.1238    7.5143  S     
25   O         8.2087   25.0161    6.2741  O     
26   O         8.1504   25.6572    8.6875  O     
27   O        -2.0160   30.2493   11.7701  O     
28   C        -0.8584   29.4446   12.0672  C     
29   F        -5.3746   28.2542    7.9036  F     
30   F        -5.6245   27.4805   10.5119  F     
31   H        -0.5209   28.5815    9.1240  H     
32   H         0.5598   33.2540    6.7433  H     
33   H        -0.8331   33.0736    7.6442  H     
34   H        -3.4425   29.8776    7.4552  H     
35   H        -3.9484   28.5898   12.1116  H     
36   H         3.4952   29.8949    6.0317  H     
37   H         2.9119   27.2075    6.8552  H     
38   H         4.0936   27.5855    4.7260  H     
39   H         5.3829   28.4716    5.5540  H     
40   H         4.7088   25.4970    5.8156  H     
41   H         6.1705   26.2328    5.1487  H     
42   H         5.8484   26.7947    9.2696  H     
43   H         4.4871   25.8826    8.6058  H     
44   H         5.1973   28.8228    8.1495  H     
45   H         3.7893   28.1767    9.0051  H     
46   H         6.0754   23.5206    8.8829  H     
47   H         7.4623   22.7942    8.0361  H     
48   H         5.9507   23.1199    7.1528  H     
49   H        -1.0590   28.3690   12.0415  H     
50   H        -0.5255   29.7004   13.0724  H     
51   H        -0.0515   29.6824   11.3750  H     
@<TRIPOS>BOND
     1    1    5 2
     2    1    6 1
     3    1   16 1
     4    2    3 1
     5    2    6 2
     6    3    4 2
     7    3    8 1
     8    4    5 1
     9    4    7 1
    10    8    9 2
    11    8   10 1
    12   10   11 1
    13   10   15 2
    14   11   12 2
    15   12   13 1
    16   12   29 1
    17   13   14 2
    18   13   30 1
    19   14   15 1
    20   15   27 1
    21   16   17 1
    22   17   18 1
    23   17   21 1
    24   18   19 1
    25   19   22 1
    26   20   21 1
    27   20   22 1
    28   22   24 1
    29   23   24 1
    30   24   25 2
    31   24   26 2
    32   27   28 1
    33    2   31 1
    34    7   32 1
    35    7   33 1
    36   11   34 1
    37   14   35 1
    38   16   36 1
    39   17   37 1
    40   18   38 1
    41   18   39 1
    42   19   40 1
    43   19   41 1
    44   20   42 1
    45   20   43 1
    46   21   44 1
    47   21   45 1
    48   23   46 1
    49   23   47 1
    50   23   48 1
    51   28   49 1
    52   28   50 1
    53   28   51 1
@<TRIPOS>PROPERTY_DATA
  Total_Score	| 11.3642
  Crash		| -1.2117
  Polar		| 3.8945
  FragIndex	| 1
  FragRMSD	| 0.123

