@<TRIPOS>MOLECULE
BindingDB_12623
 51 53 0 0 0
SMALL
NO_CHARGES


@<TRIPOS>ATOM
1    C         1.7885   29.6270    6.9904  C     
2    C        -0.1497   29.1615    8.2691  C     
3    C        -0.5291   30.5288    8.2854  C     
4    C         0.3103   31.4042    7.5448  C     
5    N         1.4277   30.9323    6.9314  N     
6    N         0.9818   28.7577    7.6488  N     
7    N         0.0529   32.7144    7.3976  N     
8    C        -1.6371   30.9697    9.0353  C     
9    O        -1.6257   32.0868    9.5382  O     
10   C        -2.6804   30.1307    9.4153  C     
11   C        -3.5590   29.5968    8.4350  C     
12   C        -4.5798   28.6944    8.8016  C     
13   C        -4.7414   28.3307   10.1519  C     
14   C        -3.8956   28.8748   11.1337  C     
15   C        -2.8526   29.7563   10.7758  C     
16   N         2.9477   29.2386    6.4089  N     
17   C         3.5487   27.9364    6.5157  C     
18   C         4.7517   27.8348    5.5392  C     
19   C         5.5037   26.4843    5.6813  C     
20   C         4.8184   26.3199    8.0616  C     
21   C         4.0568   27.6619    7.9645  C     
22   N         5.8405   26.1938    7.0545  N     
23   C         6.6451   23.4046    7.6311  C     
24   S         7.1229   25.1293    7.3764  S     
25   O         8.2385   25.1740    6.2407  O     
26   O         7.8962   25.6617    8.6633  O     
27   O        -2.0380   30.2355   11.7725  O     
28   C        -0.9282   29.3738   12.0826  C     
29   F        -5.3710   28.1926    7.8903  F     
30   F        -5.6693   27.4817   10.5059  F     
31   F        -3.4470   29.9343    7.1743  F     
32   H        -0.6906   28.4508    8.7615  H     
33   H         0.6428   33.2879    6.8828  H     
34   H        -0.7519   33.0937    7.7840  H     
35   H        -4.0192   28.6050   12.1108  H     
36   H         3.4384   29.9099    5.9130  H     
37   H         2.8133   27.1778    6.2328  H     
38   H         4.3999   27.9422    4.5082  H     
39   H         5.4529   28.6492    5.7371  H     
40   H         4.8842   25.6717    5.2921  H     
41   H         6.4014   26.5450    5.0652  H     
42   H         5.2461   26.2563    9.0683  H     
43   H         4.1100   25.4926    7.9465  H     
44   H         4.7257   28.4709    8.2761  H     
45   H         3.2151   27.6343    8.6594  H     
46   H         5.9902   23.3350    8.5025  H     
47   H         7.5408   22.8005    7.7948  H     
48   H         6.1174   23.0378    6.7493  H     
49   H        -1.2608   28.3662   12.3510  H     
50   H        -0.4063   29.7904   12.9437  H     
51   H        -0.2257   29.3197   11.2499  H     
@<TRIPOS>BOND
     1    1    5 2
     2    1    6 1
     3    1   16 1
     4    2    3 1
     5    2    6 2
     6    3    4 2
     7    3    8 1
     8    4    5 1
     9    4    7 1
    10    8    9 2
    11    8   10 1
    12   10   11 1
    13   10   15 2
    14   11   12 2
    15   11   31 1
    16   12   13 1
    17   12   29 1
    18   13   14 2
    19   13   30 1
    20   14   15 1
    21   15   27 1
    22   16   17 1
    23   17   18 1
    24   17   21 1
    25   18   19 1
    26   19   22 1
    27   20   21 1
    28   20   22 1
    29   22   24 1
    30   23   24 1
    31   24   25 2
    32   24   26 2
    33   27   28 1
    34    2   32 1
    35    7   33 1
    36    7   34 1
    37   14   35 1
    38   16   36 1
    39   17   37 1
    40   18   38 1
    41   18   39 1
    42   19   40 1
    43   19   41 1
    44   20   42 1
    45   20   43 1
    46   21   44 1
    47   21   45 1
    48   23   46 1
    49   23   47 1
    50   23   48 1
    51   28   49 1
    52   28   50 1
    53   28   51 1
@<TRIPOS>PROPERTY_DATA
  Total_Score	| 10.8109
  Crash		| -1.2401
  Polar		| 4.0485
  FragIndex	| 1
  FragRMSD	| 0.157

