@<TRIPOS>MOLECULE
BindingDB_50382585
 47 49 0 0 0
SMALL
NO_CHARGES


@<TRIPOS>ATOM
1    C       -14.1463    5.3453  -43.4921  C     
2    N       -14.8206    6.5366  -42.9406  N     
3    C       -15.1354    4.1511  -43.6279  C     
4    S       -15.9623    3.7932  -42.0436  S     
5    C       -17.0424    2.3311  -42.3088  C     
6    C       -16.2498    1.1159  -42.7600  C     
7    C       -18.0593    2.8997  -43.2936  C     
8    C       -17.6777    1.8465  -41.0116  C     
9    C       -16.9004    0.0041  -43.3675  C     
10   C       -16.1866   -1.1426  -43.7537  C     
11   C       -14.8050   -1.2145  -43.5264  C     
12   C       -14.1444   -0.1645  -42.8708  C     
13   C       -14.8761    0.9709  -42.4529  C     
14   C       -18.8582    1.0515  -41.0364  C     
15   C       -19.4042    0.4915  -39.8620  C     
16   C       -18.7916    0.7092  -38.6170  C     
17   C       -17.6156    1.4733  -38.5593  C     
18   C       -17.0564    2.0123  -39.7361  C     
19   C       -17.9780    2.6930  -44.6969  C     
20   C       -18.9211    3.2455  -45.5823  C     
21   C       -19.9597    4.0525  -45.0961  C     
22   C       -20.0388    4.3175  -43.7164  C     
23   C       -19.0984    3.7609  -42.8359  C     
24   C       -13.4989    5.6830  -44.7758  C     
25   O       -12.4168    6.4990  -44.7560  O     
26   O       -14.2007    5.6642  -45.9341  O     
27   Cl      -12.4810   -0.2618  -42.5874  Cl    
28   H       -13.3555    5.0592  -42.7908  H     
29   H       -15.6609    6.7267  -43.4895  H     
30   H       -14.1922    7.3449  -42.9836  H     
31   H       -15.0819    6.3665  -41.9681  H     
32   H       -15.8808    4.4014  -44.3864  H     
33   H       -14.5924    3.2576  -43.9440  H     
34   H       -17.9031    0.0193  -43.5336  H     
35   H       -16.6772   -1.9148  -44.2116  H     
36   H       -14.2948   -2.0510  -43.8222  H     
37   H       -14.4096    1.7078  -41.9172  H     
38   H       -19.3314    0.8517  -41.9193  H     
39   H       -20.2670   -0.0575  -39.9107  H     
40   H       -19.1777    0.2896  -37.7690  H     
41   H       -17.1503    1.6235  -37.6648  H     
42   H       -16.1816    2.5356  -39.6451  H     
43   H       -17.2120    2.1467  -45.1012  H     
44   H       -18.8359    3.0779  -46.5872  H     
45   H       -20.6413    4.4682  -45.7339  H     
46   H       -20.7857    4.9151  -43.3543  H     
47   H       -19.1597    4.0073  -41.8390  H     
@<TRIPOS>BOND
     1    1    2 1
     2    1    3 1
     3    1   24 1
     4    3    4 1
     5    4    5 1
     6    5    6 1
     7    5    7 1
     8    5    8 1
     9    6    9 2
    10    6   13 1
    11    7   19 2
    12    7   23 1
    13    8   14 2
    14    8   18 1
    15    9   10 1
    16   10   11 2
    17   11   12 1
    18   12   13 2
    19   12   27 1
    20   14   15 1
    21   15   16 2
    22   16   17 1
    23   17   18 2
    24   19   20 1
    25   20   21 2
    26   21   22 1
    27   22   23 2
    28   24   25 2
    29   24   26 1
    30    1   28 1
    31    2   29 1
    32    2   30 1
    33    2   31 1
    34    3   32 1
    35    3   33 1
    36    9   34 1
    37   10   35 1
    38   11   36 1
    39   13   37 1
    40   14   38 1
    41   15   39 1
    42   16   40 1
    43   17   41 1
    44   18   42 1
    45   19   43 1
    46   20   44 1
    47   21   45 1
    48   22   46 1
    49   23   47 1
@<TRIPOS>PROPERTY_DATA
  Total_Score	| 8.6046
  Crash		| -1.4224
  Polar		| 3.7649
  FragIndex	| 1
  FragRMSD	| 0.446

