@<TRIPOS>MOLECULE
BindingDB_23830
 56 58 0 0 0
SMALL
NO_CHARGES


@<TRIPOS>ATOM
1    C       -17.4975    1.9711  -41.2942  C     
2    C       -19.1461    0.6112  -40.0561  C     
3    C       -18.3875    0.7037  -38.8766  C     
4    C       -17.1841    1.4331  -38.8986  C     
5    C       -16.7404    2.0335  -40.0884  C     
6    C       -18.7026    1.2272  -41.2419  C     
7    C       -15.9495    1.3374  -42.9796  C     
8    C       -14.5450    1.3576  -42.7221  C     
9    C       -13.7221    0.2630  -43.0307  C     
10   C       -14.2656   -0.9147  -43.5873  C     
11   C       -15.6573   -0.9704  -43.8251  C     
12   C       -16.4742    0.1405  -43.5398  C     
13   C       -15.1365    4.4943  -43.7337  C     
14   C       -16.8938    2.4756  -42.5981  C     
15   C       -17.8961    2.8591  -43.6795  C     
16   C       -19.6846    3.8816  -45.6880  C     
17   C       -18.4689    3.2649  -46.0522  C     
18   C       -17.6004    2.7602  -45.0672  C     
19   C       -19.1214    3.4969  -43.3427  C     
20   C       -20.0116    3.9710  -44.3213  C     
21   C       -14.1495    5.6650  -43.4517  C     
22   C       -13.3801    6.1082  -44.6356  C     
23   O       -13.9259    6.1900  -45.8726  O     
24   S       -16.0845    4.0936  -42.2325  S     
25   N       -14.8794    6.8222  -42.8898  N     
26   O       -12.1617    6.6620  -44.4560  O     
27   C       -18.8413   -0.0054  -37.6637  C     
28   C       -20.5560    4.4638  -46.7358  C     
29   C       -13.3764   -2.0529  -43.8910  C     
30   H       -19.9971    0.0380  -40.0771  H     
31   H       -16.5878    1.4856  -38.0647  H     
32   H       -15.8320    2.5044  -40.0643  H     
33   H       -19.2550    1.0680  -42.0880  H     
34   H       -14.0986    2.1636  -42.2802  H     
35   H       -12.7154    0.3338  -42.8510  H     
36   H       -16.0839   -1.8147  -44.2087  H     
37   H       -17.4766    0.0598  -43.7352  H     
38   H       -15.8417    4.7773  -44.5199  H     
39   H       -14.5672    3.6213  -44.0746  H     
40   H       -18.2018    3.1963  -47.0401  H     
41   H       -16.7148    2.3619  -45.3907  H     
42   H       -19.3717    3.6360  -42.3615  H     
43   H       -20.8841    4.4225  -44.0270  H     
44   H       -13.4175    5.3318  -42.7081  H     
45   H       -15.6560    7.0712  -43.5171  H     
46   H       -14.2437    7.6226  -42.7982  H     
47   H       -15.2524    6.5827  -41.9680  H     
48   H       -19.8401    0.3366  -37.3859  H     
49   H       -18.1660    0.1562  -36.8168  H     
50   H       -18.8752   -1.0672  -37.8743  H     
51   H       -20.0297    5.2943  -47.2184  H     
52   H       -21.4932    4.8413  -46.3267  H     
53   H       -20.7951    3.7154  -47.4953  H     
54   H       -12.6839   -1.7666  -44.6853  H     
55   H       -13.9381   -2.9366  -44.2205  H     
56   H       -12.7934   -2.3227  -42.9971  H     
@<TRIPOS>BOND
     1    1    5 2
     2    1    6 1
     3    1   14 1
     4    2    3 1
     5    2    6 2
     6    3    4 2
     7    3   27 1
     8    4    5 1
     9    7    8 1
    10    7   12 2
    11    7   14 1
    12    8    9 2
    13    9   10 1
    14   10   11 2
    15   10   29 1
    16   11   12 1
    17   13   21 1
    18   13   24 1
    19   14   15 1
    20   14   24 1
    21   15   18 2
    22   15   19 1
    23   16   17 2
    24   16   20 1
    25   16   28 1
    26   17   18 1
    27   19   20 2
    28   21   22 1
    29   21   25 1
    30   22   23 2
    31   22   26 1
    32    2   30 1
    33    4   31 1
    34    5   32 1
    35    6   33 1
    36    8   34 1
    37    9   35 1
    38   11   36 1
    39   12   37 1
    40   13   38 1
    41   13   39 1
    42   17   40 1
    43   18   41 1
    44   19   42 1
    45   20   43 1
    46   21   44 1
    47   25   45 1
    48   25   46 1
    49   25   47 1
    50   27   48 1
    51   27   49 1
    52   27   50 1
    53   28   51 1
    54   28   52 1
    55   28   53 1
    56   29   54 1
    57   29   55 1
    58   29   56 1
@<TRIPOS>PROPERTY_DATA
  Total_Score	| 8.3370
  Crash		| -2.7973
  Polar		| 3.6612
  FragIndex	| 1
  FragRMSD	| 0.653

