@<TRIPOS>MOLECULE
BindingDB_50339676
 53 55 0 0 0
SMALL
NO_CHARGES


@<TRIPOS>ATOM
1    C       -17.0438    2.3000  -42.4555  C     
2    S       -16.0787    3.8227  -42.0918  S     
3    C       -16.2342    1.0986  -42.9335  C     
4    C       -18.0632    2.8041  -43.4736  C     
5    C       -17.6002    1.8022  -41.1278  C     
6    C       -17.8625    2.6841  -44.8739  C     
7    C       -18.7467    3.2593  -45.8099  C     
8    C       -19.8766    3.9831  -45.3849  C     
9    C       -20.0926    4.1200  -43.9968  C     
10   C       -19.1890    3.5713  -43.0667  C     
11   C       -14.8373    0.9491  -42.7147  C     
12   C       -14.1548   -0.2306  -43.0764  C     
13   C       -14.8534   -1.2997  -43.6643  C     
14   C       -16.2356   -1.1895  -43.8817  C     
15   C       -16.9129   -0.0077  -43.5199  C     
16   C       -18.8429    1.1236  -41.0245  C     
17   C       -19.2888    0.5684  -39.8107  C     
18   C       -18.4999    0.6669  -38.6579  C     
19   C       -17.2515    1.3012  -38.7276  C     
20   C       -16.8045    1.8380  -39.9480  C     
21   C       -15.3583    4.3082  -43.6849  C     
22   C       -14.2721    5.4027  -43.4860  C     
23   C       -13.5295    5.7337  -44.7156  C     
24   O       -12.3651    6.4045  -44.5969  O     
25   O       -14.1315    5.7898  -45.9243  O     
26   N       -14.8982    6.6272  -42.9581  N     
27   C       -20.7993    4.5921  -46.3848  C     
28   C       -20.2366    5.9015  -46.9928  C     
29   H       -17.0393    2.2046  -45.2436  H     
30   H       -18.5460    3.1562  -46.8079  H     
31   H       -20.8916    4.6543  -43.6527  H     
32   H       -19.3506    3.7568  -42.0746  H     
33   H       -14.2945    1.6808  -42.2574  H     
34   H       -13.1484   -0.3097  -42.9139  H     
35   H       -14.3585   -2.1600  -43.9253  H     
36   H       -16.7553   -1.9685  -44.2894  H     
37   H       -17.9202    0.0321  -43.6765  H     
38   H       -19.4318    0.9923  -41.8462  H     
39   H       -20.1727    0.0615  -39.7742  H     
40   H       -18.8231    0.2527  -37.7783  H     
41   H       -16.6516    1.3444  -37.9025  H     
42   H       -15.8678    2.2452  -39.9761  H     
43   H       -14.9246    3.4398  -44.1986  H     
44   H       -16.1734    4.7138  -44.3024  H     
45   H       -13.5505    5.0472  -42.7525  H     
46   H       -15.6855    6.8797  -43.5513  H     
47   H       -14.2242    7.3949  -42.9427  H     
48   H       -15.2357    6.4588  -42.0097  H     
49   H       -20.9944    3.8776  -47.1921  H     
50   H       -21.7669    4.8232  -45.9303  H     
51   H       -20.0740    6.6424  -46.2031  H     
52   H       -20.9485    6.3132  -47.7099  H     
53   H       -19.2909    5.7120  -47.5122  H     
@<TRIPOS>BOND
     1    1    2 1
     2    1    3 1
     3    1    4 1
     4    1    5 1
     5    2   21 1
     6    3   11 2
     7    3   15 1
     8    4    6 2
     9    4   10 1
    10    5   16 2
    11    5   20 1
    12    6    7 1
    13    7    8 2
    14    8    9 1
    15    8   27 1
    16    9   10 2
    17   11   12 1
    18   12   13 2
    19   13   14 1
    20   14   15 2
    21   16   17 1
    22   17   18 2
    23   18   19 1
    24   19   20 2
    25   21   22 1
    26   22   23 1
    27   22   26 1
    28   23   24 1
    29   23   25 2
    30   27   28 1
    31    6   29 1
    32    7   30 1
    33    9   31 1
    34   10   32 1
    35   11   33 1
    36   12   34 1
    37   13   35 1
    38   14   36 1
    39   15   37 1
    40   16   38 1
    41   17   39 1
    42   18   40 1
    43   19   41 1
    44   20   42 1
    45   21   43 1
    46   21   44 1
    47   22   45 1
    48   26   46 1
    49   26   47 1
    50   26   48 1
    51   27   49 1
    52   27   50 1
    53   28   51 1
    54   28   52 1
    55   28   53 1
@<TRIPOS>PROPERTY_DATA
  Total_Score	| 10.6000
  Crash		| -1.7084
  Polar		| 3.7330
  FragIndex	| 1
  FragRMSD	| 0.535

