@<TRIPOS>MOLECULE
BindingDB_50382556
 47 49 0 0 0
SMALL
NO_CHARGES


@<TRIPOS>ATOM
1    C       -14.3201    5.5150  -43.4006  C     
2    N       -15.0125    6.6657  -42.8043  N     
3    C       -15.3279    4.3382  -43.5435  C     
4    S       -16.0381    3.7988  -41.9468  S     
5    C       -16.9790    2.2609  -42.3108  C     
6    C       -16.1907    1.0352  -42.8041  C     
7    C       -18.0268    2.7902  -43.3011  C     
8    C       -17.5732    1.7690  -40.9921  C     
9    C       -16.9683   -0.0235  -43.3648  C     
10   C       -16.4121   -1.2285  -43.8015  C     
11   C       -15.0287   -1.4450  -43.6801  C     
12   C       -14.2274   -0.4357  -43.1442  C     
13   C       -14.7833    0.7771  -42.6739  C     
14   C       -16.8628    1.8770  -39.7607  C     
15   C       -17.3871    1.3924  -38.5467  C     
16   C       -18.6311    0.7397  -38.5292  C     
17   C       -19.3293    0.5507  -39.7341  C     
18   C       -18.8168    1.0657  -40.9369  C     
19   C       -17.8952    2.6346  -44.7147  C     
20   C       -18.8177    3.1916  -45.6175  C     
21   C       -19.8875    3.9610  -45.1406  C     
22   C       -20.0326    4.1722  -43.7608  C     
23   C       -19.1082    3.5999  -42.8632  C     
24   C       -13.7197    5.8724  -44.7051  C     
25   O       -13.5837    7.1536  -45.1033  O     
26   O       -13.2366    4.9147  -45.5234  O     
27   Cl      -13.6051    1.7808  -41.9581  Cl    
28   H       -13.5044    5.2239  -42.7349  H     
29   H       -15.7754    6.9204  -43.4234  H     
30   H       -14.3691    7.4527  -42.6981  H     
31   H       -15.3833    6.4194  -41.8878  H     
32   H       -16.1775    4.6721  -44.1771  H     
33   H       -14.8344    3.4742  -44.0288  H     
34   H       -17.9741    0.0818  -43.4910  H     
35   H       -17.0106   -1.9595  -44.1885  H     
36   H       -14.6172   -2.3308  -43.9816  H     
37   H       -13.2219   -0.6118  -43.0664  H     
38   H       -15.9390    2.3166  -39.7198  H     
39   H       -16.8492    1.5085  -37.6738  H     
40   H       -19.0041    0.3795  -37.6511  H     
41   H       -20.2177    0.0450  -39.7301  H     
42   H       -19.3600    0.9041  -41.7813  H     
43   H       -17.1013    2.1335  -45.1057  H     
44   H       -18.7068    3.0460  -46.6212  H     
45   H       -20.5553    4.3787  -45.7955  H     
46   H       -20.7865    4.7661  -43.4217  H     
47   H       -19.2223    3.8092  -41.8634  H     
@<TRIPOS>BOND
     1    1    2 1
     2    1    3 1
     3    1   24 1
     4    3    4 1
     5    4    5 1
     6    5    6 1
     7    5    7 1
     8    5    8 1
     9    6    9 2
    10    6   13 1
    11    7   19 2
    12    7   23 1
    13    8   14 2
    14    8   18 1
    15    9   10 1
    16   10   11 2
    17   11   12 1
    18   12   13 2
    19   13   27 1
    20   14   15 1
    21   15   16 2
    22   16   17 1
    23   17   18 2
    24   19   20 1
    25   20   21 2
    26   21   22 1
    27   22   23 2
    28   24   25 2
    29   24   26 1
    30    1   28 1
    31    2   29 1
    32    2   30 1
    33    2   31 1
    34    3   32 1
    35    3   33 1
    36    9   34 1
    37   10   35 1
    38   11   36 1
    39   12   37 1
    40   14   38 1
    41   15   39 1
    42   16   40 1
    43   17   41 1
    44   18   42 1
    45   19   43 1
    46   20   44 1
    47   21   45 1
    48   22   46 1
    49   23   47 1
@<TRIPOS>PROPERTY_DATA
  Total_Score	| 7.8783
  Crash		| -1.4994
  Polar		| 2.6075
  FragIndex	| 1
  FragRMSD	| 0.280

