@<TRIPOS>MOLECULE
BindingDB_50339674
 56 58 0 0 0
SMALL
NO_CHARGES


@<TRIPOS>ATOM
1    C       -17.0446    2.3621  -42.3801  C     
2    S       -16.0578    3.8951  -42.0814  S     
3    C       -16.1807    1.1607  -42.7374  C     
4    C       -17.9914    2.8429  -43.4775  C     
5    C       -17.7764    1.8844  -41.1219  C     
6    C       -19.1328    3.6263  -43.1818  C     
7    C       -19.9861    4.1130  -44.1947  C     
8    C       -19.7053    3.8807  -45.5631  C     
9    C       -18.5247    3.1699  -45.8737  C     
10   C       -17.7002    2.6560  -44.8619  C     
11   C       -16.7247    0.0319  -43.4194  C     
12   C       -15.9588   -1.1043  -43.7121  C     
13   C       -14.6136   -1.1709  -43.3130  C     
14   C       -14.0581   -0.0997  -42.5951  C     
15   C       -14.8312    1.0378  -42.3039  C     
16   C       -18.8408    0.9446  -41.2304  C     
17   C       -19.4923    0.4127  -40.1035  C     
18   C       -19.1178    0.8084  -38.8073  C     
19   C       -18.0524    1.7106  -38.6602  C     
20   C       -17.4035    2.2422  -39.7870  C     
21   C       -15.2323    4.2783  -43.6427  C     
22   C       -14.1274    5.3569  -43.4779  C     
23   C       -13.3357    5.5275  -44.7198  C     
24   O       -12.0491    5.0986  -44.7782  O     
25   O       -13.8661    6.0945  -45.8284  O     
26   N       -14.7033    6.6531  -43.0823  N     
27   C       -20.5998    4.4585  -46.6294  C     
28   C       -20.1403    5.8975  -46.9825  C     
29   C       -20.7410    3.5865  -47.9168  C     
30   H       -19.3499    3.8744  -42.2152  H     
31   H       -20.8017    4.6704  -43.9251  H     
32   H       -18.2335    3.0285  -46.8431  H     
33   H       -16.8417    2.1789  -45.1495  H     
34   H       -17.6977    0.0281  -43.7243  H     
35   H       -16.3824   -1.8880  -44.2078  H     
36   H       -14.0516   -1.9946  -43.5347  H     
37   H       -13.0865   -0.1527  -42.2770  H     
38   H       -14.3902    1.7843  -41.7565  H     
39   H       -19.1555    0.6317  -42.1470  H     
40   H       -20.2539   -0.2622  -40.2245  H     
41   H       -19.6062    0.4328  -37.9893  H     
42   H       -17.7496    1.9729  -37.7200  H     
43   H       -16.6176    2.8837  -39.6040  H     
44   H       -14.7860    3.3727  -44.0674  H     
45   H       -15.9681    4.6692  -44.3532  H     
46   H       -13.4559    5.0366  -42.6742  H     
47   H       -15.4318    6.9139  -43.7556  H     
48   H       -13.9742    7.3725  -43.0665  H     
49   H       -15.1171    6.5726  -42.1459  H     
50   H       -21.6167    4.5389  -46.2219  H     
51   H       -20.1582    6.5293  -46.0937  H     
52   H       -20.8096    6.3478  -47.7204  H     
53   H       -19.1244    5.8911  -47.3846  H     
54   H       -19.8462    3.6549  -48.5393  H     
55   H       -21.5940    3.9167  -48.5052  H     
56   H       -20.8953    2.5399  -47.6677  H     
@<TRIPOS>BOND
     1    1    2 1
     2    1    3 1
     3    1    4 1
     4    1    5 1
     5    2   21 1
     6    3   11 2
     7    3   15 1
     8    4    6 2
     9    4   10 1
    10    5   16 2
    11    5   20 1
    12    6    7 1
    13    7    8 2
    14    8    9 1
    15    8   27 1
    16    9   10 2
    17   11   12 1
    18   12   13 2
    19   13   14 1
    20   14   15 2
    21   16   17 1
    22   17   18 2
    23   18   19 1
    24   19   20 2
    25   21   22 1
    26   22   23 1
    27   22   26 1
    28   23   24 1
    29   23   25 2
    30   27   28 1
    31   27   29 1
    32    6   30 1
    33    7   31 1
    34    9   32 1
    35   10   33 1
    36   11   34 1
    37   12   35 1
    38   13   36 1
    39   14   37 1
    40   15   38 1
    41   16   39 1
    42   17   40 1
    43   18   41 1
    44   19   42 1
    45   20   43 1
    46   21   44 1
    47   21   45 1
    48   22   46 1
    49   26   47 1
    50   26   48 1
    51   26   49 1
    52   27   50 1
    53   28   51 1
    54   28   52 1
    55   28   53 1
    56   29   54 1
    57   29   55 1
    58   29   56 1
@<TRIPOS>PROPERTY_DATA
  Total_Score	| 8.2083
  Crash		| -3.5844
  Polar		| 3.6891
  FragIndex	| 1
  FragRMSD	| 0.389

