@<TRIPOS>MOLECULE
BindingDB_23773
 37 38 0 0 0
SMALL
NO_CHARGES


@<TRIPOS>ATOM
1    C       -15.1812    4.0660  -43.7571  C     
2    S       -15.5291    3.0449  -42.2944  S     
3    C       -14.1549    5.2145  -43.5112  C     
4    C       -13.4212    5.6135  -44.7351  C     
5    O       -14.0624    5.8662  -45.9019  O     
6    O       -12.1758    6.1320  -44.6169  O     
7    N       -14.8262    6.3949  -42.9398  N     
8    C       -17.2831    3.3545  -41.8992  C     
9    C       -17.7432    2.3481  -40.8789  C     
10   C       -18.6471    0.5344  -38.8731  C     
11   C       -18.9768    0.3177  -40.2189  C     
12   C       -18.5215    1.2080  -41.2130  C     
13   C       -17.4038    2.5288  -39.5129  C     
14   C       -17.8463    1.6315  -38.5229  C     
15   C       -18.2250    3.5074  -43.0574  C     
16   C       -19.4137    4.2638  -42.9120  C     
17   C       -20.3011    4.4449  -43.9885  C     
18   C       -20.0130    3.8766  -45.2402  C     
19   C       -18.8616    3.0837  -45.3975  C     
20   C       -17.9846    2.8886  -44.3075  C     
21   H       -14.7695    3.3780  -44.5004  H     
22   H       -16.1008    4.4837  -44.1620  H     
23   H       -13.4023    4.8824  -42.7902  H     
24   H       -15.5825    6.6824  -43.5617  H     
25   H       -14.1544    7.1633  -42.8385  H     
26   H       -15.2073    6.1615  -42.0214  H     
27   H       -17.2571    4.3327  -41.4111  H     
28   H       -18.9801   -0.1111  -38.1525  H     
29   H       -19.5493   -0.4856  -40.4787  H     
30   H       -18.7778    1.0181  -42.1822  H     
31   H       -16.8245    3.3205  -39.2278  H     
32   H       -17.5819    1.7787  -37.5477  H     
33   H       -19.6425    4.6945  -42.0133  H     
34   H       -21.1514    5.0119  -43.8706  H     
35   H       -20.6361    4.0391  -46.0337  H     
36   H       -18.6750    2.6334  -46.2950  H     
37   H       -17.1626    2.2988  -44.4452  H     
@<TRIPOS>BOND
     1    1    2 1
     2    1    3 1
     3    2    8 1
     4    3    4 1
     5    3    7 1
     6    4    5 2
     7    4    6 1
     8    8    9 1
     9    8   15 1
    10    9   12 2
    11    9   13 1
    12   10   11 2
    13   10   14 1
    14   11   12 1
    15   13   14 2
    16   15   16 1
    17   15   20 2
    18   16   17 2
    19   17   18 1
    20   18   19 2
    21   19   20 1
    22    1   21 1
    23    1   22 1
    24    3   23 1
    25    7   24 1
    26    7   25 1
    27    7   26 1
    28    8   27 1
    29   10   28 1
    30   11   29 1
    31   12   30 1
    32   13   31 1
    33   14   32 1
    34   16   33 1
    35   17   34 1
    36   18   35 1
    37   19   36 1
    38   20   37 1
@<TRIPOS>PROPERTY_DATA
  Total_Score	| 6.7336
  Crash		| -1.3164
  Polar		| 4.0272
  FragIndex	| 1
  FragRMSD	| 0.709

