@<TRIPOS>MOLECULE
BindingDB_50386207
 50 52 0 0 0
SMALL
NO_CHARGES


@<TRIPOS>ATOM
1    C       -16.1469    1.1320  -42.6433  C     
2    C       -17.1966    2.1415  -42.2197  C     
3    C       -17.5853    1.6546  -40.8273  C     
4    C       -16.7358    1.7897  -39.6919  C     
5    C       -17.0906    1.2813  -38.4220  C     
6    C       -18.3152    0.6132  -38.2496  C     
7    C       -19.1604    0.4239  -39.3549  C     
8    C       -18.7858    0.9139  -40.6184  C     
9    S       -16.5171    3.8568  -42.1376  S     
10   C       -15.5334    4.1086  -43.6538  C     
11   C       -14.3525    5.0927  -43.4263  C     
12   C       -18.4946    2.2892  -43.1236  C     
13   C       -18.4873    3.0223  -44.4251  C     
14   C       -19.4749    4.0050  -44.6979  C     
15   C       -19.5225    4.6645  -45.9425  C     
16   C       -18.5879    4.3474  -46.9380  C     
17   C       -17.6095    3.3698  -46.6984  C     
18   C       -17.5682    2.7042  -45.4538  C     
19   N       -14.8474    6.4027  -42.9612  N     
20   C       -13.5422    5.2684  -44.6558  C     
21   O       -12.2495    4.8545  -44.6897  O     
22   O       -14.0524    5.8230  -45.7825  O     
23   C       -14.8075    1.2410  -42.1815  C     
24   C       -13.8161    0.2920  -42.5110  C     
25   C       -15.4896   -1.0157  -43.6926  C     
26   C       -16.4717   -0.0577  -43.3540  C     
27   C       -14.1563   -0.8249  -43.2962  C     
28   Cl      -12.9448   -1.9409  -43.7256  Cl    
29   H       -15.8275    2.2474  -39.7557  H     
30   H       -16.4554    1.3978  -37.6291  H     
31   H       -18.5707    0.2403  -37.3289  H     
32   H       -20.0487   -0.0792  -39.2381  H     
33   H       -19.4221    0.6993  -41.3834  H     
34   H       -15.1421    3.1576  -44.0060  H     
35   H       -16.1831    4.5167  -44.4280  H     
36   H       -13.7080    4.6869  -42.6426  H     
37   H       -18.8912    1.3049  -43.3800  H     
38   H       -19.2663    2.7422  -42.4840  H     
39   H       -20.1546    4.2591  -43.9798  H     
40   H       -20.2349    5.3719  -46.1234  H     
41   H       -18.6213    4.8363  -47.8407  H     
42   H       -16.9283    3.1452  -47.4292  H     
43   H       -16.8549    1.9855  -45.3103  H     
44   H       -15.5659    6.7420  -43.6019  H     
45   H       -14.0733    7.0755  -42.9156  H     
46   H       -15.2470    6.2958  -42.0261  H     
47   H       -14.5169    2.0223  -41.5912  H     
48   H       -12.8540    0.4305  -42.1762  H     
49   H       -15.7434   -1.8454  -44.2363  H     
50   H       -17.4241   -0.2694  -43.6443  H     
@<TRIPOS>BOND
     1    1    2 1
     2    1   23 2
     3    1   26 1
     4    2    3 1
     5    2    9 1
     6    2   12 1
     7    3    4 2
     8    3    8 1
     9    4    5 1
    10    5    6 2
    11    6    7 1
    12    7    8 2
    13    9   10 1
    14   10   11 1
    15   11   19 1
    16   11   20 1
    17   12   13 1
    18   13   14 2
    19   13   18 1
    20   14   15 1
    21   15   16 2
    22   16   17 1
    23   17   18 2
    24   20   21 1
    25   20   22 2
    26   23   24 1
    27   24   27 2
    28   25   26 2
    29   25   27 1
    30   27   28 1
    31    4   29 1
    32    5   30 1
    33    6   31 1
    34    7   32 1
    35    8   33 1
    36   10   34 1
    37   10   35 1
    38   11   36 1
    39   12   37 1
    40   12   38 1
    41   14   39 1
    42   15   40 1
    43   16   41 1
    44   17   42 1
    45   18   43 1
    46   19   44 1
    47   19   45 1
    48   19   46 1
    49   23   47 1
    50   24   48 1
    51   25   49 1
    52   26   50 1
@<TRIPOS>PROPERTY_DATA
  Total_Score	| 7.2797
  Crash		| -1.8913
  Polar		| 3.8355
  FragIndex	| 1
  FragRMSD	| 0.962

