@<TRIPOS>MOLECULE
BindingDB_23828
 53 55 0 0 0
SMALL
NO_CHARGES


@<TRIPOS>ATOM
1    C       -17.5736    1.9226  -41.2688  C     
2    C       -19.3480    0.6184  -40.1493  C     
3    C       -18.6559    0.6777  -38.9225  C     
4    C       -17.4201    1.3520  -38.8596  C     
5    C       -16.8843    1.9437  -40.0190  C     
6    C       -18.8110    1.2275  -41.2927  C     
7    C       -16.1356    1.1554  -42.9725  C     
8    C       -16.8103    0.0656  -43.5881  C     
9    C       -16.1520   -1.1419  -43.8954  C     
10   C       -14.7983   -1.3091  -43.5717  C     
11   C       -14.1136   -0.2744  -42.9174  C     
12   C       -14.7829    0.9286  -42.6154  C     
13   C       -15.0666    4.2702  -43.7847  C     
14   C       -16.9239    2.3851  -42.5646  C     
15   C       -17.9235    2.9286  -43.5828  C     
16   C       -19.7840    4.0563  -45.4645  C     
17   C       -19.9492    4.2562  -44.0778  C     
18   C       -19.0199    3.7360  -43.1627  C     
19   C       -17.7598    2.7648  -44.9830  C     
20   C       -18.6711    3.3096  -45.9092  C     
21   C       -14.0107    5.3749  -43.5799  C     
22   C       -13.2599    5.6347  -44.8256  C     
23   O       -13.8686    6.0883  -45.9463  O     
24   S       -15.9327    3.9007  -42.2306  S     
25   N       -14.6416    6.6224  -43.1188  N     
26   O       -11.9315    5.3736  -44.8870  O     
27   C       -19.2085   -0.0253  -37.7596  C     
28   C       -20.7514    4.6497  -46.4179  C     
29   H       -20.2308    0.1012  -40.2251  H     
30   H       -16.8919    1.3927  -37.9796  H     
31   H       -15.9631    2.3650  -39.9304  H     
32   H       -19.3346    1.1157  -42.1634  H     
33   H       -17.8025    0.1211  -43.8222  H     
34   H       -16.6666   -1.9017  -44.3408  H     
35   H       -14.3183   -2.1867  -43.7935  H     
36   H       -13.1343   -0.4074  -42.6457  H     
37   H       -14.2600    1.6299  -42.0949  H     
38   H       -15.7912    4.6275  -44.5160  H     
39   H       -14.5897    3.3681  -44.1690  H     
40   H       -20.7458    4.8052  -43.7319  H     
41   H       -19.1559    3.9493  -42.1707  H     
42   H       -16.9548    2.2552  -45.3519  H     
43   H       -18.5269    3.1437  -46.9113  H     
44   H       -13.3114    5.0515  -42.8037  H     
45   H       -15.3682    6.9080  -43.7856  H     
46   H       -13.9472    7.3698  -43.0344  H     
47   H       -15.0752    6.4688  -42.1998  H     
48   H       -20.1901    0.3883  -37.5142  H     
49   H       -18.5580    0.0507  -36.8856  H     
50   H       -19.3176   -1.0796  -38.0091  H     
51   H       -21.7548    4.2759  -46.2108  H     
52   H       -20.5085    4.4098  -47.4549  H     
53   H       -20.7428    5.7337  -46.3048  H     
@<TRIPOS>BOND
     1    1    5 2
     2    1    6 1
     3    1   14 1
     4    2    3 1
     5    2    6 2
     6    3    4 2
     7    3   27 1
     8    4    5 1
     9    7    8 1
    10    7   12 2
    11    7   14 1
    12    8    9 2
    13    9   10 1
    14   10   11 2
    15   11   12 1
    16   13   21 1
    17   13   24 1
    18   14   15 1
    19   14   24 1
    20   15   18 2
    21   15   19 1
    22   16   17 2
    23   16   20 1
    24   16   28 1
    25   17   18 1
    26   19   20 2
    27   21   22 1
    28   21   25 1
    29   22   23 2
    30   22   26 1
    31    2   29 1
    32    4   30 1
    33    5   31 1
    34    6   32 1
    35    8   33 1
    36    9   34 1
    37   10   35 1
    38   11   36 1
    39   12   37 1
    40   13   38 1
    41   13   39 1
    42   17   40 1
    43   18   41 1
    44   19   42 1
    45   20   43 1
    46   21   44 1
    47   25   45 1
    48   25   46 1
    49   25   47 1
    50   27   48 1
    51   27   49 1
    52   27   50 1
    53   28   51 1
    54   28   52 1
    55   28   53 1
@<TRIPOS>PROPERTY_DATA
  Total_Score	| 8.5587
  Crash		| -2.5097
  Polar		| 3.8125
  FragIndex	| 1
  FragRMSD	| 0.447

