@<TRIPOS>MOLECULE
BindingDB_50339672
 59 61 0 0 0
SMALL
NO_CHARGES


@<TRIPOS>ATOM
1    C       -16.9423    2.5723  -42.3406  C     
2    S       -16.1733    4.2162  -42.0666  S     
3    C       -17.5979    1.9880  -41.1156  C     
4    C       -15.8544    1.5765  -42.6633  C     
5    C       -17.9919    2.9178  -43.3920  C     
6    C       -14.6007    1.6034  -41.9793  C     
7    C       -13.5146    0.8022  -42.4018  C     
8    C       -13.6572   -0.1388  -43.4613  C     
9    C       -14.9857   -0.3446  -43.9265  C     
10   C       -16.0519    0.4928  -43.5417  C     
11   C       -18.6465    1.0343  -41.2617  C     
12   C       -19.3076    0.4839  -40.1410  C     
13   C       -18.9233    0.8511  -38.8484  C     
14   C       -17.8407    1.7209  -38.6715  C     
15   C       -17.1761    2.2746  -39.7895  C     
16   C       -17.8240    2.7095  -44.7881  C     
17   C       -18.8052    3.1125  -45.7275  C     
18   C       -19.9656    3.7802  -45.3063  C     
19   C       -20.1355    4.0550  -43.9396  C     
20   C       -19.1648    3.6320  -43.0076  C     
21   C       -15.1820    4.5215  -43.5549  C     
22   C       -14.1827    5.6844  -43.3178  C     
23   C       -13.3802    6.0518  -44.5170  C     
24   O       -12.0486    6.2788  -44.3872  O     
25   O       -13.9126    6.0965  -45.7642  O     
26   N       -14.8884    6.8884  -42.8609  N     
27   C       -12.4873   -0.8277  -44.1093  C     
28   C       -12.5862   -2.3711  -43.8527  C     
29   C       -12.4944   -0.5304  -45.6524  C     
30   C       -11.0619   -0.3951  -43.6097  C     
31   H       -14.4698    2.2376  -41.1857  H     
32   H       -12.6066    0.9226  -41.9453  H     
33   H       -15.1856   -1.0814  -44.6058  H     
34   H       -16.9719    0.3211  -43.9472  H     
35   H       -18.9459    0.7335  -42.1908  H     
36   H       -20.0698   -0.1897  -40.2858  H     
37   H       -19.4088    0.4578  -38.0376  H     
38   H       -17.5183    1.9501  -37.7233  H     
39   H       -16.3765    2.8810  -39.6103  H     
40   H       -16.9655    2.2798  -45.1494  H     
41   H       -18.6577    2.9387  -46.7303  H     
42   H       -20.6552    4.0977  -45.9824  H     
43   H       -20.9575    4.5833  -43.6263  H     
44   H       -19.3227    3.8773  -42.0234  H     
45   H       -14.6261    3.6237  -43.8136  H     
46   H       -15.8369    4.7857  -44.3808  H     
47   H       -13.4697    5.3857  -42.5396  H     
48   H       -15.6441    7.0923  -43.5184  H     
49   H       -14.2444    7.6874  -42.8200  H     
50   H       -15.2781    6.7231  -41.9328  H     
51   H       -12.5720   -2.5634  -42.7753  H     
52   H       -11.7439   -2.9087  -44.2981  H     
53   H       -13.5058   -2.7983  -44.2631  H     
54   H       -13.4434   -0.7933  -46.1224  H     
55   H       -11.7093   -1.0909  -46.1735  H     
56   H       -12.3245    0.5378  -45.8280  H     
57   H       -10.9342    0.6895  -43.6987  H     
58   H       -10.2669   -0.8802  -44.1810  H     
59   H       -10.9146   -0.6712  -42.5667  H     
@<TRIPOS>BOND
     1    1    2 1
     2    1    3 1
     3    1    4 1
     4    1    5 1
     5    2   21 1
     6    3   11 2
     7    3   15 1
     8    4    6 2
     9    4   10 1
    10    5   16 2
    11    5   20 1
    12    6    7 1
    13    7    8 2
    14    8    9 1
    15    8   27 1
    16    9   10 2
    17   11   12 1
    18   12   13 2
    19   13   14 1
    20   14   15 2
    21   16   17 1
    22   17   18 2
    23   18   19 1
    24   19   20 2
    25   21   22 1
    26   22   23 1
    27   22   26 1
    28   23   24 1
    29   23   25 2
    30   27   28 1
    31   27   29 1
    32   27   30 1
    33    6   31 1
    34    7   32 1
    35    9   33 1
    36   10   34 1
    37   11   35 1
    38   12   36 1
    39   13   37 1
    40   14   38 1
    41   15   39 1
    42   16   40 1
    43   17   41 1
    44   18   42 1
    45   19   43 1
    46   20   44 1
    47   21   45 1
    48   21   46 1
    49   22   47 1
    50   26   48 1
    51   26   49 1
    52   26   50 1
    53   28   51 1
    54   28   52 1
    55   28   53 1
    56   29   54 1
    57   29   55 1
    58   29   56 1
    59   30   57 1
    60   30   58 1
    61   30   59 1
@<TRIPOS>PROPERTY_DATA
  Total_Score	| 6.9802
  Crash		| -2.4198
  Polar		| 3.4900
  FragIndex	| 1
  FragRMSD	| 0.712

