@<TRIPOS>MOLECULE
BindingDB_23774
 40 41 0 0 0
SMALL
NO_CHARGES


@<TRIPOS>ATOM
1    C       -15.2096    4.1919  -43.6702  C     
2    S       -15.9041    3.8147  -42.0315  S     
3    C       -14.0848    5.2524  -43.5717  C     
4    C       -13.3666    5.3901  -44.8586  C     
5    O       -13.9361    6.0292  -45.9080  O     
6    O       -12.1970    4.7514  -45.0704  O     
7    N       -14.6293    6.5544  -43.1495  N     
8    C       -17.6505    2.0720  -40.9204  C     
9    C       -17.0339    2.4016  -42.3286  C     
10   C       -18.0651    2.9164  -43.3300  C     
11   C       -20.1086    4.2003  -43.8734  C     
12   C       -19.1889    3.6948  -42.9369  C     
13   C       -17.8939    2.7199  -44.7278  C     
14   C       -18.8085    3.2248  -45.6706  C     
15   C       -19.9236    3.9605  -45.2439  C     
16   C       -16.3560    1.0998  -42.7373  C     
17   C       -17.1245    0.0602  -43.3286  C     
18   C       -16.5396   -1.1380  -43.7721  C     
19   C       -15.1667   -1.3590  -43.5888  C     
20   C       -14.3998   -0.4054  -42.9055  C     
21   C       -14.9870    0.8037  -42.4884  C     
22   H       -14.8055    3.2763  -44.1032  H     
23   H       -15.9985    4.5655  -44.3256  H     
24   H       -13.3658    4.9325  -42.8114  H     
25   H       -15.3612    6.8468  -43.8023  H     
26   H       -13.8865    7.2568  -43.1373  H     
27   H       -15.0305    6.4762  -42.2089  H     
28   H       -16.9118    1.6079  -40.2581  H     
29   H       -18.4934    1.3861  -41.0195  H     
30   H       -18.0072    2.9658  -40.4055  H     
31   H       -20.9057    4.7595  -43.5642  H     
32   H       -19.3536    3.9237  -41.9579  H     
33   H       -17.0749    2.2227  -45.0829  H     
34   H       -18.6583    3.0665  -46.6685  H     
35   H       -20.5851    4.3394  -45.9253  H     
36   H       -18.1278    0.1790  -43.4687  H     
37   H       -17.1144   -1.8463  -44.2324  H     
38   H       -14.7461   -2.2364  -43.8986  H     
39   H       -13.4072   -0.5872  -42.7238  H     
40   H       -14.3937    1.4623  -41.9857  H     
@<TRIPOS>BOND
     1    1    2 1
     2    1    3 1
     3    2    9 1
     4    3    4 1
     5    3    7 1
     6    4    5 2
     7    4    6 1
     8    8    9 1
     9    9   10 1
    10    9   16 1
    11   10   12 2
    12   10   13 1
    13   11   12 1
    14   11   15 2
    15   13   14 2
    16   14   15 1
    17   16   17 1
    18   16   21 2
    19   17   18 2
    20   18   19 1
    21   19   20 2
    22   20   21 1
    23    1   22 1
    24    1   23 1
    25    3   24 1
    26    7   25 1
    27    7   26 1
    28    7   27 1
    29    8   28 1
    30    8   29 1
    31    8   30 1
    32   11   31 1
    33   12   32 1
    34   13   33 1
    35   14   34 1
    36   15   35 1
    37   17   36 1
    38   18   37 1
    39   19   38 1
    40   20   39 1
    41   21   40 1
@<TRIPOS>PROPERTY_DATA
  Total_Score	| 6.2596
  Crash		| -0.8568
  Polar		| 3.8000
  FragIndex	| 1
  FragRMSD	| 0.412

