@<TRIPOS>MOLECULE
BindingDB_23812
 51 53 0 0 0
SMALL
NO_CHARGES


@<TRIPOS>ATOM
1    C       -18.0202    2.8002  -43.2954  C     
2    C       -19.9995    4.2181  -43.7864  C     
3    C       -19.8346    4.0194  -45.1615  C     
4    C       -18.7682    3.2442  -45.6252  C     
5    C       -17.8759    2.6482  -44.7043  C     
6    C       -19.0932    3.6390  -42.8703  C     
7    C       -17.6313    1.7553  -40.9718  C     
8    C       -18.8283    0.9819  -40.9465  C     
9    C       -19.3633    0.4636  -39.7530  C     
10   C       -18.7276    0.6954  -38.5216  C     
11   C       -17.5228    1.4179  -38.5125  C     
12   C       -16.9800    1.9189  -39.7094  C     
13   C       -15.1820    4.1439  -43.5471  C     
14   C       -17.0239    2.2235  -42.2952  C     
15   C       -16.3087    0.9741  -42.7832  C     
16   C       -15.0458   -1.4540  -43.7071  C     
17   C       -16.4258   -1.2555  -43.8906  C     
18   C       -17.0357   -0.0629  -43.4379  C     
19   C       -14.9243    0.7107  -42.5733  C     
20   C       -14.2978   -0.4678  -43.0394  C     
21   C       -14.2528    5.3917  -43.4300  C     
22   C       -13.6463    5.7697  -44.7307  C     
23   O       -13.6652    7.0514  -45.1778  O     
24   S       -15.9636    3.6890  -41.9527  S     
25   N       -14.9939    6.5184  -42.8636  N     
26   O       -12.9781    4.8275  -45.4611  O     
27   C       -12.2556    5.0668  -46.6734  C     
28   H       -20.7781    4.7949  -43.4481  H     
29   H       -20.4851    4.4448  -45.8281  H     
30   H       -18.6225    3.1122  -46.6321  H     
31   H       -17.0864    2.1255  -45.0894  H     
32   H       -19.2276    3.8397  -41.8779  H     
33   H       -19.3312    0.7565  -41.8112  H     
34   H       -20.2200   -0.0933  -39.7630  H     
35   H       -19.1099    0.3258  -37.6518  H     
36   H       -17.0298    1.5741  -37.6261  H     
37   H       -16.0822    2.4060  -39.6583  H     
38   H       -15.9616    4.3895  -44.2720  H     
39   H       -14.6097    3.2938  -43.9270  H     
40   H       -14.6006   -2.3170  -44.0098  H     
41   H       -16.9825   -1.9769  -44.3643  H     
42   H       -18.0370    0.0432  -43.6206  H     
43   H       -14.3307    1.3724  -42.0765  H     
44   H       -13.2845   -0.6085  -42.8916  H     
45   H       -13.4214    5.1699  -42.7499  H     
46   H       -15.8228    6.6942  -43.4319  H     
47   H       -14.4139    7.3582  -42.8449  H     
48   H       -15.2932    6.3114  -41.9061  H     
49   H       -12.9242    5.4445  -47.4497  H     
50   H       -11.8002    4.1371  -47.0123  H     
51   H       -11.4658    5.7979  -46.4838  H     
@<TRIPOS>BOND
     1    1    5 2
     2    1    6 1
     3    1   14 1
     4    2    3 1
     5    2    6 2
     6    3    4 2
     7    4    5 1
     8    7    8 1
     9    7   12 2
    10    7   14 1
    11    8    9 2
    12    9   10 1
    13   10   11 2
    14   11   12 1
    15   13   21 1
    16   13   24 1
    17   14   15 1
    18   14   24 1
    19   15   18 2
    20   15   19 1
    21   16   17 2
    22   16   20 1
    23   17   18 1
    24   19   20 2
    25   21   22 1
    26   21   25 1
    27   22   23 2
    28   22   26 1
    29   26   27 1
    30    2   28 1
    31    3   29 1
    32    4   30 1
    33    5   31 1
    34    6   32 1
    35    8   33 1
    36    9   34 1
    37   10   35 1
    38   11   36 1
    39   12   37 1
    40   13   38 1
    41   13   39 1
    42   16   40 1
    43   17   41 1
    44   18   42 1
    45   19   43 1
    46   20   44 1
    47   21   45 1
    48   25   46 1
    49   25   47 1
    50   25   48 1
    51   27   49 1
    52   27   50 1
    53   27   51 1
@<TRIPOS>PROPERTY_DATA
  Total_Score	| 8.9119
  Crash		| -1.4443
  Polar		| 2.8309
  FragIndex	| 1
  FragRMSD	| 0.266

