@<TRIPOS>MOLECULE
BindingDB_23820
 47 49 0 0 0
SMALL
NO_CHARGES


@<TRIPOS>ATOM
1    C       -17.6664    1.8265  -41.0259  C     
2    C       -19.4416    0.5064  -39.9158  C     
3    C       -18.8863    0.7667  -38.6538  C     
4    C       -17.6930    1.5018  -38.5672  C     
5    C       -17.0879    2.0114  -39.7301  C     
6    C       -18.8534    1.0399  -41.0728  C     
7    C       -16.2237    1.0985  -42.7610  C     
8    C       -14.8605    0.8934  -42.4096  C     
9    C       -14.1698   -0.2795  -42.7730  C     
10   C       -14.8312   -1.2980  -43.4815  C     
11   C       -16.1938   -1.1527  -43.7907  C     
12   C       -16.8722    0.0189  -43.4226  C     
13   C       -15.2275    4.2492  -43.5874  C     
14   C       -17.0129    2.3226  -42.3128  C     
15   C       -18.0236    2.8815  -43.3153  C     
16   C       -19.8604    4.0529  -45.1745  C     
17   C       -18.7856    3.2782  -45.6331  C     
18   C       -17.8821    2.7132  -44.7171  C     
19   C       -19.1045    3.6969  -42.8829  C     
20   C       -20.0171    4.2612  -43.7922  C     
21   C       -14.1904    5.4061  -43.4379  C     
22   C       -13.4389    5.6800  -44.6879  C     
23   O       -14.0802    5.7798  -45.8812  O     
24   S       -15.9712    3.8146  -41.9925  S     
25   N       -14.8469    6.6424  -42.9781  N     
26   O       -12.2468    6.3300  -44.6054  O     
27   Cl      -20.9291    4.7590  -46.2751  Cl    
28   H       -20.2880   -0.0587  -39.9877  H     
29   H       -19.3283    0.3884  -37.8080  H     
30   H       -17.2676    1.6651  -37.6503  H     
31   H       -16.1990    2.4986  -39.6103  H     
32   H       -19.2942    0.8349  -41.9667  H     
33   H       -14.3478    1.5829  -41.8580  H     
34   H       -13.1831   -0.3987  -42.5135  H     
35   H       -14.3317   -2.1492  -43.7487  H     
36   H       -16.6901   -1.9046  -44.2764  H     
37   H       -17.8672    0.0745  -43.6482  H     
38   H       -16.0045    4.5801  -44.2775  H     
39   H       -14.7330    3.3732  -44.0129  H     
40   H       -18.6475    3.1299  -46.6299  H     
41   H       -17.0883    2.1959  -45.1010  H     
42   H       -19.2325    3.8976  -41.8851  H     
43   H       -20.7856    4.8361  -43.4464  H     
44   H       -13.4567    5.1169  -42.6776  H     
45   H       -15.6496    6.8484  -43.5784  H     
46   H       -14.1878    7.4288  -43.0114  H     
47   H       -15.1698    6.5177  -42.0156  H     
@<TRIPOS>BOND
     1    1    5 2
     2    1    6 1
     3    1   14 1
     4    2    3 1
     5    2    6 2
     6    3    4 2
     7    4    5 1
     8    7    8 1
     9    7   12 2
    10    7   14 1
    11    8    9 2
    12    9   10 1
    13   10   11 2
    14   11   12 1
    15   13   21 1
    16   13   24 1
    17   14   15 1
    18   14   24 1
    19   15   18 2
    20   15   19 1
    21   16   17 2
    22   16   20 1
    23   16   27 1
    24   17   18 1
    25   19   20 2
    26   21   22 1
    27   21   25 1
    28   22   23 2
    29   22   26 1
    30    2   28 1
    31    3   29 1
    32    4   30 1
    33    5   31 1
    34    6   32 1
    35    8   33 1
    36    9   34 1
    37   10   35 1
    38   11   36 1
    39   12   37 1
    40   13   38 1
    41   13   39 1
    42   17   40 1
    43   18   41 1
    44   19   42 1
    45   20   43 1
    46   21   44 1
    47   25   45 1
    48   25   46 1
    49   25   47 1
@<TRIPOS>PROPERTY_DATA
  Total_Score	| 9.1719
  Crash		| -1.4418
  Polar		| 3.7975
  FragIndex	| 1
  FragRMSD	| 0.484

