@<TRIPOS>MOLECULE
BindingDB_23822
 50 52 0 0 0
SMALL
NO_CHARGES


@<TRIPOS>ATOM
1    C       -17.6854    1.8397  -41.0421  C     
2    C       -19.4261    0.4810  -39.9207  C     
3    C       -18.9143    0.8172  -38.6593  C     
4    C       -17.7803    1.6395  -38.5730  C     
5    C       -17.1583    2.1185  -39.7461  C     
6    C       -18.8266    0.9893  -41.0866  C     
7    C       -16.2223    1.0905  -42.7730  C     
8    C       -14.8652    0.8922  -42.3928  C     
9    C       -14.1587   -0.2718  -42.7509  C     
10   C       -14.7953   -1.2895  -43.4769  C     
11   C       -16.1495   -1.1555  -43.8131  C     
12   C       -16.8518    0.0098  -43.4514  C     
13   C       -15.2200    4.2362  -43.6386  C     
14   C       -17.0257    2.3095  -42.3395  C     
15   C       -18.0299    2.8560  -43.3552  C     
16   C       -19.8702    3.9979  -45.2463  C     
17   C       -20.0253    4.2157  -43.8630  C     
18   C       -19.1203    3.6608  -42.9417  C     
19   C       -17.8795    2.6609  -44.7554  C     
20   C       -18.7814    3.2162  -45.6835  C     
21   C       -14.1918    5.3904  -43.4750  C     
22   C       -13.4709    5.7286  -44.7217  C     
23   O       -14.1500    5.8535  -45.8971  O     
24   S       -15.9961    3.8112  -42.0424  S     
25   N       -14.8348    6.6033  -42.9384  N     
26   O       -12.3046    6.4008  -44.6274  O     
27   C       -20.8027    4.6314  -46.2100  C     
28   H       -20.2389   -0.1386  -39.9909  H     
29   H       -19.3593    0.4563  -37.8117  H     
30   H       -17.3975    1.8755  -37.6539  H     
31   H       -16.3066    2.6650  -39.6291  H     
32   H       -19.2380    0.7312  -41.9826  H     
33   H       -14.3726    1.5859  -41.8276  H     
34   H       -13.1810   -0.3833  -42.4714  H     
35   H       -14.2849   -2.1345  -43.7409  H     
36   H       -16.6339   -1.9071  -44.3094  H     
37   H       -17.8412    0.0589  -43.6962  H     
38   H       -15.9941    4.5552  -44.3427  H     
39   H       -14.7179    3.3537  -44.0419  H     
40   H       -20.7918    4.8049  -43.5184  H     
41   H       -19.2477    3.8857  -41.9497  H     
42   H       -17.0718    2.1609  -45.1298  H     
43   H       -18.6245    3.0590  -46.6834  H     
44   H       -13.4317    5.0779  -42.7454  H     
45   H       -15.6561    6.8313  -43.5043  H     
46   H       -14.1794    7.3890  -42.9578  H     
47   H       -15.1255    6.4302  -41.9722  H     
48   H       -21.8224    4.2998  -46.0098  H     
49   H       -20.5642    4.3787  -47.2450  H     
50   H       -20.7547    5.7176  -46.1061  H     
@<TRIPOS>BOND
     1    1    5 2
     2    1    6 1
     3    1   14 1
     4    2    3 1
     5    2    6 2
     6    3    4 2
     7    4    5 1
     8    7    8 1
     9    7   12 2
    10    7   14 1
    11    8    9 2
    12    9   10 1
    13   10   11 2
    14   11   12 1
    15   13   21 1
    16   13   24 1
    17   14   15 1
    18   14   24 1
    19   15   18 2
    20   15   19 1
    21   16   17 2
    22   16   20 1
    23   16   27 1
    24   17   18 1
    25   19   20 2
    26   21   22 1
    27   21   25 1
    28   22   23 2
    29   22   26 1
    30    2   28 1
    31    3   29 1
    32    4   30 1
    33    5   31 1
    34    6   32 1
    35    8   33 1
    36    9   34 1
    37   10   35 1
    38   11   36 1
    39   12   37 1
    40   13   38 1
    41   13   39 1
    42   17   40 1
    43   18   41 1
    44   19   42 1
    45   20   43 1
    46   21   44 1
    47   25   45 1
    48   25   46 1
    49   25   47 1
    50   27   48 1
    51   27   49 1
    52   27   50 1
@<TRIPOS>PROPERTY_DATA
  Total_Score	| 9.4643
  Crash		| -1.5856
  Polar		| 3.9364
  FragIndex	| 1
  FragRMSD	| 0.480

