@<TRIPOS>MOLECULE
BindingDB_23772
 47 49 0 0 0
SMALL
NO_CHARGES


@<TRIPOS>ATOM
1    C       -15.2319    4.1845  -43.6593  C     
2    S       -15.9224    3.7411  -42.0242  S     
3    C       -16.9840    2.2658  -42.2932  C     
4    C       -18.0037    2.8381  -43.2734  C     
5    C       -18.8003    3.2570  -45.5861  C     
6    C       -17.8761    2.6957  -44.6864  C     
7    C       -19.0832    3.6583  -42.8293  C     
8    C       -20.0203    4.2056  -43.7221  C     
9    C       -19.8891    4.0009  -45.1057  C     
10   C       -17.5663    1.8029  -40.9530  C     
11   C       -17.3147    1.3547  -38.5215  C     
12   C       -18.5578    0.7163  -38.4804  C     
13   C       -19.3069    0.5889  -39.6611  C     
14   C       -18.8087    1.1169  -40.8755  C     
15   C       -16.8242    1.8732  -39.7356  C     
16   C       -16.2680    1.0080  -42.7691  C     
17   C       -14.8908    0.7291  -42.5413  C     
18   C       -14.2783   -0.4576  -43.0032  C     
19   C       -15.0462   -1.4308  -43.6656  C     
20   C       -16.4186   -1.2181  -43.8682  C     
21   C       -17.0128   -0.0171  -43.4251  C     
22   C       -14.0968    5.2451  -43.5138  C     
23   C       -13.3398    5.4271  -44.7733  C     
24   O       -13.9061    5.9754  -45.8774  O     
25   O       -12.0565    5.0065  -44.8715  O     
26   N       -14.6584    6.5301  -43.0790  N     
27   H       -14.8289    3.2935  -44.1557  H     
28   H       -16.0189    4.6136  -44.2873  H     
29   H       -18.6807    3.1133  -46.5938  H     
30   H       -17.0921    2.1829  -45.0876  H     
31   H       -19.2130    3.8438  -41.8283  H     
32   H       -20.8077    4.7661  -43.3713  H     
33   H       -20.5681    4.3985  -45.7578  H     
34   H       -16.7530    1.4345  -37.6655  H     
35   H       -18.9124    0.3196  -37.6005  H     
36   H       -20.2015    0.0989  -39.6406  H     
37   H       -19.3806    0.9695  -41.7094  H     
38   H       -15.8978    2.3022  -39.7150  H     
39   H       -14.2813    1.3969  -42.0645  H     
40   H       -13.2754   -0.6108  -42.8602  H     
41   H       -14.6078   -2.3058  -43.9786  H     
42   H       -16.9808   -1.9177  -44.3596  H     
43   H       -18.0037    0.1139  -43.6297  H     
44   H       -13.3969    4.9194  -42.7359  H     
45   H       -15.4357    6.7834  -43.6862  H     
46   H       -13.9425    7.2571  -43.1118  H     
47   H       -14.9989    6.4423  -42.1215  H     
@<TRIPOS>BOND
     1    1    2 1
     2    1   22 1
     3    2    3 1
     4    3    4 1
     5    3   10 1
     6    3   16 1
     7    4    6 2
     8    4    7 1
     9    5    6 1
    10    5    9 2
    11    7    8 2
    12    8    9 1
    13   10   14 2
    14   10   15 1
    15   11   12 1
    16   11   15 2
    17   12   13 2
    18   13   14 1
    19   16   17 1
    20   16   21 2
    21   17   18 2
    22   18   19 1
    23   19   20 2
    24   20   21 1
    25   22   23 1
    26   22   26 1
    27   23   24 2
    28   23   25 1
    29    1   27 1
    30    1   28 1
    31    5   29 1
    32    6   30 1
    33    7   31 1
    34    8   32 1
    35    9   33 1
    36   11   34 1
    37   12   35 1
    38   13   36 1
    39   14   37 1
    40   15   38 1
    41   17   39 1
    42   18   40 1
    43   19   41 1
    44   20   42 1
    45   21   43 1
    46   22   44 1
    47   26   45 1
    48   26   46 1
    49   26   47 1
@<TRIPOS>PROPERTY_DATA
  Total_Score	| 8.7916
  Crash		| -1.1620
  Polar		| 3.9037
  FragIndex	| 1
  FragRMSD	| 0.437

