@<TRIPOS>MOLECULE
BindingDB_50198302
 47 49 0 0 0
SMALL
NO_CHARGES


@<TRIPOS>ATOM
1    C       -19.4884    0.4432  -39.7834  C     
2    C       -18.8684    0.6403  -38.5369  C     
3    C       -17.6443    1.3226  -38.4666  C     
4    C       -17.0529    1.8207  -39.6406  C     
5    C       -17.6779    1.6983  -40.9167  C     
6    C       -18.8998    0.9605  -40.9481  C     
7    C       -17.0084    2.2004  -42.1930  C     
8    C       -17.9904    2.8151  -43.1880  C     
9    S       -15.8801    3.6053  -41.7610  S     
10   C       -16.2933    0.9530  -42.6988  C     
11   C       -19.0711    3.6214  -42.7341  C     
12   C       -19.9443    4.2627  -43.6303  C     
13   C       -19.7517    4.1371  -45.0111  C     
14   C       -18.6764    3.3777  -45.4975  C     
15   C       -17.8018    2.7470  -44.5977  C     
16   C       -14.9389    0.6383  -42.3880  C     
17   C       -14.3313   -0.5422  -42.8593  C     
18   C       -15.0641   -1.4621  -43.6288  C     
19   C       -16.4176   -1.2001  -43.9197  C     
20   C       -17.0175   -0.0224  -43.4432  C     
21   C       -15.7761    4.7834  -43.1538  C     
22   C       -14.7217    4.4288  -44.2416  C     
23   N       -15.2274    4.8602  -45.5536  N     
24   C       -13.4147    5.0827  -44.0039  C     
25   O       -12.2523    4.3893  -44.1042  O     
26   O       -13.3531    6.4204  -43.7975  O     
27   H       -20.3705   -0.0712  -39.8365  H     
28   H       -19.2984    0.2688  -37.6839  H     
29   H       -17.1748    1.4451  -37.5613  H     
30   H       -16.1397    2.2699  -39.5435  H     
31   H       -19.3736    0.7774  -41.8326  H     
32   H       -19.2087    3.7793  -41.7332  H     
33   H       -20.7097    4.8373  -43.2769  H     
34   H       -20.3918    4.5975  -45.6656  H     
35   H       -18.5092    3.3077  -46.5034  H     
36   H       -17.0035    2.2458  -44.9922  H     
37   H       -14.3772    1.2583  -41.8102  H     
38   H       -13.3543   -0.7438  -42.6296  H     
39   H       -14.6228   -2.3160  -43.9787  H     
40   H       -16.9667   -1.8764  -44.4550  H     
41   H       -18.0013    0.1246  -43.6721  H     
42   H       -16.7627    4.8756  -43.6051  H     
43   H       -15.5539    5.7577  -42.7118  H     
44   H       -14.5825    3.3452  -44.2964  H     
45   H       -15.9666    4.2160  -45.8526  H     
46   H       -14.4722    4.8567  -46.2483  H     
47   H       -15.6289    5.7946  -45.4607  H     
@<TRIPOS>BOND
     1    1    2 2
     2    1    6 1
     3    2    3 1
     4    3    4 2
     5    4    5 1
     6    5    6 2
     7    5    7 1
     8    7    8 1
     9    7    9 1
    10    7   10 1
    11    8   11 2
    12    8   15 1
    13    9   21 1
    14   10   16 2
    15   10   20 1
    16   11   12 1
    17   12   13 2
    18   13   14 1
    19   14   15 2
    20   16   17 1
    21   17   18 2
    22   18   19 1
    23   19   20 2
    24   21   22 1
    25   22   23 1
    26   22   24 1
    27   24   25 1
    28   24   26 2
    29    1   27 1
    30    2   28 1
    31    3   29 1
    32    4   30 1
    33    6   31 1
    34   11   32 1
    35   12   33 1
    36   13   34 1
    37   14   35 1
    38   15   36 1
    39   16   37 1
    40   17   38 1
    41   18   39 1
    42   19   40 1
    43   20   41 1
    44   21   42 1
    45   21   43 1
    46   22   44 1
    47   23   45 1
    48   23   46 1
    49   23   47 1
@<TRIPOS>PROPERTY_DATA
  Total_Score	| 7.3120
  Crash		| -1.9276
  Polar		| 1.5629
  FragIndex	| 1
  FragRMSD	| 0.912

