@<TRIPOS>MOLECULE
BindingDB_50386227
 50 52 0 0 0
SMALL
NO_CHARGES


@<TRIPOS>ATOM
1    C       -13.4680    5.8456  -44.5787  C     
2    C       -14.2277    5.5375  -43.3406  C     
3    C       -15.2873    4.3958  -43.4992  C     
4    O       -14.0237    5.8848  -45.8192  O     
5    O       -12.1672    6.2093  -44.4876  O     
6    S       -16.3760    4.1974  -42.0475  S     
7    C       -17.3958    2.7327  -42.4851  C     
8    C       -18.4001    2.4538  -41.3028  C     
9    C       -18.0517    1.6259  -40.1106  C     
10   C       -18.9795    0.6539  -39.6253  C     
11   C       -18.7333   -0.0308  -38.4233  C     
12   C       -17.5638    0.2312  -37.6747  C     
13   C       -16.6598    1.2133  -38.1351  C     
14   C       -16.9065    1.9285  -39.3278  C     
15   C       -18.2010    3.1984  -43.7025  C     
16   C       -17.8189    2.8800  -45.0402  C     
17   C       -18.6137    3.2475  -46.1493  C     
18   C       -20.1546    4.3945  -44.6661  C     
19   C       -19.3408    4.0426  -43.5745  C     
20   C       -16.5696    1.4804  -42.6925  C     
21   C       -15.2268    1.3025  -42.2378  C     
22   C       -14.4893    0.1474  -42.5436  C     
23   C       -16.4183   -0.7805  -43.6869  C     
24   C       -17.1523    0.3776  -43.3686  C     
25   N       -14.8883    6.7740  -42.8924  N     
26   C       -15.0712   -0.8871  -43.2872  C     
27   Cl      -14.1379   -2.2280  -43.7317  Cl    
28   C       -19.7969    3.9723  -45.9560  C     
29   Cl      -20.7953    4.3621  -47.2661  Cl    
30   H       -13.5073    5.2224  -42.5765  H     
31   H       -15.8687    4.5978  -44.3935  H     
32   H       -14.7523    3.4653  -43.6823  H     
33   H       -18.7276    3.3896  -40.8534  H     
34   H       -19.2985    2.0098  -41.7522  H     
35   H       -19.8430    0.4657  -40.1399  H     
36   H       -19.3971   -0.7295  -38.0964  H     
37   H       -17.3716   -0.2808  -36.8031  H     
38   H       -15.8148    1.4083  -37.5888  H     
39   H       -16.2740    2.6965  -39.5944  H     
40   H       -16.9592    2.3691  -45.2363  H     
41   H       -18.3222    2.9496  -47.0887  H     
42   H       -21.0066    4.9512  -44.5177  H     
43   H       -19.6250    4.4262  -42.6698  H     
44   H       -14.7497    2.0043  -41.6789  H     
45   H       -13.5279    0.0750  -42.2217  H     
46   H       -16.8633   -1.5378  -44.2064  H     
47   H       -18.1347    0.4270  -43.6731  H     
48   H       -14.2053    7.5470  -42.8691  H     
49   H       -15.2591    6.6345  -41.9546  H     
50   H       -15.6481    6.9944  -43.5461  H     
@<TRIPOS>BOND
     1    1    2 1
     2    1    4 2
     3    1    5 1
     4    2    3 1
     5    2   25 1
     6    3    6 1
     7    6    7 1
     8    7    8 1
     9    7   15 1
    10    7   20 1
    11    8    9 1
    12    9   10 1
    13    9   14 2
    14   10   11 2
    15   11   12 1
    16   12   13 2
    17   13   14 1
    18   15   16 1
    19   15   19 2
    20   16   17 2
    21   17   28 1
    22   18   19 1
    23   18   28 2
    24   20   21 1
    25   20   24 2
    26   21   22 2
    27   22   26 1
    28   23   24 1
    29   23   26 2
    30   26   27 1
    31   28   29 1
    32    2   30 1
    33    3   31 1
    34    3   32 1
    35    8   33 1
    36    8   34 1
    37   10   35 1
    38   11   36 1
    39   12   37 1
    40   13   38 1
    41   14   39 1
    42   16   40 1
    43   17   41 1
    44   18   42 1
    45   19   43 1
    46   21   44 1
    47   22   45 1
    48   23   46 1
    49   24   47 1
    50   25   48 1
    51   25   49 1
    52   25   50 1
@<TRIPOS>PROPERTY_DATA
  Total_Score	| 6.6467
  Crash		| -3.9172
  Polar		| 3.6915
  FragIndex	| 1
  FragRMSD	| 0.803

