@<TRIPOS>MOLECULE
BindingDB_30442
 56 60 0 0 0
SMALL
NO_CHARGES


@<TRIPOS>ATOM
1    C        98.0538    9.4047   59.6042  C     
2    C        98.7069   10.1634   60.5634  C     
3    N        99.1828   11.2983   60.1724  N     
4    N        99.1275   11.7814   58.9783  N     
5    C        98.5962   11.0305   57.9935  C     
6    C        98.0504    9.7801   58.2927  C     
7    O        98.6607   11.4476   56.8397  O     
8    C        99.6491   13.1192   58.7955  C     
9    O        97.3209    8.3549   59.9822  O     
10   C        97.5959    8.9102   57.2719  C     
11   S        97.3293    6.4158   56.3049  S     
12   N        97.7643    7.5755   57.4403  N     
13   N        97.0942    9.3915   56.0976  N     
14   C        96.9565    8.7023   54.9224  C     
15   C        97.1026    7.3000   54.8278  C     
16   O        98.5522    5.4099   56.1503  O     
17   O        95.9825    5.7046   56.7652  O     
18   C        97.1587    6.6741   53.5640  C     
19   C        96.8058    9.4525   53.7390  C     
20   C        96.8897    8.8324   52.4798  C     
21   C        97.0885    7.4382   52.3724  C     
22   C        98.5211   14.1825   58.6376  C     
23   C        97.3565   14.0907   59.6811  C     
24   C        97.7194   14.7343   61.0519  C     
25   C        96.0494   14.7185   59.1182  C     
26   C        98.9849    9.7799   61.8783  C     
27   C        99.5399   10.5881   62.8893  C     
28   C        99.7531    9.9612   64.1288  C     
29   C        99.3953    8.6145   64.1583  C     
30   S        98.8000    8.2195   62.5960  S     
31   C        97.3005    6.8372   51.1062  C     
32   O        97.1839    5.4772   49.3485  O     
33   C        96.5846    5.8063   50.5139  C     
34   C        98.3292    7.0938   50.2075  C     
35   N        98.2268    6.2451   49.1730  N     
36   H       100.2931   13.4117   59.6325  H     
37   H       100.2933   13.1453   57.9095  H     
38   H        96.5680    8.7164   60.4926  H     
39   H        96.9571   10.3506   56.0430  H     
40   H        97.3297    5.6674   53.5185  H     
41   H        96.7018   10.4705   53.7848  H     
42   H        96.8254    9.4149   51.6408  H     
43   H        98.9754   15.1769   58.6935  H     
44   H        98.1021   14.0796   57.6301  H     
45   H        97.1378   13.0341   59.8558  H     
46   H        98.5458   14.1995   61.5248  H     
47   H        96.8656   14.6939   61.7339  H     
48   H        98.0101   15.7789   60.9203  H     
49   H        96.1911   15.7824   58.9139  H     
50   H        95.2300   14.6026   59.8348  H     
51   H        95.7563   14.2186   58.1910  H     
52   H        99.7774   11.5728   62.7490  H     
53   H       100.1484   10.4478   64.9346  H     
54   H        99.4796    7.9795   64.9527  H     
55   H        95.7379    5.3717   50.8790  H     
56   H        99.0740    7.7830   50.3233  H     
@<TRIPOS>BOND
     1    1    2 1
     2    1    6 2
     3    1    9 1
     4    2    3 2
     5    2   26 1
     6    3    4 1
     7    4    5 1
     8    4    8 1
     9    5    6 1
    10    5    7 2
    11    6   10 1
    12    8   22 1
    13   10   12 2
    14   10   13 1
    15   11   12 1
    16   11   15 1
    17   11   16 2
    18   11   17 2
    19   13   14 1
    20   14   15 1
    21   14   19 2
    22   15   18 2
    23   18   21 1
    24   19   20 1
    25   20   21 2
    26   21   31 1
    27   22   23 1
    28   23   24 1
    29   23   25 1
    30   26   27 2
    31   26   30 1
    32   27   28 1
    33   28   29 2
    34   29   30 1
    35   31   33 2
    36   31   34 1
    37   32   33 1
    38   32   35 1
    39   34   35 2
    40    8   36 1
    41    8   37 1
    42    9   38 1
    43   13   39 1
    44   18   40 1
    45   19   41 1
    46   20   42 1
    47   22   43 1
    48   22   44 1
    49   23   45 1
    50   24   46 1
    51   24   47 1
    52   24   48 1
    53   25   49 1
    54   25   50 1
    55   25   51 1
    56   27   52 1
    57   28   53 1
    58   29   54 1
    59   33   55 1
    60   34   56 1
@<TRIPOS>PROPERTY_DATA
  Total_Score	| 1.0917
  Crash		| -1.8216
  Polar		| 0.0001
  FragIndex	| 1
  FragRMSD	| 1.045

