@<TRIPOS>MOLECULE
BindingDB_30457
 59 62 0 0 0
SMALL
NO_CHARGES


@<TRIPOS>ATOM
1    N        96.0238    9.2250   50.7199  N     
2    C        96.9443    8.3767   51.0368  C     
3    C        97.0778    8.0615   52.3751  C     
4    N        95.1397    9.7137   51.5356  N     
5    C        95.0926    9.2545   52.7993  C     
6    C        96.1367    8.4717   53.2735  C     
7    O        94.1673    9.5789   53.5352  O     
8    C        94.2692   10.7258   50.9739  C     
9    C        93.4009   10.2345   49.7858  C     
10   O        98.2358    7.5706   52.8261  O     
11   C        96.3068    8.2138   54.6098  C     
12   S        97.2383    6.7591   56.7217  S     
13   C        96.4297    6.8446   55.1105  C     
14   N        96.1552    9.2396   55.4441  N     
15   C        96.2864    9.2876   56.7931  C     
16   C        96.7725    8.2027   57.5465  C     
17   O        96.7949    5.4396   57.4988  O     
18   O        98.8139    6.7781   56.4861  O     
19   C        96.8999    8.2966   58.9405  C     
20   C        95.9059   10.4734   57.4601  C     
21   C        95.9867   10.5515   58.8589  C     
22   C        96.5034    9.4739   59.6144  C     
23   C        92.3751    9.1018   50.1274  C     
24   C        91.3317    9.5379   51.1944  C     
25   C        91.6539    8.6100   48.8416  C     
26   C        97.6331    7.7788   49.9982  C     
27   C        97.8684    6.4072   49.7545  C     
28   C        98.4847    6.1181   48.5324  C     
29   C        98.7901    7.2466   47.7610  C     
30   S        98.2394    8.6230   48.6181  S     
31   N        96.5868    9.6685   60.9527  N     
32   S        96.9723    8.4992   62.1164  S     
33   C        98.7412    8.1913   62.2894  C     
34   O        96.4682    9.1088   63.4939  O     
35   O        96.1298    7.1533   61.9473  O     
36   H        93.5962   11.1534   51.7241  H     
37   H        94.8930   11.5619   50.6305  H     
38   H        92.8552   11.0866   49.3870  H     
39   H        94.0817    9.8946   49.0005  H     
40   H        98.3262    6.6733   52.4272  H     
41   H        95.4196    6.4492   55.2546  H     
42   H        96.9554    6.2054   54.3835  H     
43   H        97.2636    7.5082   59.4570  H     
44   H        95.5356   11.2704   56.9372  H     
45   H        95.6620   11.3960   59.3271  H     
46   H        92.9173    8.2316   50.5244  H     
47   H        91.8148    9.7378   52.1515  H     
48   H        90.5902    8.7498   51.3563  H     
49   H        90.8116   10.4383   50.8680  H     
50   H        91.0548    9.4101   48.4019  H     
51   H        90.9995    7.7599   49.0677  H     
52   H        92.3913    8.2793   48.1061  H     
53   H        97.5499    5.6605   50.3826  H     
54   H        98.6795    5.1690   48.2147  H     
55   H        99.2137    7.2592   46.8392  H     
56   H        96.7087   10.6056   61.2375  H     
57   H        99.1015    7.7092   61.3800  H     
58   H        98.9320    7.5450   63.1491  H     
59   H        99.2557    9.1445   62.4285  H     
@<TRIPOS>BOND
     1    1    2 2
     2    1    4 1
     3    2    3 1
     4    2   26 1
     5    3    6 2
     6    3   10 1
     7    4    5 1
     8    4    8 1
     9    5    6 1
    10    5    7 2
    11    6   11 1
    12    8    9 1
    13    9   23 1
    14   11   13 1
    15   11   14 2
    16   12   13 1
    17   12   16 1
    18   12   17 2
    19   12   18 2
    20   14   15 1
    21   15   16 2
    22   15   20 1
    23   16   19 1
    24   19   22 2
    25   20   21 2
    26   21   22 1
    27   22   31 1
    28   23   24 1
    29   23   25 1
    30   26   27 2
    31   26   30 1
    32   27   28 1
    33   28   29 2
    34   29   30 1
    35   31   32 1
    36   32   33 1
    37   32   34 2
    38   32   35 2
    39    8   36 1
    40    8   37 1
    41    9   38 1
    42    9   39 1
    43   10   40 1
    44   13   41 1
    45   13   42 1
    46   19   43 1
    47   20   44 1
    48   21   45 1
    49   23   46 1
    50   24   47 1
    51   24   48 1
    52   24   49 1
    53   25   50 1
    54   25   51 1
    55   25   52 1
    56   27   53 1
    57   28   54 1
    58   29   55 1
    59   31   56 1
    60   33   57 1
    61   33   58 1
    62   33   59 1
@<TRIPOS>PROPERTY_DATA
  Total_Score	| 6.8383
  Crash		| -2.2678
  Polar		| 1.8796
  FragIndex	| 1
  FragRMSD	| 0.576

