@<TRIPOS>MOLECULE
BindingDB_30460
 54 58 0 0 0
SMALL
NO_CHARGES


@<TRIPOS>ATOM
1    N        95.7060    9.0107   50.6782  N     
2    C        96.7210    8.2584   50.9344  C     
3    C        97.0135    8.0036   52.2625  C     
4    N        94.9178    9.5377   51.5622  N     
5    C        95.1467    9.3115   52.8723  C     
6    C        96.2204    8.5055   53.2488  C     
7    O        94.4212    9.8429   53.7081  O     
8    C        93.8721   10.4067   51.0726  C     
9    C        92.4701    9.9906   51.6008  C     
10   O        98.1311    7.3419   52.5654  O     
11   C        96.4866    8.2568   54.5806  C     
12   S        96.9320    6.6657   56.6889  S     
13   C        96.6002    6.9938   55.0463  C     
14   N        96.5674    9.3304   55.3926  N     
15   C        96.6621    9.3526   56.7494  C     
16   C        96.8360    8.1832   57.5194  C     
17   O        95.8656    5.6345   57.2637  O     
18   O        98.3904    6.0487   56.8312  O     
19   C        96.9228    8.2607   58.9219  C     
20   C        96.5430   10.5941   57.4004  C     
21   C        96.5954   10.6681   58.8026  C     
22   C        96.7899    9.5077   59.5810  C     
23   C        97.4249    7.7410   49.8604  C     
24   C        97.8005    6.4097   49.6294  C     
25   C        98.4857    6.1859   48.4250  C     
26   C        98.6974    7.3369   47.6675  C     
27   S        97.9785    8.6515   48.5069  S     
28   N        96.8246    9.6838   60.9353  N     
29   S        96.9981    8.4856   62.1140  S     
30   C        98.6982    7.9767   62.4082  C     
31   O        96.4576    9.1224   63.4668  O     
32   O        96.0249    7.2557   61.8593  O     
33   C        91.4337   11.1249   51.6431  C     
34   C        91.2359    9.9515   50.6786  C     
35   H        94.0979   11.4232   51.4062  H     
36   H        93.8496   10.4309   49.9796  H     
37   H        92.4118    9.3403   52.4787  H     
38   H        98.8241    8.0252   52.6595  H     
39   H        96.5173    6.2204   54.4363  H     
40   H        96.4831   10.1997   54.9674  H     
41   H        97.0756    7.4047   59.4535  H     
42   H        96.3901   11.4494   56.8586  H     
43   H        96.4828   11.5832   59.2503  H     
44   H        97.5617    5.6490   50.2649  H     
45   H        98.7878    5.2608   48.1173  H     
46   H        99.1825    7.3944   46.7681  H     
47   H        96.7420   10.5939   61.2580  H     
48   H        99.1042    7.5278   61.5018  H     
49   H        98.7284    7.2488   63.2186  H     
50   H        99.2976    8.8460   62.6797  H     
51   H        90.7994   11.1346   52.5305  H     
52   H        91.7025   12.0706   51.1711  H     
53   H        91.4099   10.1599   49.6213  H     
54   H        90.4448    9.2485   50.9580  H     
@<TRIPOS>BOND
     1    1    2 2
     2    1    4 1
     3    2    3 1
     4    2   23 1
     5    3    6 2
     6    3   10 1
     7    4    5 1
     8    4    8 1
     9    5    6 1
    10    5    7 2
    11    6   11 1
    12    8    9 1
    13    9   33 1
    14    9   34 1
    15   11   13 2
    16   11   14 1
    17   12   13 1
    18   12   16 1
    19   12   17 2
    20   12   18 2
    21   14   15 1
    22   15   16 2
    23   15   20 1
    24   16   19 1
    25   19   22 2
    26   20   21 2
    27   21   22 1
    28   22   28 1
    29   23   24 2
    30   23   27 1
    31   24   25 1
    32   25   26 2
    33   26   27 1
    34   28   29 1
    35   29   30 1
    36   29   31 2
    37   29   32 2
    38   33   34 1
    39    8   35 1
    40    8   36 1
    41    9   37 1
    42   10   38 1
    43   13   39 1
    44   14   40 1
    45   19   41 1
    46   20   42 1
    47   21   43 1
    48   24   44 1
    49   25   45 1
    50   26   46 1
    51   28   47 1
    52   30   48 1
    53   30   49 1
    54   30   50 1
    55   33   51 1
    56   33   52 1
    57   34   53 1
    58   34   54 1
@<TRIPOS>PROPERTY_DATA
  Total_Score	| 6.4915
  Crash		| -1.6788
  Polar		| 2.0638
  FragIndex	| 1
  FragRMSD	| 0.364

