@<TRIPOS>MOLECULE
BindingDB_30423
 50 53 0 0 0
SMALL
NO_CHARGES


@<TRIPOS>ATOM
1    C        96.8937    8.0780   52.4673  C     
2    C        96.8019    8.4044   51.1320  C     
3    N        95.9303    9.2990   50.8090  N     
4    N        95.0883    9.8689   51.6066  N     
5    C        95.0705    9.5042   52.9067  C     
6    C        96.0274    8.5999   53.3830  C     
7    O        94.1729    9.9038   53.6417  O     
8    C        94.2103   10.8370   50.9897  C     
9    O        97.9733    7.4119   52.8770  O     
10   C        96.1358    8.3128   54.7606  C     
11   S        96.7065    6.5620   56.7299  S     
12   N        96.5082    7.0656   55.1362  N     
13   N        95.8646    9.2694   55.6950  N     
14   C        95.8837    9.1220   57.0579  C     
15   C        96.2687    7.9240   57.7081  C     
16   O        95.7044    5.3656   57.0469  O     
17   O        98.2266    6.1777   57.0019  O     
18   C        96.2703    7.8341   59.1162  C     
19   C        95.4844   10.2237   57.8460  C     
20   C        95.4673   10.1325   59.2512  C     
21   C        95.8647    8.9397   59.8848  C     
22   C        93.4297   10.2750   49.7683  C     
23   C        92.4211    9.1283   50.0827  C     
24   C        91.3461    9.5426   51.1294  C     
25   C        91.7415    8.6202   48.7839  C     
26   C        97.5041    7.8287   50.0856  C     
27   C        98.1141    6.5646   50.0122  C     
28   C        98.7097    6.2550   48.7796  C     
29   C        98.5989    7.2623   47.8224  C     
30   S        97.7251    8.5588   48.5327  S     
31   H        93.4961   11.2509   51.6988  H     
32   H        94.8235   11.6786   50.6560  H     
33   H        98.6509    8.1071   53.0739  H     
34   H        95.6282   10.1488   55.3597  H     
35   H        96.5465    6.9635   59.5839  H     
36   H        95.1924   11.0963   57.3976  H     
37   H        95.1589   10.9294   59.8130  H     
38   H        95.8470    8.8777   60.9082  H     
39   H        92.8913   11.0976   49.2897  H     
40   H        94.1643    9.9163   49.0399  H     
41   H        92.9853    8.2865   50.4911  H     
42   H        91.7995    9.7598   52.0949  H     
43   H        90.6260    8.7364   51.2788  H     
44   H        90.8147   10.4349   50.7917  H     
45   H        91.1063    9.3955   48.3445  H     
46   H        91.1204    7.7447   48.9971  H     
47   H        92.4929    8.3282   48.0450  H     
48   H        98.1044    5.8947   50.7790  H     
49   H        99.1800    5.3676   48.5899  H     
50   H        98.9644    7.2479   46.8698  H     
@<TRIPOS>BOND
     1    1    2 1
     2    1    6 2
     3    1    9 1
     4    2    3 2
     5    2   26 1
     6    3    4 1
     7    4    5 1
     8    4    8 1
     9    5    6 1
    10    5    7 2
    11    6   10 1
    12    8   22 1
    13   10   12 2
    14   10   13 1
    15   11   12 1
    16   11   15 1
    17   11   16 2
    18   11   17 2
    19   13   14 1
    20   14   15 1
    21   14   19 2
    22   15   18 2
    23   18   21 1
    24   19   20 1
    25   20   21 2
    26   22   23 1
    27   23   24 1
    28   23   25 1
    29   26   27 2
    30   26   30 1
    31   27   28 1
    32   28   29 2
    33   29   30 1
    34    8   31 1
    35    8   32 1
    36    9   33 1
    37   13   34 1
    38   18   35 1
    39   19   36 1
    40   20   37 1
    41   21   38 1
    42   22   39 1
    43   22   40 1
    44   23   41 1
    45   24   42 1
    46   24   43 1
    47   24   44 1
    48   25   45 1
    49   25   46 1
    50   25   47 1
    51   27   48 1
    52   28   49 1
    53   29   50 1
@<TRIPOS>PROPERTY_DATA
  Total_Score	| 6.2845
  Crash		| -1.5696
  Polar		| 1.1157
  FragIndex	| 1
  FragRMSD	| 0.784

