@<TRIPOS>MOLECULE
BindingDB_30437
 61 65 0 0 0
SMALL
NO_CHARGES


@<TRIPOS>ATOM
1    C        96.7668    7.7913   52.3471  C     
2    C        96.6182    8.1425   51.0185  C     
3    N        95.7580    9.0667   50.7526  N     
4    N        94.9819    9.6602   51.5988  N     
5    C        95.0656    9.3283   52.9031  C     
6    C        96.0310    8.4122   53.3149  C     
7    O        94.2831    9.8246   53.7090  O     
8    C        94.1282   10.7093   51.0923  C     
9    O        97.8184    7.0399   52.6752  O     
10   C        96.3280    8.2638   54.6781  C     
11   S        96.9914    6.6887   56.7441  S     
12   N        96.5451    7.0216   55.1611  N     
13   N        96.4445    9.3657   55.4701  N     
14   C        96.8467    9.3975   56.7734  C     
15   C        97.2016    8.2336   57.4957  C     
16   O        95.8318    5.9110   57.5055  O     
17   O        98.3719    5.9021   56.7640  O     
18   C        97.6917    8.3221   58.8088  C     
19   C        96.9581   10.6505   57.4181  C     
20   C        97.4009   10.7422   58.7530  C     
21   C        97.7715    9.5713   59.4548  C     
22   C        92.6128   10.3486   51.0677  C     
23   C        92.0048    9.6626   49.7753  C     
24   C        92.9149    9.6520   48.5132  C     
25   C        91.4556    8.2314   50.0732  C     
26   C        97.3424    7.6299   49.9498  C     
27   C        97.7788    6.3152   49.7283  C     
28   C        98.5126    6.1218   48.5411  C     
29   C        98.6892    7.2758   47.7812  C     
30   S        97.9136    8.5573   48.6107  S     
31   N        98.2820    9.6430   60.7096  N     
32   C        97.5890    9.7578   61.8364  C     
33   C        98.2486    9.7705   63.1295  C     
34   O        96.3630    9.7853   61.8348  O     
35   C        99.0567    8.5109   63.4996  C     
36   C        99.7819    9.8509   63.2916  C     
37   H        94.2554   11.5888   51.7182  H     
38   H        94.4421   11.0366   50.0971  H     
39   H        97.4807    6.3354   53.2750  H     
40   H        96.2584   10.2223   55.0598  H     
41   H        97.9727    7.4789   59.3154  H     
42   H        96.7233   11.5113   56.9126  H     
43   H        97.4836   11.6594   59.1967  H     
44   H        92.4019    9.7171   51.9514  H     
45   H        92.0508   11.2865   51.2333  H     
46   H        91.1166   10.2459   49.5006  H     
47   H        93.2130   10.6671   48.2612  H     
48   H        92.3645    9.2523   47.6521  H     
49   H        93.7970    9.0398   48.6753  H     
50   H        92.2622    7.5695   50.3963  H     
51   H        90.9824    7.8067   49.1787  H     
52   H        90.7010    8.2824   50.8655  H     
53   H        97.5565    5.5328   50.3498  H     
54   H        98.8705    5.2091   48.2493  H     
55   H        99.1927    7.3542   46.9011  H     
56   H        99.2344    9.4761   60.7956  H     
57   H        97.6942   10.1771   63.9798  H     
58   H        99.0030    8.1769   64.5365  H     
59   H        99.2403    7.7713   62.7115  H     
60   H       100.3624    9.9529   62.3716  H     
61   H       100.1324   10.3420   64.1978  H     
@<TRIPOS>BOND
     1    1    2 1
     2    1    6 2
     3    1    9 1
     4    2    3 2
     5    2   26 1
     6    3    4 1
     7    4    5 1
     8    4    8 1
     9    5    6 1
    10    5    7 2
    11    6   10 1
    12    8   22 1
    13   10   12 2
    14   10   13 1
    15   11   12 1
    16   11   15 1
    17   11   16 2
    18   11   17 2
    19   13   14 1
    20   14   15 1
    21   14   19 2
    22   15   18 2
    23   18   21 1
    24   19   20 1
    25   20   21 2
    26   21   31 1
    27   22   23 1
    28   23   24 1
    29   23   25 1
    30   26   27 2
    31   26   30 1
    32   27   28 1
    33   28   29 2
    34   29   30 1
    35   31   32 am
    36   32   33 1
    37   32   34 2
    38   33   35 1
    39   33   36 1
    40   35   36 1
    41    8   37 1
    42    8   38 1
    43    9   39 1
    44   13   40 1
    45   18   41 1
    46   19   42 1
    47   20   43 1
    48   22   44 1
    49   22   45 1
    50   23   46 1
    51   24   47 1
    52   24   48 1
    53   24   49 1
    54   25   50 1
    55   25   51 1
    56   25   52 1
    57   27   53 1
    58   28   54 1
    59   29   55 1
    60   31   56 1
    61   33   57 1
    62   35   58 1
    63   35   59 1
    64   36   60 1
    65   36   61 1
@<TRIPOS>PROPERTY_DATA
  Total_Score	| 6.8770
  Crash		| -1.9517
  Polar		| 2.2115
  FragIndex	| 1
  FragRMSD	| 0.613

