@<TRIPOS>MOLECULE
BindingDB_30461
 57 61 0 0 0
SMALL
NO_CHARGES


@<TRIPOS>ATOM
1    N        95.9863    9.1129   50.6622  N     
2    C        96.9221    8.2660   50.9417  C     
3    C        97.1864    8.0382   52.2774  C     
4    N        95.2424    9.7315   51.5258  N     
5    C        95.3646    9.4314   52.8359  C     
6    C        96.3792    8.5668   53.2383  C     
7    O        94.6207    9.9489   53.6645  O     
8    C        94.3092   10.6887   50.9873  C     
9    C        92.9770   10.0804   50.7487  C     
10   O        98.3058    7.4043   52.6382  O     
11   C        96.6266    8.3376   54.5742  C     
12   S        97.1047    6.7560   56.6800  S     
13   C        96.7138    7.0765   55.0504  C     
14   N        96.7216    9.4229   55.3658  N     
15   C        96.8948    9.4596   56.7103  C     
16   C        97.1319    8.2978   57.4740  C     
17   O        95.9841    5.8304   57.3187  O     
18   O        98.5032    6.0053   56.7667  O     
19   C        97.3209    8.3837   58.8697  C     
20   C        96.8259   10.7046   57.3602  C     
21   C        96.9311   10.7834   58.7610  C     
22   C        97.1585    9.6248   59.5318  C     
23   C        97.5254    7.5971   49.8788  C     
24   C        97.9599    8.1431   48.6579  C     
25   C        98.5075    7.2207   47.7477  C     
26   C        98.5073    5.8981   48.1971  C     
27   S        97.8182    5.8984   49.7686  S     
28   N        97.1870    9.7948   60.8885  N     
29   S        97.5667    8.6211   62.0405  S     
30   C        96.6458    7.0740   61.9405  C     
31   O        99.1433    8.3952   62.1257  O     
32   O        97.1428    9.2473   63.4437  O     
33   C        92.1434    9.7211   51.8327  C     
34   C        92.5188    9.8271   49.4344  C     
35   C        91.2696    9.2181   49.2180  C     
36   C        90.4641    8.8484   50.3084  C     
37   C        90.9044    9.0990   51.6189  C     
38   H        94.1984   11.5489   51.6477  H     
39   H        94.7013   11.1099   50.0587  H     
40   H        99.0493    7.9830   52.3702  H     
41   H        96.6000    6.2955   54.4451  H     
42   H        96.6085   10.2883   54.9404  H     
43   H        97.5377    7.5263   59.3930  H     
44   H        96.6541   11.5586   56.8234  H     
45   H        96.8337   11.6959   59.2137  H     
46   H        97.9024    9.1415   48.4372  H     
47   H        98.8693    7.4912   46.8328  H     
48   H        98.8552    5.0799   47.6934  H     
49   H        96.8872   10.6539   61.2308  H     
50   H        95.5985    7.2508   62.1863  H     
51   H        97.0786    6.3599   62.6484  H     
52   H        96.6941    6.6609   60.9245  H     
53   H        92.4252    9.9032   52.7947  H     
54   H        93.0952   10.0800   48.6298  H     
55   H        90.9505    9.0450   48.2623  H     
56   H        89.5595    8.3970   50.1530  H     
57   H        90.3157    8.8368   52.4115  H     
@<TRIPOS>BOND
     1    1    2 2
     2    1    4 1
     3    2    3 1
     4    2   23 1
     5    3    6 2
     6    3   10 1
     7    4    5 1
     8    4    8 1
     9    5    6 1
    10    5    7 2
    11    6   11 1
    12    8    9 1
    13    9   33 1
    14    9   34 2
    15   11   13 2
    16   11   14 1
    17   12   13 1
    18   12   16 1
    19   12   17 2
    20   12   18 2
    21   14   15 1
    22   15   16 2
    23   15   20 1
    24   16   19 1
    25   19   22 2
    26   20   21 2
    27   21   22 1
    28   22   28 1
    29   23   24 2
    30   23   27 1
    31   24   25 1
    32   25   26 2
    33   26   27 1
    34   28   29 1
    35   29   30 1
    36   29   31 2
    37   29   32 2
    38   33   37 2
    39   34   35 1
    40   35   36 2
    41   36   37 1
    42    8   38 1
    43    8   39 1
    44   10   40 1
    45   13   41 1
    46   14   42 1
    47   19   43 1
    48   20   44 1
    49   21   45 1
    50   24   46 1
    51   25   47 1
    52   26   48 1
    53   28   49 1
    54   30   50 1
    55   30   51 1
    56   30   52 1
    57   33   53 1
    58   34   54 1
    59   35   55 1
    60   36   56 1
    61   37   57 1
@<TRIPOS>PROPERTY_DATA
  Total_Score	| 5.6888
  Crash		| -2.4880
  Polar		| 2.3637
  FragIndex	| 1
  FragRMSD	| 0.278

