@<TRIPOS>MOLECULE
BindingDB_30446
 56 60 0 0 0
SMALL
NO_CHARGES


@<TRIPOS>ATOM
1    C        96.9442    7.8271   52.3727  C     
2    C        96.8296    8.2060   51.0524  C     
3    N        95.9699    9.1252   50.7823  N     
4    N        95.1561    9.6772   51.6113  N     
5    C        95.1948    9.3065   52.9124  C     
6    C        96.1450    8.3777   53.3300  C     
7    O        94.3652    9.7555   53.6987  O     
8    C        94.2832   10.6816   51.0370  C     
9    O        97.9672    7.0483   52.7152  O     
10   C        96.2925    8.0409   54.6881  C     
11   S        96.6188    6.1708   56.5925  S     
12   N        96.4833    6.7440   55.0179  N     
13   N        96.2213    9.0025   55.6492  N     
14   C        96.3026    8.8259   57.0054  C     
15   C        96.4816    7.5635   57.6132  C     
16   O        95.4232    5.1754   56.9285  O     
17   O        98.0406    5.4947   56.8276  O     
18   C        96.5498    7.4414   59.0138  C     
19   C        96.1870    9.9595   57.8341  C     
20   C        96.2618    9.8375   59.2341  C     
21   C        96.4523    8.5772   59.8548  C     
22   C        93.4084   10.1903   49.8459  C     
23   C        92.3883    9.0453   50.1508  C     
24   C        91.2823    9.4708   51.1588  C     
25   C        91.7083    8.5815   48.8384  C     
26   C        97.5361    7.6772   49.9846  C     
27   C        97.9493    6.3525   49.7784  C     
28   C        98.6076    6.1218   48.5594  C     
29   C        98.7591    7.2549   47.7617  C     
30   S        98.0156    8.5626   48.5865  S     
31   C        96.5367    8.4666   61.2479  C     
32   N        96.7139    7.7909   63.2326  N     
33   C        96.7041    7.3965   62.0232  C     
34   N        96.4681    9.4250   62.0885  N     
35   N        96.5721    9.0070   63.2377  N     
36   H        93.6313   11.1256   51.7932  H     
37   H        94.9109   11.5008   50.6717  H     
38   H        98.7030    7.6649   52.9195  H     
39   H        96.1041    9.9157   55.3425  H     
40   H        96.6722    6.5086   59.4109  H     
41   H        96.0483   10.8849   57.4217  H     
42   H        96.1785   10.6885   59.7930  H     
43   H        92.8617   11.0476   49.4467  H     
44   H        94.0867    9.8513   49.0631  H     
45   H        92.9328    8.1964   50.5745  H     
46   H        91.7154    9.7473   52.1204  H     
47   H        90.5940    8.6383   51.3326  H     
48   H        90.7123   10.3181   50.7684  H     
49   H        91.0977    9.3832   48.4173  H     
50   H        91.0682    7.7155   49.0246  H     
51   H        92.4620    8.2976   48.1011  H     
52   H        97.7598    5.6028   50.4415  H     
53   H        98.9378    5.1977   48.2787  H     
54   H        99.2161    7.3039   46.8547  H     
55   H        96.8020    6.4508   61.7431  H     
56   H        96.3921   10.3269   61.8610  H     
@<TRIPOS>BOND
     1    1    2 1
     2    1    6 2
     3    1    9 1
     4    2    3 2
     5    2   26 1
     6    3    4 1
     7    4    5 1
     8    4    8 1
     9    5    6 1
    10    5    7 2
    11    6   10 1
    12    8   22 1
    13   10   12 2
    14   10   13 1
    15   11   12 1
    16   11   15 1
    17   11   16 2
    18   11   17 2
    19   13   14 1
    20   14   15 1
    21   14   19 2
    22   15   18 2
    23   18   21 1
    24   19   20 1
    25   20   21 2
    26   21   31 1
    27   22   23 1
    28   23   24 1
    29   23   25 1
    30   26   27 2
    31   26   30 1
    32   27   28 1
    33   28   29 2
    34   29   30 1
    35   31   33 2
    36   31   34 1
    37   32   33 1
    38   32   35 2
    39   34   35 1
    40    8   36 1
    41    8   37 1
    42    9   38 1
    43   13   39 1
    44   18   40 1
    45   19   41 1
    46   20   42 1
    47   22   43 1
    48   22   44 1
    49   23   45 1
    50   24   46 1
    51   24   47 1
    52   24   48 1
    53   25   49 1
    54   25   50 1
    55   25   51 1
    56   27   52 1
    57   28   53 1
    58   29   54 1
    59   33   55 1
    60   34   56 1
@<TRIPOS>PROPERTY_DATA
  Total_Score	| 7.9071
  Crash		| -2.2064
  Polar		| 2.0930
  FragIndex	| 1
  FragRMSD	| 0.854

