@<TRIPOS>MOLECULE
BindingDB_30458
 65 68 0 0 0
SMALL
NO_CHARGES


@<TRIPOS>ATOM
1    N        96.3515    8.9801   50.8302  N     
2    C        97.3336    8.1834   51.0660  C     
3    C        97.6077    7.9009   52.3858  C     
4    N        95.5888    9.5194   51.7328  N     
5    C        95.8134    9.2708   53.0356  C     
6    C        96.8580    8.4332   53.3893  C     
7    O        95.0845    9.7817   53.8785  O     
8    C        94.4289   10.2320   51.2306  C     
9    C        93.1362    9.3808   51.4648  C     
10   O        98.6770    7.1656   52.6535  O     
11   C        97.1466    8.2085   54.7186  C     
12   S        97.5299    6.6847   56.8965  S     
13   C        97.1839    6.9666   55.2384  C     
14   N        97.3151    9.3055   55.4806  N     
15   C        97.4629    9.3793   56.8257  C     
16   C        97.5923    8.2449   57.6533  C     
17   O        96.3942    5.7898   57.5526  O     
18   O        98.9478    5.9742   57.0244  O     
19   C        97.7839    8.3892   59.0396  C     
20   C        97.4895   10.6613   57.4163  C     
21   C        97.6776   10.8058   58.7967  C     
22   C        97.8305    9.6724   59.6326  C     
23   C        91.7833    9.8056   50.7790  C     
24   C        91.4339   11.2942   51.1244  C     
25   C        91.9215    9.6572   49.2347  C     
26   C        98.0281    7.6534   49.9978  C     
27   C        98.1180    6.3094   49.6012  C     
28   C        98.9235    6.0817   48.4787  C     
29   C        99.5263    7.2295   47.9569  C     
30   S        99.0008    8.5619   48.8982  S     
31   N        98.0769    9.8905   60.9499  N     
32   S        97.3458    9.0220   62.1930  S     
33   C        97.5079    7.2300   62.3720  C     
34   O        97.9171    9.6372   63.5335  O     
35   O        95.8056    9.4372   62.2764  O     
36   C        90.6327    8.8453   51.2884  C     
37   C        90.3947    8.7310   52.8240  C     
38   H        94.3067   11.2001   51.7468  H     
39   H        94.5203   10.4260   50.1530  H     
40   H        93.3369    8.3558   51.1242  H     
41   H        92.9615    9.3269   52.5462  H     
42   H        99.4026    7.8139   52.7548  H     
43   H        97.0324    6.1681   54.6704  H     
44   H        97.2926   10.1550   55.0281  H     
45   H        97.9437    7.5643   59.6196  H     
46   H        97.3567   11.5012   56.8401  H     
47   H        97.7107   11.7508   59.2007  H     
48   H        91.2423   11.4390   52.1883  H     
49   H        90.5416   11.6199   50.5872  H     
50   H        92.2600   11.9637   50.8459  H     
51   H        92.5412   10.4371   48.8098  H     
52   H        90.9329    9.7142   48.7344  H     
53   H        92.3396    8.6913   48.9688  H     
54   H        97.6058    5.5563   50.0798  H     
55   H        99.0571    5.1536   48.0753  H     
56   H       100.1573    7.2686   47.1638  H     
57   H        98.3846   10.7838   61.1879  H     
58   H        96.8863    6.7342   61.6283  H     
59   H        97.1559    6.9399   63.3635  H     
60   H        98.5535    6.9346   62.2548  H     
61   H        89.6854    9.1439   50.8274  H     
62   H        90.8413    7.8347   50.9218  H     
63   H        91.2159    8.2037   53.3182  H     
64   H        89.4775    8.1570   53.0236  H     
65   H        90.2866    9.7102   53.2931  H     
@<TRIPOS>BOND
     1    1    2 2
     2    1    4 1
     3    2    3 1
     4    2   26 1
     5    3    6 2
     6    3   10 1
     7    4    5 1
     8    4    8 1
     9    5    6 1
    10    5    7 2
    11    6   11 1
    12    8    9 1
    13    9   23 1
    14   11   13 2
    15   11   14 1
    16   12   13 1
    17   12   16 1
    18   12   17 2
    19   12   18 2
    20   14   15 1
    21   15   16 2
    22   15   20 1
    23   16   19 1
    24   19   22 2
    25   20   21 2
    26   21   22 1
    27   22   31 1
    28   23   24 1
    29   23   25 1
    30   23   36 1
    31   26   27 2
    32   26   30 1
    33   27   28 1
    34   28   29 2
    35   29   30 1
    36   31   32 1
    37   32   33 1
    38   32   34 2
    39   32   35 2
    40   36   37 1
    41    8   38 1
    42    8   39 1
    43    9   40 1
    44    9   41 1
    45   10   42 1
    46   13   43 1
    47   14   44 1
    48   19   45 1
    49   20   46 1
    50   21   47 1
    51   24   48 1
    52   24   49 1
    53   24   50 1
    54   25   51 1
    55   25   52 1
    56   25   53 1
    57   27   54 1
    58   28   55 1
    59   29   56 1
    60   31   57 1
    61   33   58 1
    62   33   59 1
    63   33   60 1
    64   36   61 1
    65   36   62 1
    66   37   63 1
    67   37   64 1
    68   37   65 1
@<TRIPOS>PROPERTY_DATA
  Total_Score	| 4.4277
  Crash		| -4.3167
  Polar		| 1.3766
  FragIndex	| 1
  FragRMSD	| 0.998

