@<TRIPOS>MOLECULE
BindingDB_30464
 62 65 0 0 0
SMALL
NO_CHARGES


@<TRIPOS>ATOM
1    N        95.8348    9.0812   50.7585  N     
2    C        96.7165    8.1843   51.0777  C     
3    C        96.8882    7.8903   52.4140  C     
4    N        95.0327    9.6750   51.5881  N     
5    C        95.0970    9.3519   52.8987  C     
6    C        96.1424    8.5486   53.3401  C     
7    O        94.2684    9.7713   53.7014  O     
8    C        94.1292   10.6602   51.0298  C     
9    C        93.3831   10.1435   49.7614  C     
10   O        97.9125    7.1157   52.7737  O     
11   C        96.5823    8.6459   54.6330  C     
12   S        97.7109   10.0956   56.5815  S     
13   C        97.3054    9.7391   54.9771  C     
14   N        96.2455    7.6903   55.5179  N     
15   C        96.5313    7.6621   56.8535  C     
16   C        97.1970    8.7280   57.5109  C     
17   O        99.2785   10.3526   56.7455  O     
18   O        96.8773   11.3721   57.0427  O     
19   C        97.4371    8.6768   58.8929  C     
20   C        96.1572    6.5295   57.6042  C     
21   C        96.4153    6.4792   58.9898  C     
22   C        97.0569    7.5534   59.6694  C     
23   C        97.4027    7.6117   50.0376  C     
24   N        97.3047    7.5075   61.0221  N     
25   S        98.6631    8.2561   61.7039  S     
26   C        98.3421    9.8668   62.4369  C     
27   O        99.2857    7.3004   62.8164  O     
28   O        99.8295    8.3801   60.6260  O     
29   C        97.6292    6.2435   49.8258  C     
30   C        98.3365    5.9223   48.6447  C     
31   C        98.7438    7.0368   47.8961  C     
32   S        98.1527    8.4316   48.7059  S     
33   C        96.3982    6.8757   61.9373  C     
34   C        92.3195    9.0203   50.0123  C     
35   C        91.1330    9.4654   50.9167  C     
36   C        91.7731    8.5190   48.6397  C     
37   H        93.3822   11.0215   51.7509  H     
38   H        94.7347   11.5360   50.7573  H     
39   H        92.8932   10.9881   49.2841  H     
40   H        94.1423    9.7845   49.0555  H     
41   H        98.6734    7.7484   52.8690  H     
42   H        97.5742   10.4232   54.3133  H     
43   H        95.7796    6.9219   55.1579  H     
44   H        97.8895    9.4747   59.3307  H     
45   H        95.6938    5.7341   57.1432  H     
46   H        96.1434    5.6350   59.5069  H     
47   H        97.9302   10.5508   61.6949  H     
48   H        99.2724   10.2772   62.8269  H     
49   H        97.6300    9.7534   63.2526  H     
50   H        97.2514    5.5105   50.4318  H     
51   H        98.5395    4.9544   48.3509  H     
52   H        99.2765    7.0256   47.0224  H     
53   H        95.4965    6.4716   61.4618  H     
54   H        96.0683    7.5911   62.6957  H     
55   H        96.9116    6.0535   62.4400  H     
56   H        92.8189    8.1728   50.4828  H     
57   H        91.4911    9.7812   51.9027  H     
58   H        90.4222    8.6434   51.0565  H     
59   H        90.6118   10.3042   50.4509  H     
60   H        91.2341    9.3161   48.1266  H     
61   H        91.0992    7.6711   48.7819  H     
62   H        92.6024    8.1966   48.0080  H     
@<TRIPOS>BOND
     1    1    2 2
     2    1    4 1
     3    2    3 1
     4    2   23 1
     5    3    6 2
     6    3   10 1
     7    4    5 1
     8    4    8 1
     9    5    6 1
    10    5    7 2
    11    6   11 1
    12    8    9 1
    13    9   34 1
    14   11   13 2
    15   11   14 1
    16   12   13 1
    17   12   16 1
    18   12   17 2
    19   12   18 2
    20   14   15 1
    21   15   16 2
    22   15   20 1
    23   16   19 1
    24   19   22 2
    25   20   21 2
    26   21   22 1
    27   22   24 1
    28   23   29 2
    29   23   32 1
    30   24   25 1
    31   24   33 1
    32   25   26 1
    33   25   27 2
    34   25   28 2
    35   29   30 1
    36   30   31 2
    37   31   32 1
    38   34   35 1
    39   34   36 1
    40    8   37 1
    41    8   38 1
    42    9   39 1
    43    9   40 1
    44   10   41 1
    45   13   42 1
    46   14   43 1
    47   19   44 1
    48   20   45 1
    49   21   46 1
    50   26   47 1
    51   26   48 1
    52   26   49 1
    53   29   50 1
    54   30   51 1
    55   31   52 1
    56   33   53 1
    57   33   54 1
    58   33   55 1
    59   34   56 1
    60   35   57 1
    61   35   58 1
    62   35   59 1
    63   36   60 1
    64   36   61 1
    65   36   62 1
@<TRIPOS>PROPERTY_DATA
  Total_Score	| 6.5353
  Crash		| -2.9237
  Polar		| 1.1394
  FragIndex	| 1
  FragRMSD	| 0.968

