@<TRIPOS>MOLECULE
BindingDB_30438
 57 60 0 0 0
SMALL
NO_CHARGES


@<TRIPOS>ATOM
1    C        96.9330    7.8667   52.3606  C     
2    C        96.7571    8.1839   51.0342  C     
3    N        95.8559    9.0765   50.7566  N     
4    N        95.0631    9.6553   51.6033  N     
5    C        95.1734    9.3418   52.9108  C     
6    C        96.1669    8.4603   53.3158  C     
7    O        94.3817    9.7962   53.7280  O     
8    C        94.1690   10.6518   51.0527  C     
9    O        97.9994    7.1398   52.7153  O     
10   C        96.4784    8.2851   54.6633  C     
11   S        96.9809    6.6278   56.7006  S     
12   N        96.5176    7.0178   55.1353  N     
13   N        96.7942    9.3595   55.4349  N     
14   C        97.1809    9.3372   56.7431  C     
15   C        97.2969    8.1355   57.4884  C     
16   O        95.7994    5.9077   57.4866  O     
17   O        98.3257    5.7709   56.6950  O     
18   C        97.6778    8.1635   58.8443  C     
19   C        97.4833   10.5589   57.3792  C     
20   C        97.8476   10.5925   58.7337  C     
21   C        97.9266    9.3930   59.4746  C     
22   C        93.3244   10.2127   49.8210  C     
23   C        92.2998    9.0628   50.0804  C     
24   C        91.2010    9.4677   51.0989  C     
25   C        91.6443    8.6017   48.7523  C     
26   C        97.4702    7.6553   49.9691  C     
27   C        97.8565    6.3213   49.7358  C     
28   C        98.5497    6.0984   48.5340  C     
29   C        98.7564    7.2489   47.7745  C     
30   S        98.0330    8.5589   48.6135  S     
31   N        98.2499    9.4061   60.7901  N     
32   C        97.4247    9.7350   61.7696  C     
33   C        97.9455    9.8149   63.1115  C     
34   O        96.2276    9.9266   61.5717  O     
35   H        93.4673   11.0405   51.8006  H     
36   H        94.7807   11.5005   50.7476  H     
37   H        98.7254    7.7916   52.8272  H     
38   H        96.7677   10.2331   55.0057  H     
39   H        97.7350    7.2967   59.3853  H     
40   H        97.4452   11.4341   56.8500  H     
41   H        98.0700   11.4841   59.1811  H     
42   H        92.7891   11.0856   49.4429  H     
43   H        94.0159    9.9045   49.0224  H     
44   H        92.8416    8.2079   50.4856  H     
45   H        91.6258    9.5861   52.0977  H     
46   H        90.4232    8.7045   51.1531  H     
47   H        90.7330   10.4100   50.8021  H     
48   H        91.0647    9.4111   48.3013  H     
49   H        90.9861    7.7506   48.9310  H     
50   H        92.4148    8.2911   48.0434  H     
51   H        97.6305    5.5521   50.3734  H     
52   H        98.8768    5.1769   48.2396  H     
53   H        99.2470    7.3136   46.8834  H     
54   H        99.1591    9.1457   61.0232  H     
55   H        98.3556    8.8477   63.4048  H     
56   H        97.1709   10.1026   63.8242  H     
57   H        98.7400   10.5608   63.1556  H     
@<TRIPOS>BOND
     1    1    2 1
     2    1    6 2
     3    1    9 1
     4    2    3 2
     5    2   26 1
     6    3    4 1
     7    4    5 1
     8    4    8 1
     9    5    6 1
    10    5    7 2
    11    6   10 1
    12    8   22 1
    13   10   12 2
    14   10   13 1
    15   11   12 1
    16   11   15 1
    17   11   16 2
    18   11   17 2
    19   13   14 1
    20   14   15 1
    21   14   19 2
    22   15   18 2
    23   18   21 1
    24   19   20 1
    25   20   21 2
    26   21   31 1
    27   22   23 1
    28   23   24 1
    29   23   25 1
    30   26   27 2
    31   26   30 1
    32   27   28 1
    33   28   29 2
    34   29   30 1
    35   31   32 am
    36   32   33 1
    37   32   34 2
    38    8   35 1
    39    8   36 1
    40    9   37 1
    41   13   38 1
    42   18   39 1
    43   19   40 1
    44   20   41 1
    45   22   42 1
    46   22   43 1
    47   23   44 1
    48   24   45 1
    49   24   46 1
    50   24   47 1
    51   25   48 1
    52   25   49 1
    53   25   50 1
    54   27   51 1
    55   28   52 1
    56   29   53 1
    57   31   54 1
    58   33   55 1
    59   33   56 1
    60   33   57 1
@<TRIPOS>PROPERTY_DATA
  Total_Score	| 6.5636
  Crash		| -2.1154
  Polar		| 2.2821
  FragIndex	| 1
  FragRMSD	| 0.796

