@<TRIPOS>MOLECULE
BindingDB_30459
 60 64 0 0 0
SMALL
NO_CHARGES


@<TRIPOS>ATOM
1    N        95.8876    9.0839   50.6537  N     
2    C        96.5413    7.9866   50.8405  C     
3    C        96.4431    7.4136   52.0952  C     
4    N        95.1133    9.6471   51.4990  N     
5    C        95.0321    9.1334   52.7459  C     
6    C        95.9149    8.1125   53.1446  C     
7    O        94.0510    9.4349   53.4223  O     
8    C        94.3179   10.7547   51.0120  C     
9    C        93.1180   10.3597   50.0892  C     
10   O        96.8846    6.1586   52.2680  O     
11   C        96.2364    7.8934   54.5023  C     
12   S        97.0782    6.4693   56.6508  S     
13   C        96.8886    6.8098   54.9896  C     
14   N        95.9861    8.8970   55.3812  N     
15   C        96.0422    8.9424   56.7290  C     
16   C        96.4949    7.8625   57.5038  C     
17   O        96.2476    5.1654   57.0412  O     
18   O        98.6331    6.2682   56.9518  O     
19   C        96.4924    7.9406   58.9084  C     
20   C        95.5852   10.1127   57.3673  C     
21   C        95.5440   10.1833   58.7644  C     
22   C        95.9916    9.1042   59.5521  C     
23   C        97.3566    7.5617   49.7947  C     
24   C        97.8182    6.2746   49.4729  C     
25   C        98.6565    6.1988   48.3465  C     
26   C        98.8789    7.4195   47.7074  C     
27   S        98.0035    8.6067   48.5851  S     
28   N        95.8268    9.2286   60.8879  N     
29   S        96.9041    8.7410   62.0929  S     
30   C        98.5610    9.4412   61.9424  C     
31   O        96.3178    9.2637   63.4751  O     
32   O        96.9411    7.1598   62.2169  O     
33   C        93.4584   10.2298   48.5823  C     
34   C        92.4044    9.0319   50.4302  C     
35   C        91.5803    8.7249   49.1708  C     
36   C        92.4650    9.1946   48.0037  C     
37   H        93.9056   11.3368   51.8404  H     
38   H        94.9671   11.4481   50.4690  H     
39   H        92.3688   11.1581   50.1763  H     
40   H        97.8684    6.2635   52.2089  H     
41   H        97.3509    6.1788   54.3814  H     
42   H        95.7431    9.7442   54.9911  H     
43   H        96.8073    7.1292   59.4519  H     
44   H        95.2390   10.9069   56.8174  H     
45   H        95.1663   11.0253   59.2086  H     
46   H        97.5497    5.4366   49.9831  H     
47   H        99.0550    5.3194   48.0050  H     
48   H        99.4593    7.5897   46.8892  H     
49   H        94.9509    9.5566   61.1571  H     
50   H        99.0504    9.0414   61.0494  H     
51   H        99.1589    9.1682   62.8225  H     
52   H        98.4999   10.5268   61.8628  H     
53   H        93.3452   11.1982   48.0802  H     
54   H        94.4841    9.8796   48.4259  H     
55   H        93.1203    8.2234   50.5852  H     
56   H        91.7685    9.1313   51.3127  H     
57   H        91.3439    7.6604   49.0937  H     
58   H        90.6481    9.2933   49.1898  H     
59   H        91.8587    9.6389   47.2103  H     
60   H        93.0125    8.3486   47.5792  H     
@<TRIPOS>BOND
     1    1    2 2
     2    1    4 1
     3    2    3 1
     4    2   23 1
     5    3    6 2
     6    3   10 1
     7    4    5 1
     8    4    8 1
     9    5    6 1
    10    5    7 2
    11    6   11 1
    12    8    9 1
    13    9   33 1
    14    9   34 1
    15   11   13 2
    16   11   14 1
    17   12   13 1
    18   12   16 1
    19   12   17 2
    20   12   18 2
    21   14   15 1
    22   15   16 2
    23   15   20 1
    24   16   19 1
    25   19   22 2
    26   20   21 2
    27   21   22 1
    28   22   28 1
    29   23   24 2
    30   23   27 1
    31   24   25 1
    32   25   26 2
    33   26   27 1
    34   28   29 1
    35   29   30 1
    36   29   31 2
    37   29   32 2
    38   33   36 1
    39   34   35 1
    40   35   36 1
    41    8   37 1
    42    8   38 1
    43    9   39 1
    44   10   40 1
    45   13   41 1
    46   14   42 1
    47   19   43 1
    48   20   44 1
    49   21   45 1
    50   24   46 1
    51   25   47 1
    52   26   48 1
    53   28   49 1
    54   30   50 1
    55   30   51 1
    56   30   52 1
    57   33   53 1
    58   33   54 1
    59   34   55 1
    60   34   56 1
    61   35   57 1
    62   35   58 1
    63   36   59 1
    64   36   60 1
@<TRIPOS>PROPERTY_DATA
  Total_Score	| 7.7290
  Crash		| -3.2754
  Polar		| 2.8675
  FragIndex	| 1
  FragRMSD	| 0.793

