@<TRIPOS>MOLECULE
BindingDB_30444
 51 54 0 0 0
SMALL
NO_CHARGES


@<TRIPOS>ATOM
1    C        96.8652    7.9682   52.4561  C     
2    C        96.7735    8.2956   51.1186  C     
3    N        95.9130    9.2051   50.8010  N     
4    N        95.0833    9.7836   51.6016  N     
5    C        95.0883    9.4438   52.9072  C     
6    C        96.0425    8.5457   53.3853  C     
7    O        94.2066    9.8676   53.6485  O     
8    C        94.1960   10.7343   50.9741  C     
9    O        97.9251    7.2493   52.8274  O     
10   C        96.1846    8.2900   54.7680  C     
11   S        96.7782    6.5772   56.7569  S     
12   N        96.5449    7.0444   55.1600  N     
13   N        95.9510    9.2686   55.6939  N     
14   C        96.0357    9.1591   57.0628  C     
15   C        96.4264    7.9705   57.7208  C     
16   O        95.7653    5.4145   57.1556  O     
17   O        98.3036    6.1781   56.9766  O     
18   C        96.5051    7.9175   59.1273  C     
19   C        95.7167   10.2931   57.8417  C     
20   C        95.7842   10.2425   59.2473  C     
21   C        96.1804    9.0532   59.9014  C     
22   C        93.4111   10.1543   49.7572  C     
23   C        92.3640    9.0397   50.0743  C     
24   C        91.3076    9.4864   51.1184  C     
25   C        91.6531    8.5761   48.7699  C     
26   C        97.4672    7.7343   50.0577  C     
27   C        97.8175    6.3892   49.8545  C     
28   C        98.4838    6.1222   48.6448  C     
29   C        98.6890    7.2410   47.8376  C     
30   S        98.0043    8.5865   48.6562  S     
31   C        96.2381    9.0017   61.2063  C     
32   N        96.2827    8.9588   62.3528  N     
33   H        93.4797   11.1576   51.6821  H     
34   H        94.7972   11.5830   50.6336  H     
35   H        97.5669    6.5067   53.3586  H     
36   H        95.6966   10.1456   55.3498  H     
37   H        96.7952    7.0419   59.5816  H     
38   H        95.4272   11.1625   57.3897  H     
39   H        95.5434   11.0774   59.7852  H     
40   H        92.9078   10.9796   49.2492  H     
41   H        94.1422    9.7466   49.0491  H     
42   H        92.9019    8.1783   50.4822  H     
43   H        91.7765    9.7109   52.0771  H     
44   H        90.5806    8.6895   51.2883  H     
45   H        90.7843   10.3804   50.7711  H     
46   H        91.0984    9.4053   48.3256  H     
47   H        90.9576    7.7623   48.9792  H     
48   H        92.3862    8.2202   48.0456  H     
49   H        97.5746    5.6483   50.5128  H     
50   H        98.7777    5.1851   48.3683  H     
51   H        99.1468    7.2589   46.9260  H     
@<TRIPOS>BOND
     1    1    2 1
     2    1    6 2
     3    1    9 1
     4    2    3 2
     5    2   26 1
     6    3    4 1
     7    4    5 1
     8    4    8 1
     9    5    6 1
    10    5    7 2
    11    6   10 1
    12    8   22 1
    13   10   12 2
    14   10   13 1
    15   11   12 1
    16   11   15 1
    17   11   16 2
    18   11   17 2
    19   13   14 1
    20   14   15 1
    21   14   19 2
    22   15   18 2
    23   18   21 1
    24   19   20 1
    25   20   21 2
    26   21   31 1
    27   22   23 1
    28   23   24 1
    29   23   25 1
    30   26   27 2
    31   26   30 1
    32   27   28 1
    33   28   29 2
    34   29   30 1
    35   31   32 3
    36    8   33 1
    37    8   34 1
    38    9   35 1
    39   13   36 1
    40   18   37 1
    41   19   38 1
    42   20   39 1
    43   22   40 1
    44   22   41 1
    45   23   42 1
    46   24   43 1
    47   24   44 1
    48   24   45 1
    49   25   46 1
    50   25   47 1
    51   25   48 1
    52   27   49 1
    53   28   50 1
    54   29   51 1
@<TRIPOS>PROPERTY_DATA
  Total_Score	| 6.8145
  Crash		| -1.6147
  Polar		| 1.2877
  FragIndex	| 1
  FragRMSD	| 0.807

