@<TRIPOS>MOLECULE
BindingDB_30448
 59 62 0 0 0
SMALL
NO_CHARGES


@<TRIPOS>ATOM
1    C        96.8253    8.2471   58.9202  C     
2    C        96.7428    8.1992   57.5169  C     
3    C        96.5475    9.3665   56.7500  C     
4    C        96.4329   10.5972   57.4223  C     
5    C        96.4776   10.6513   58.8265  C     
6    C        96.6858    9.4809   59.6009  C     
7    S        96.9180    6.6894   56.6876  S     
8    C        96.5537    7.0284   55.0510  C     
9    C        96.3325    8.2791   54.5806  C     
10   N        96.4301    9.3485   55.3960  N     
11   N        96.7547    9.6303   60.9476  N     
12   S        96.9639    8.4135   62.0997  S     
13   C        98.6836    7.9580   62.3723  C     
14   O        96.4093    8.9524   63.4910  O     
15   O        96.0591    7.1478   61.7999  O     
16   O        95.8522    5.6168   57.1904  O     
17   O        98.3936    6.1103   56.8339  O     
18   C        96.1209    8.5073   53.2305  C     
19   C        96.9646    7.9788   52.2997  C     
20   C        96.8552    8.3269   50.9744  C     
21   N        95.9669    9.2096   50.6527  N     
22   N        95.1405    9.7527   51.4927  N     
23   C        95.1515    9.4003   52.7926  C     
24   O        97.9408    7.1391   52.6292  O     
25   O        94.2608    9.7947   53.5403  O     
26   C        94.2683   10.7464   50.8996  C     
27   C        93.3984   10.1929   49.7208  C     
28   C        92.3232    9.0927   50.0834  C     
29   C        91.2952    9.5515   51.1660  C     
30   C        91.6076    8.5965   48.7729  C     
31   C        97.5158    7.7459   49.9345  C     
32   C        98.5530    6.1023   48.5677  C     
33   C        98.7731    7.2348   47.7585  C     
34   S        98.0541    8.5927   48.5301  S     
35   C        97.8866    6.3935   49.7768  C     
36   H        96.9799    7.3830   59.4355  H     
37   H        96.2713   11.4585   56.8955  H     
38   H        96.3310   11.5491   59.2879  H     
39   H        96.5837    6.2436   54.4402  H     
40   H        96.4113   10.2164   54.9701  H     
41   H        96.7865   10.5462   61.2662  H     
42   H        99.0835    7.5544   61.4462  H     
43   H        98.7645    7.2079   63.1589  H     
44   H        99.2555    8.8393   62.6583  H     
45   H        98.7071    7.6954   52.8805  H     
46   H        93.6441   11.2583   51.6353  H     
47   H        94.8805   11.5487   50.4792  H     
48   H        92.8618   11.0643   49.2602  H     
49   H        94.0611    9.7547   48.9363  H     
50   H        92.8366    8.2109   50.4956  H     
51   H        91.7784    9.6219   52.1390  H     
52   H        90.5202    8.7938   51.3175  H     
53   H        90.8509   10.5254   50.9065  H     
54   H        90.9903    9.3949   48.3566  H     
55   H        90.9687    7.7254   48.9658  H     
56   H        92.3505    8.3067   48.0221  H     
57   H        98.8486    5.1562   48.2910  H     
58   H        99.2216    7.2589   46.8469  H     
59   H        97.6584    5.6455   50.4598  H     
@<TRIPOS>BOND
     1    1    2 1
     2    1    6 2
     3    2    3 2
     4    2    7 1
     5    3    4 1
     6    3   10 1
     7    4    5 2
     8    5    6 1
     9    6   11 1
    10    7    8 1
    11    7   16 2
    12    7   17 2
    13    8    9 2
    14    9   10 1
    15    9   18 1
    16   11   12 1
    17   12   13 1
    18   12   14 2
    19   12   15 2
    20   18   19 2
    21   18   23 1
    22   19   20 1
    23   19   24 1
    24   20   21 2
    25   20   31 1
    26   21   22 1
    27   22   23 1
    28   22   26 1
    29   23   25 2
    30   26   27 1
    31   27   28 1
    32   28   29 1
    33   28   30 1
    34   31   34 1
    35   31   35 2
    36   32   33 2
    37   32   35 1
    38   33   34 1
    39    1   36 1
    40    4   37 1
    41    5   38 1
    42    8   39 1
    43   10   40 1
    44   11   41 1
    45   13   42 1
    46   13   43 1
    47   13   44 1
    48   24   45 1
    49   26   46 1
    50   26   47 1
    51   27   48 1
    52   27   49 1
    53   28   50 1
    54   29   51 1
    55   29   52 1
    56   29   53 1
    57   30   54 1
    58   30   55 1
    59   30   56 1
    60   32   57 1
    61   33   58 1
    62   35   59 1
@<TRIPOS>PROPERTY_DATA
  Total_Score	| 7.1822
  Crash		| -2.2209
  Polar		| 2.0134
  FragIndex	| 1
  FragRMSD	| 0.513

