@<TRIPOS>MOLECULE
BindingDB_30463
 60 64 0 0 0
SMALL
NO_CHARGES


@<TRIPOS>ATOM
1    N        95.9270    9.2016   50.5870  N     
2    C        96.5629    8.0996   50.8152  C     
3    C        96.4220    7.5449   52.0703  C     
4    N        95.1624    9.7992   51.4501  N     
5    C        95.1847    9.3867   52.7374  C     
6    C        96.0074    8.3165   53.1147  C     
7    O        94.3649    9.8420   53.5298  O     
8    C        94.2551   10.7977   50.9331  C     
9    C        92.9201   10.1889   50.6834  C     
10   O        96.3534    6.2178   52.1639  O     
11   C        96.3675    8.0797   54.4542  C     
12   S        97.0588    6.5718   56.5806  S     
13   C        96.8479    6.9001   54.9167  C     
14   N        96.3560    9.1465   55.2947  N     
15   C        96.5668    9.2157   56.6321  C     
16   C        96.8863    8.0835   57.4040  C     
17   O        95.9189    5.5715   57.0608  O     
18   O        98.4963    5.9423   56.8387  O     
19   C        97.0704    8.1946   58.7951  C     
20   C        96.4530   10.4688   57.2643  C     
21   C        96.6422   10.5821   58.6528  C     
22   C        96.9409    9.4482   59.4393  C     
23   C        97.5549    7.6947   49.9335  C     
24   N        97.0926    9.6525   60.7773  N     
25   S        97.2844    8.4678   61.9623  S     
26   C        98.9897    7.9998   62.3072  C     
27   O        96.6891    9.0780   63.3028  O     
28   O        96.3605    7.2056   61.6716  O     
29   C        97.9190    6.4008   49.5246  C     
30   C        99.0888    6.3248   48.7491  C     
31   C        99.7234    7.5497   48.5294  C     
32   S        98.7584    8.7494   49.2955  S     
33   C       101.0163    7.7639   47.8665  C     
34   C        92.4964    9.9104   49.3629  C     
35   C        92.0933    9.7826   51.7589  C     
36   C        90.8978    9.0817   51.5218  C     
37   C        90.4856    8.8171   50.2056  C     
38   C        91.2815    9.2417   49.1273  C     
39   H        94.1654   11.6408   51.6209  H     
40   H        94.6482   11.2262   50.0062  H     
41   H        95.5879    5.9612   51.6065  H     
42   H        97.1142    6.1700   54.3006  H     
43   H        96.1731   10.0050   54.8851  H     
44   H        97.3075    7.3565   59.3275  H     
45   H        96.2206   11.3045   56.7202  H     
46   H        96.5445   11.5022   59.0885  H     
47   H        97.0108   10.5669   61.0891  H     
48   H        99.4393    7.5722   61.4122  H     
49   H        99.0120    7.2634   63.1117  H     
50   H        99.5552    8.8818   62.6089  H     
51   H        97.3864    5.5652   49.7697  H     
52   H        99.4658    5.4381   48.4082  H     
53   H       101.7769    7.1304   48.3241  H     
54   H       101.3266    8.8025   47.9691  H     
55   H       100.9378    7.5184   46.8100  H     
56   H        93.0775   10.1784   48.5641  H     
57   H        92.3616    9.9772   52.7255  H     
58   H        90.3340    8.7541   52.3084  H     
59   H        89.6132    8.3111   50.0343  H     
60   H        90.9849    9.0517   48.1709  H     
@<TRIPOS>BOND
     1    1    2 2
     2    1    4 1
     3    2    3 1
     4    2   23 1
     5    3    6 2
     6    3   10 1
     7    4    5 1
     8    4    8 1
     9    5    6 1
    10    5    7 2
    11    6   11 1
    12    8    9 1
    13    9   34 1
    14    9   35 2
    15   11   13 2
    16   11   14 1
    17   12   13 1
    18   12   16 1
    19   12   17 2
    20   12   18 2
    21   14   15 1
    22   15   16 2
    23   15   20 1
    24   16   19 1
    25   19   22 2
    26   20   21 2
    27   21   22 1
    28   22   24 1
    29   23   29 2
    30   23   32 1
    31   24   25 1
    32   25   26 1
    33   25   27 2
    34   25   28 2
    35   29   30 1
    36   30   31 2
    37   31   32 1
    38   31   33 1
    39   34   38 2
    40   35   36 1
    41   36   37 2
    42   37   38 1
    43    8   39 1
    44    8   40 1
    45   10   41 1
    46   13   42 1
    47   14   43 1
    48   19   44 1
    49   20   45 1
    50   21   46 1
    51   24   47 1
    52   26   48 1
    53   26   49 1
    54   26   50 1
    55   29   51 1
    56   30   52 1
    57   33   53 1
    58   33   54 1
    59   33   55 1
    60   34   56 1
    61   35   57 1
    62   36   58 1
    63   37   59 1
    64   38   60 1
@<TRIPOS>PROPERTY_DATA
  Total_Score	| 7.5759
  Crash		| -2.2733
  Polar		| 3.2126
  FragIndex	| 1
  FragRMSD	| 0.634

