@<TRIPOS>MOLECULE
BindingDB_30407
 58 61 0 0 0
SMALL
NO_CHARGES


@<TRIPOS>ATOM
1    N        95.9273    9.1557   50.7900  N     
2    C        96.8007    8.2506   51.0787  C     
3    C        96.8920    7.8599   52.3995  C     
4    N        95.0784    9.6843   51.6029  N     
5    C        95.0748    9.2816   52.8924  C     
6    C        96.0535    8.3888   53.3384  C     
7    O        94.2011    9.6773   53.6582  O     
8    C        94.2243   10.6949   51.0156  C     
9    C        93.3846   10.2182   49.7951  C     
10   C        92.3496    9.0793   50.0705  C     
11   C        91.2892    9.4941   51.1251  C     
12   C        91.6356    8.6398   48.7668  C     
13   O        97.9527    7.1387   52.7578  O     
14   C        96.2135    8.1062   54.7133  C     
15   S        96.8413    6.3574   56.6723  S     
16   N        96.6025    6.8530   55.0668  N     
17   N        95.9834    9.0590   55.6602  N     
18   C        96.0355    8.9098   57.0258  C     
19   C        96.4257    7.7120   57.6636  C     
20   O        98.3681    5.9796   56.9293  O     
21   O        95.8448    5.1800   57.0692  O     
22   C        96.4448    7.6127   59.0632  C     
23   C        95.6438   10.0023   57.8271  C     
24   C        95.6661    9.9072   59.2329  C     
25   C        96.0981    8.7164   59.8540  C     
26   C        97.4989    7.7018   50.0079  C     
27   C        97.8509    6.3598   49.7821  C     
28   C        98.5055    6.1120   48.5648  C     
29   C        98.7051    7.2472   47.7784  C     
30   S        98.0265    8.5804   48.6160  S     
31   N        96.1770    8.5953   61.1937  N     
32   S        97.4726    9.1773   62.1038  S     
33   C        98.8060    7.9813   62.2450  C     
34   O        98.0765   10.4906   61.4360  O     
35   O        96.9685    9.5883   63.5533  O     
36   H        93.5420   11.1334   51.7503  H     
37   H        94.8763   11.5104   50.6783  H     
38   H        92.8492   11.0826   49.3854  H     
39   H        94.0786    9.8947   49.0154  H     
40   H        92.8887    8.2085   50.4547  H     
41   H        91.7511    9.6934   52.0919  H     
42   H        90.5527    8.6994   51.2607  H     
43   H        90.7661   10.3957   50.7950  H     
44   H        91.0675    9.4650   48.3339  H     
45   H        90.9475    7.8110   48.9638  H     
46   H        92.3660    8.3010   48.0305  H     
47   H        97.6057    6.4018   53.2947  H     
48   H        95.7811    9.9422   55.3408  H     
49   H        96.7235    6.7357   59.5115  H     
50   H        95.3301   10.8732   57.3911  H     
51   H        95.3519   10.7023   59.7960  H     
52   H        97.6158    5.6089   50.4315  H     
53   H        98.7930    5.1791   48.2726  H     
54   H        99.1528    7.2831   46.8663  H     
55   H        95.6201    7.8978   61.6178  H     
56   H        98.4344    7.0857   62.7434  H     
57   H        99.6193    8.4117   62.8298  H     
58   H        99.1630    7.7215   61.2491  H     
@<TRIPOS>BOND
     1    1    2 2
     2    1    4 1
     3    2    3 1
     4    2   26 1
     5    3    6 2
     6    3   13 1
     7    4    5 1
     8    4    8 1
     9    5    6 1
    10    5    7 2
    11    6   14 1
    12    8    9 1
    13    9   10 1
    14   10   11 1
    15   10   12 1
    16   14   16 2
    17   14   17 1
    18   15   16 1
    19   15   19 1
    20   15   20 2
    21   15   21 2
    22   17   18 1
    23   18   19 2
    24   18   23 1
    25   19   22 1
    26   22   25 2
    27   23   24 2
    28   24   25 1
    29   25   31 1
    30   26   27 2
    31   26   30 1
    32   27   28 1
    33   28   29 2
    34   29   30 1
    35   31   32 1
    36   32   33 1
    37   32   34 2
    38   32   35 2
    39    8   36 1
    40    8   37 1
    41    9   38 1
    42    9   39 1
    43   10   40 1
    44   11   41 1
    45   11   42 1
    46   11   43 1
    47   12   44 1
    48   12   45 1
    49   12   46 1
    50   13   47 1
    51   17   48 1
    52   22   49 1
    53   23   50 1
    54   24   51 1
    55   27   52 1
    56   28   53 1
    57   29   54 1
    58   31   55 1
    59   33   56 1
    60   33   57 1
    61   33   58 1
@<TRIPOS>PROPERTY_DATA
  Total_Score	| 7.9824
  Crash		| -1.9784
  Polar		| 1.8787
  FragIndex	| 1
  FragRMSD	| 0.855

