@<TRIPOS>MOLECULE
BindingDB_50330427
 25 26 0 0 0
SMALL
NO_CHARGES


@<TRIPOS>ATOM
1    C         5.7634   -5.0460   16.1925  C     
2    C         5.2007   -6.1094   15.4496  C     
3    C         4.5242   -7.1274   16.1580  C     
4    C         4.4188   -7.0950   17.5561  C     
5    C         4.9889   -6.0270   18.2810  C     
6    C         5.6691   -4.9782   17.6060  C     
7    C         6.2571   -3.8796   18.2888  C     
8    O         6.1099   -3.6556   19.6149  O     
9    O         7.0288   -2.9752   17.6396  O     
10   O         4.8632   -6.0495   19.6355  O     
11   Cl        3.5903   -8.3559   18.3313  Cl    
12   C         5.3113   -6.1701   14.0281  C     
13   C         6.5697   -6.0545   13.3915  C     
14   C         6.6864   -6.1837   11.9947  C     
15   C         5.5428   -6.4263   11.2139  C     
16   C         4.2822   -6.5136   11.8257  C     
17   C         4.1667   -6.3783   13.2205  C     
18   H         6.2300   -4.2943   15.6751  H     
19   H         4.1113   -7.9128   15.6485  H     
20   H         4.4311   -5.2006   19.8698  H     
21   H         7.4215   -5.9069   13.9419  H     
22   H         7.6039   -6.1126   11.5462  H     
23   H         5.6266   -6.5365   10.2010  H     
24   H         3.4442   -6.6702   11.2580  H     
25   H         3.2377   -6.4238   13.6465  H     
@<TRIPOS>BOND
     1    1    2 2
     2    1    6 1
     3    2    3 1
     4    2   12 1
     5    3    4 2
     6    4    5 1
     7    4   11 1
     8    5    6 2
     9    5   10 1
    10    6    7 1
    11    7    8 1
    12    7    9 2
    13   12   13 2
    14   12   17 1
    15   13   14 1
    16   14   15 2
    17   15   16 1
    18   16   17 2
    19    1   18 1
    20    3   19 1
    21   10   20 1
    22   13   21 1
    23   14   22 1
    24   15   23 1
    25   16   24 1
    26   17   25 1
@<TRIPOS>PROPERTY_DATA
  Total_Score	| 8.7511
  Crash		| -0.5906
  Polar		| 4.3365
  FragIndex	| 1
  FragRMSD	| 0.059

