@<TRIPOS>MOLECULE
BindingDB_50219490
 25 26 0 0 0
SMALL
NO_CHARGES


@<TRIPOS>ATOM
1    C         4.2514   -6.4568   11.8103  C     
2    C         5.5125   -6.3961   11.1931  C     
3    C         6.6663   -6.1921   11.9712  C     
4    C         6.5584   -6.0670   13.3721  C     
5    C         5.2981   -6.1629   14.0140  C     
6    C         4.1448   -6.3369   13.2088  C     
7    C         5.1932   -6.1014   15.4319  C     
8    C         4.4454   -7.0643   16.1502  C     
9    C         4.3384   -7.0049   17.5450  C     
10   C         4.9633   -5.9746   18.2608  C     
11   C         5.7079   -4.9736   17.5755  C     
12   C         5.8205   -5.0655   16.1627  C     
13   C         6.2976   -3.8749   18.2614  C     
14   O         7.1101   -2.9995   17.6214  O     
15   O         6.0243   -3.5484   19.5335  O     
16   O         4.8413   -5.9806   19.6125  O     
17   Br        3.3122   -8.2879   18.4244  Br    
18   H         3.4073   -6.5819   11.2411  H     
19   H         5.5922   -6.4974   10.1797  H     
20   H         7.5861   -6.1482   11.5213  H     
21   H         7.4153   -5.9483   13.9175  H     
22   H         3.2153   -6.3680   13.6325  H     
23   H         3.9728   -7.8212   15.6518  H     
24   H         6.3351   -4.3427   15.6474  H     
25   H         4.4395   -5.1114   19.8397  H     
@<TRIPOS>BOND
     1    1    2 2
     2    1    6 1
     3    2    3 1
     4    3    4 2
     5    4    5 1
     6    5    6 2
     7    5    7 1
     8    7    8 2
     9    7   12 1
    10    8    9 1
    11    9   10 2
    12    9   17 1
    13   10   11 1
    14   10   16 1
    15   11   12 2
    16   11   13 1
    17   13   14 1
    18   13   15 2
    19    1   18 1
    20    2   19 1
    21    3   20 1
    22    4   21 1
    23    6   22 1
    24    8   23 1
    25   12   24 1
    26   16   25 1
@<TRIPOS>PROPERTY_DATA
  Total_Score	| 8.8977
  Crash		| -0.7041
  Polar		| 4.3238
  FragIndex	| 1
  FragRMSD	| 0.807

