@<TRIPOS>MOLECULE
BindingDB_50330431
 37 38 0 0 0
SMALL
NO_CHARGES


@<TRIPOS>ATOM
1    C         5.2256   -4.8868   16.5999  C     
2    C         4.5330   -5.9219   15.9404  C     
3    C         3.8417   -6.8869   16.6962  C     
4    C         3.8965   -6.8508   18.0998  C     
5    C         4.6417   -5.8421   18.7545  C     
6    C         5.3092   -4.8320   18.0084  C     
7    C         6.1022   -3.8072   18.5938  C     
8    O         6.9125   -3.0216   17.8480  O     
9    O         6.1173   -3.5448   19.9174  O     
10   O         4.7629   -5.9296   20.1010  O     
11   Cl        3.1244   -8.0940   18.9571  Cl    
12   C         4.7846   -6.1547   14.5766  C     
13   C         3.7710   -6.3693   13.6215  C     
14   C         4.1095   -6.6879   12.2916  C     
15   C         5.4629   -6.8340   11.9109  C     
16   C         6.4624   -6.6344   12.8829  C     
17   C         6.1321   -6.2620   14.1866  C     
18   C         5.8706   -7.1504   10.5239  C     
19   C         7.1019   -6.3378   10.0300  C     
20   C         6.9897   -4.7932   10.1841  C     
21   C         7.3780   -4.2427   11.5782  C     
22   H         5.7284   -4.1994   16.0289  H     
23   H         3.3646   -7.6636   16.2265  H     
24   H         4.8867   -5.0133   20.4163  H     
25   H         2.7868   -6.2890   13.8852  H     
26   H         3.3617   -6.8223   11.6073  H     
27   H         7.4500   -6.7113   12.6424  H     
28   H         6.8936   -6.1007   14.8540  H     
29   H         6.1129   -8.2158   10.4719  H     
30   H         5.0386   -6.9777    9.8401  H     
31   H         8.0157   -6.6956   10.5063  H     
32   H         7.2300   -6.5701    8.9770  H     
33   H         7.6512   -4.3353    9.4484  H     
34   H         5.9752   -4.4658    9.9451  H     
35   H         6.5787   -4.3915   12.3001  H     
36   H         7.5638   -3.1695   11.5101  H     
37   H         8.2728   -4.7366   11.9614  H     
@<TRIPOS>BOND
     1    1    2 2
     2    1    6 1
     3    2    3 1
     4    2   12 1
     5    3    4 2
     6    4    5 1
     7    4   11 1
     8    5    6 2
     9    5   10 1
    10    6    7 1
    11    7    8 1
    12    7    9 2
    13   12   13 2
    14   12   17 1
    15   13   14 1
    16   14   15 2
    17   15   16 1
    18   15   18 1
    19   16   17 2
    20   18   19 1
    21   19   20 1
    22   20   21 1
    23    1   22 1
    24    3   23 1
    25   10   24 1
    26   13   25 1
    27   14   26 1
    28   16   27 1
    29   17   28 1
    30   18   29 1
    31   18   30 1
    32   19   31 1
    33   19   32 1
    34   20   33 1
    35   20   34 1
    36   21   35 1
    37   21   36 1
    38   21   37 1
@<TRIPOS>PROPERTY_DATA
  Total_Score	| 3.3352
  Crash		| -9.1503
  Polar		| 3.7615
  FragIndex	| 1
  FragRMSD	| 1.047

