@<TRIPOS>MOLECULE
BindingDB_50330432
 37 38 0 0 0
SMALL
NO_CHARGES


@<TRIPOS>ATOM
1    C         5.2031   -4.8286   16.8047  C     
2    C         4.4335   -5.8056   16.1421  C     
3    C         3.7589   -6.7872   16.8904  C     
4    C         3.8963   -6.8207   18.2877  C     
5    C         4.7023   -5.8607   18.9454  C     
6    C         5.3568   -4.8348   18.2077  C     
7    C         6.1886   -3.8390   18.7896  C     
8    O         6.2635   -3.6328   20.1234  O     
9    O         6.9776   -3.0386   18.0340  O     
10   O         4.8965   -6.0170   20.2782  O     
11   Cl        3.1319   -8.0840   19.1229  Cl    
12   C         4.5373   -5.9405   14.7481  C     
13   C         5.8333   -6.0612   14.2099  C     
14   C         6.0019   -6.3569   12.8583  C     
15   C         4.8977   -6.4770   11.9923  C     
16   C         3.5996   -6.3189   12.5288  C     
17   C         3.4150   -6.0706   13.9030  C     
18   C         5.0863   -6.8260   10.5620  C     
19   C         6.4538   -6.4546    9.8971  C     
20   C         6.8651   -4.9650   10.0599  C     
21   C         7.6245   -7.4275   10.2227  C     
22   H         5.7005   -4.1307   16.2394  H     
23   H         3.2330   -7.5261   16.4147  H     
24   H         5.0578   -5.1239   20.6419  H     
25   H         6.6692   -5.9929   14.8048  H     
26   H         6.9498   -6.5035   12.5365  H     
27   H         2.7747   -6.4299   11.9328  H     
28   H         2.4666   -6.0005   14.2828  H     
29   H         4.9024   -7.9020   10.4479  H     
30   H         4.2993   -6.3285    9.9809  H     
31   H         6.2743   -6.6030    8.8342  H     
32   H         6.0137   -4.3192    9.8460  H     
33   H         7.6600   -4.7172    9.3589  H     
34   H         7.2234   -4.7553   11.0664  H     
35   H         8.2149   -7.0961   11.0779  H     
36   H         8.3011   -7.4838    9.3745  H     
37   H         7.2496   -8.4338   10.4181  H     
@<TRIPOS>BOND
     1    1    2 2
     2    1    6 1
     3    2    3 1
     4    2   12 1
     5    3    4 2
     6    4    5 1
     7    4   11 1
     8    5    6 2
     9    5   10 1
    10    6    7 1
    11    7    8 1
    12    7    9 2
    13   12   13 2
    14   12   17 1
    15   13   14 1
    16   14   15 2
    17   15   16 1
    18   15   18 1
    19   16   17 2
    20   18   19 1
    21   19   20 1
    22   19   21 1
    23    1   22 1
    24    3   23 1
    25   10   24 1
    26   13   25 1
    27   14   26 1
    28   16   27 1
    29   17   28 1
    30   18   29 1
    31   18   30 1
    32   19   31 1
    33   20   32 1
    34   20   33 1
    35   20   34 1
    36   21   35 1
    37   21   36 1
    38   21   37 1
@<TRIPOS>PROPERTY_DATA
  Total_Score	| 1.2315
  Crash		| -9.6473
  Polar		| 3.1164
  FragIndex	| 1
  FragRMSD	| 0.911

