@<TRIPOS>MOLECULE
BindingDB_50330428
 28 29 0 0 0
SMALL
NO_CHARGES


@<TRIPOS>ATOM
1    C         5.6389   -5.0359   16.2340  C     
2    C         5.0492   -6.0942   15.5036  C     
3    C         4.4018   -7.1209   16.2242  C     
4    C         4.3435   -7.0979   17.6272  C     
5    C         4.9272   -6.0299   18.3441  C     
6    C         5.5930   -4.9775   17.6516  C     
7    C         6.2083   -3.8827   18.3170  C     
8    O         6.0229   -3.6197   19.6291  O     
9    O         7.0252   -3.0234   17.6632  O     
10   O         4.8534   -6.0641   19.7014  O     
11   Cl        3.5461   -8.3690   18.4254  Cl    
12   C         5.1065   -6.1359   14.0822  C     
13   C         3.9359   -6.3812   13.3209  C     
14   C         3.9957   -6.4989   11.9217  C     
15   C         5.2191   -6.3364   11.2562  C     
16   C         6.3878   -6.0220   11.9841  C     
17   C         6.3268   -5.9492   13.3948  C     
18   C         7.6400   -5.7310   11.2595  C     
19   H         6.0844   -4.2710   15.7113  H     
20   H         3.9630   -7.8958   15.7255  H     
21   H         4.4630   -5.2014   19.9568  H     
22   H         3.0247   -6.4708   13.7860  H     
23   H         3.1427   -6.6829   11.3956  H     
24   H         5.2438   -6.4024   10.2328  H     
25   H         7.1855   -5.7667   13.9252  H     
26   H         7.9726   -6.6128   10.7125  H     
27   H         8.4343   -5.4252   11.9380  H     
28   H         7.4729   -4.9168   10.5548  H     
@<TRIPOS>BOND
     1    1    2 2
     2    1    6 1
     3    2    3 1
     4    2   12 1
     5    3    4 2
     6    4    5 1
     7    4   11 1
     8    5    6 2
     9    5   10 1
    10    6    7 1
    11    7    8 1
    12    7    9 2
    13   12   13 2
    14   12   17 1
    15   13   14 1
    16   14   15 2
    17   15   16 1
    18   16   17 2
    19   16   18 1
    20    1   19 1
    21    3   20 1
    22   10   21 1
    23   13   22 1
    24   14   23 1
    25   15   24 1
    26   17   25 1
    27   18   26 1
    28   18   27 1
    29   18   28 1
@<TRIPOS>PROPERTY_DATA
  Total_Score	| 10.1181
  Crash		| -1.1675
  Polar		| 4.3731
  FragIndex	| 1
  FragRMSD	| 0.208

