@<TRIPOS>MOLECULE
BindingDB_50240769
 25 26 0 0 0
SMALL
NO_CHARGES


@<TRIPOS>ATOM
1    C         4.3169   -6.8875   17.5127  C     
2    C         4.4409   -6.9729   16.1186  C     
3    C         5.1762   -6.0103   15.3853  C     
4    C         5.8038   -4.9474   16.0969  C     
5    C         5.6908   -4.8550   17.5154  C     
6    C         4.9151   -5.8224   18.1980  C     
7    C         6.2939   -3.8099   18.2600  C     
8    O         7.2540   -3.0236   17.7242  O     
9    O         6.0532   -3.6083   19.5778  O     
10   O         6.4914   -3.9923   15.4048  O     
11   C         5.2903   -6.1543   13.9715  C     
12   C         4.1477   -6.3666   13.1474  C     
13   C         4.2805   -6.5518   11.7590  C     
14   C         5.5563   -6.4922   11.1661  C     
15   C         6.6992   -6.2594   11.9628  C     
16   C         6.5605   -6.0853   13.3584  C     
17   Br        3.2961   -8.1393   18.4423  Br    
18   H         3.9900   -7.7610   15.6462  H     
19   H         4.7848   -5.7738   19.2153  H     
20   H         5.9629   -3.8038   14.6024  H     
21   H         3.2045   -6.3894   13.5567  H     
22   H         3.4440   -6.7052   11.1759  H     
23   H         5.6532   -6.6211   10.1563  H     
24   H         7.6236   -6.2108   11.5188  H     
25   H         7.3988   -5.9384   13.9389  H     
@<TRIPOS>BOND
     1    1    2 2
     2    1    6 1
     3    1   17 1
     4    2    3 1
     5    3    4 2
     6    3   11 1
     7    4    5 1
     8    4   10 1
     9    5    6 2
    10    5    7 1
    11    7    8 1
    12    7    9 2
    13   11   12 2
    14   11   16 1
    15   12   13 1
    16   13   14 2
    17   14   15 1
    18   15   16 2
    19    2   18 1
    20    6   19 1
    21   10   20 1
    22   12   21 1
    23   13   22 1
    24   14   23 1
    25   15   24 1
    26   16   25 1
@<TRIPOS>PROPERTY_DATA
  Total_Score	| 7.7240
  Crash		| -0.6829
  Polar		| 3.0333
  FragIndex	| 1
  FragRMSD	| 0.845

