@<TRIPOS>MOLECULE
BindingDB_50330429
 28 29 0 0 0
SMALL
NO_CHARGES


@<TRIPOS>ATOM
1    C         5.8822   -5.0341   16.5011  C     
2    C         5.4016   -6.1274   15.7491  C     
3    C         4.6750   -7.1327   16.4301  C     
4    C         4.4335   -7.0424   17.8089  C     
5    C         4.9597   -5.9636   18.5474  C     
6    C         5.7168   -4.9463   17.8957  C     
7    C         6.3062   -3.8542   18.5857  C     
8    O         6.2005   -3.6692   19.9195  O     
9    O         7.0454   -2.9303   17.9223  O     
10   O         4.7393   -5.9460   19.8807  O     
11   Cl        3.5076   -8.2598   18.5473  Cl    
12   C         5.6454   -6.1966   14.3541  C     
13   C         6.9224   -5.8684   13.8302  C     
14   C         7.1699   -5.9198   12.4563  C     
15   C         6.1641   -6.3615   11.5745  C     
16   C         4.8822   -6.6824   12.0813  C     
17   C         4.6216   -6.5689   13.4534  C     
18   C         6.4834   -6.4718   10.1457  C     
19   H         6.3751   -4.2831   16.0009  H     
20   H         4.3243   -7.9454   15.9216  H     
21   H         4.4781   -5.0279   20.0871  H     
22   H         7.6927   -5.5955   14.4453  H     
23   H         8.0937   -5.6521   12.1001  H     
24   H         4.1317   -6.9889   11.4561  H     
25   H         3.6746   -6.7560   13.7885  H     
26   H         6.7465   -5.4898    9.7473  H     
27   H         5.6224   -6.8607    9.6082  H     
28   H         7.3246   -7.1530    9.9969  H     
@<TRIPOS>BOND
     1    1    2 2
     2    1    6 1
     3    2    3 1
     4    2   12 1
     5    3    4 2
     6    4    5 1
     7    4   11 1
     8    5    6 2
     9    5   10 1
    10    6    7 1
    11    7    8 1
    12    7    9 2
    13   12   13 2
    14   12   17 1
    15   13   14 1
    16   14   15 2
    17   15   16 1
    18   15   18 1
    19   16   17 2
    20    1   19 1
    21    3   20 1
    22   10   21 1
    23   13   22 1
    24   14   23 1
    25   16   24 1
    26   17   25 1
    27   18   26 1
    28   18   27 1
    29   18   28 1
@<TRIPOS>PROPERTY_DATA
  Total_Score	| 6.7393
  Crash		| -2.4630
  Polar		| 3.6764
  FragIndex	| 1
  FragRMSD	| 0.427

