@<TRIPOS>MOLECULE
BindingDB_26269
 15 15 0 0 0
SMALL
NO_CHARGES


@<TRIPOS>ATOM
1    C         5.5927   -4.9748   17.6327  C     
2    C         4.9344   -6.0215   18.3366  C     
3    C         4.3441   -7.0967   17.6348  C     
4    C         4.3965   -7.1328   16.2304  C     
5    C         5.0356   -6.1054   15.5185  C     
6    C         5.6281   -5.0381   16.2166  C     
7    Cl        3.5436   -8.3532   18.4459  Cl    
8    Cl        5.0773   -6.1484   13.8266  Cl    
9    O         4.8618   -6.0401   19.6936  O     
10   C         6.2078   -3.8743   18.2913  C     
11   O         7.0084   -3.0095   17.6318  O     
12   O         6.0662   -3.6247   19.6117  O     
13   H         3.9593   -7.9039   15.7239  H     
14   H         6.0779   -4.2959   15.6741  H     
15   H         4.4852   -5.1713   19.9435  H     
@<TRIPOS>BOND
     1    1    2 1
     2    1    6 2
     3    1   10 1
     4    2    3 2
     5    2    9 1
     6    3    4 1
     7    3    7 1
     8    4    5 2
     9    5    6 1
    10    5    8 1
    11   10   11 2
    12   10   12 1
    13    4   13 1
    14    6   14 1
    15    9   15 1
@<TRIPOS>PROPERTY_DATA
  Total_Score	| 5.8318
  Crash		| -0.3946
  Polar		| 4.3846
  FragIndex	| 1
  FragRMSD	| 0.120

