@<TRIPOS>MOLECULE
BindingDB_50330424
 29 30 0 0 0
SMALL
NO_CHARGES


@<TRIPOS>ATOM
1    C         5.7852   -5.0279   16.3723  C     
2    C         5.3288   -6.1186   15.5998  C     
3    C         4.6079   -7.1480   16.2427  C     
4    C         4.3766   -7.0993   17.6347  C     
5    C         4.8740   -6.0142   18.3971  C     
6    C         5.5882   -4.9520   17.7696  C     
7    C         6.1529   -3.8530   18.4678  C     
8    O         6.9903   -2.9727   17.8668  O     
9    O         5.9468   -3.6484   19.7827  O     
10   O         4.6808   -6.0596   19.7443  O     
11   Cl        3.5421   -8.3869   18.3586  Cl    
12   C         5.7013   -6.2027   14.2361  C     
13   C         4.7707   -6.5785   13.2428  C     
14   C         5.1302   -6.5372   11.8849  C     
15   C         6.4375   -6.1673   11.5078  C     
16   C         7.3894   -5.8652   12.5015  C     
17   C         7.0242   -5.8824   13.8513  C     
18   O         6.7914   -5.9549   10.2040  O     
19   C         6.6523   -4.5920    9.7576  C     
20   F         7.1633   -4.5012    8.4863  F     
21   F         5.3290   -4.1827    9.6896  F     
22   F         7.3731   -3.6781   10.5257  F     
23   H         6.2915   -4.2722   15.8948  H     
24   H         4.2941   -7.9589   15.6982  H     
25   H         4.3885   -5.1540   20.0020  H     
26   H         3.8091   -6.8212   13.4797  H     
27   H         4.4576   -6.7674   11.1569  H     
28   H         8.3533   -5.6179   12.2567  H     
29   H         7.7118   -5.6246   14.5703  H     
@<TRIPOS>BOND
     1    1    2 2
     2    1    6 1
     3    2    3 1
     4    2   12 1
     5    3    4 2
     6    4    5 1
     7    4   11 1
     8    5    6 2
     9    5   10 1
    10    6    7 1
    11    7    8 1
    12    7    9 2
    13   12   13 2
    14   12   17 1
    15   13   14 1
    16   14   15 2
    17   15   16 1
    18   15   18 1
    19   16   17 2
    20   18   19 1
    21   19   20 1
    22   19   21 1
    23   19   22 1
    24    1   23 1
    25    3   24 1
    26   10   25 1
    27   13   26 1
    28   14   27 1
    29   16   28 1
    30   17   29 1
@<TRIPOS>PROPERTY_DATA
  Total_Score	| 2.8611
  Crash		| -6.4167
  Polar		| 3.9560
  FragIndex	| 1
  FragRMSD	| 0.907

