@<TRIPOS>MOLECULE
BindingDB_50330430
 35 36 0 0 0
SMALL
NO_CHARGES


@<TRIPOS>ATOM
1    C         5.5459   -4.9576   16.6962  C     
2    C         4.9516   -6.0078   15.9684  C     
3    C         4.2323   -7.0069   16.6511  C     
4    C         4.1482   -6.9772   18.0546  C     
5    C         4.8037   -5.9539   18.7830  C     
6    C         5.5045   -4.9183   18.1060  C     
7    C         6.1956   -3.8602   18.7603  C     
8    O         6.0356   -3.5858   20.0733  O     
9    O         7.0517   -3.0559   18.0844  O     
10   O         4.7714   -6.0250   20.1347  O     
11   Cl        3.2912   -8.2199   18.8248  Cl    
12   C         5.1845   -6.0855   14.5836  C     
13   C         6.5017   -5.8880   14.1088  C     
14   C         6.7748   -5.9406   12.7416  C     
15   C         5.7406   -6.1726   11.8132  C     
16   C         4.4239   -6.3899   12.2828  C     
17   C         4.1508   -6.3601   13.6606  C     
18   C         6.0690   -6.2426   10.3700  C     
19   C         7.0053   -5.0697    9.9710  C     
20   O         6.6853   -7.5127   10.0449  O     
21   C         5.9583   -8.6882   10.4694  C     
22   H         6.0395   -4.2214   16.1778  H     
23   H         3.7951   -7.7754   16.1308  H     
24   H         4.7784   -5.0933   20.4383  H     
25   H         7.2815   -5.7263   14.7530  H     
26   H         7.7407   -5.8110   12.4323  H     
27   H         3.6607   -6.5816   11.6278  H     
28   H         3.1901   -6.5134   13.9842  H     
29   H         5.1554   -6.1293    9.7765  H     
30   H         6.5432   -4.1093   10.2161  H     
31   H         7.2139   -5.0889    8.9032  H     
32   H         7.9638   -5.1352   10.4929  H     
33   H         5.9801   -8.7956   11.5541  H     
34   H         6.4311   -9.5694   10.0426  H     
35   H         4.9165   -8.6560   10.1443  H     
@<TRIPOS>BOND
     1    1    2 2
     2    1    6 1
     3    2    3 1
     4    2   12 1
     5    3    4 2
     6    4    5 1
     7    4   11 1
     8    5    6 2
     9    5   10 1
    10    6    7 1
    11    7    8 1
    12    7    9 2
    13   12   13 2
    14   12   17 1
    15   13   14 1
    16   14   15 2
    17   15   16 1
    18   15   18 1
    19   16   17 2
    20   18   19 1
    21   18   20 1
    22   20   21 1
    23    1   22 1
    24    3   23 1
    25   10   24 1
    26   13   25 1
    27   14   26 1
    28   16   27 1
    29   17   28 1
    30   18   29 1
    31   19   30 1
    32   19   31 1
    33   19   32 1
    34   21   33 1
    35   21   34 1
    36   21   35 1
@<TRIPOS>PROPERTY_DATA
  Total_Score	| 4.4364
  Crash		| -5.7127
  Polar		| 3.1501
  FragIndex	| 1
  FragRMSD	| 0.565

