@<TRIPOS>MOLECULE
BindingDB_50330426
 25 26 0 0 0
SMALL
NO_CHARGES


@<TRIPOS>ATOM
1    C         5.7731   -5.0550   16.1907  C     
2    C         5.2442   -6.1344   15.4463  C     
3    C         4.6274   -7.1906   16.1544  C     
4    C         4.5209   -7.1594   17.5550  C     
5    C         5.0311   -6.0640   18.2801  C     
6    C         5.6811   -4.9965   17.6027  C     
7    C         6.2486   -3.8820   18.2825  C     
8    O         7.0784   -3.0141   17.6553  O     
9    O         4.9012   -6.0919   19.6334  O     
10   F         3.9426   -8.1570   18.1704  F     
11   C         5.3504   -6.1728   14.0285  C     
12   C         4.2028   -6.3604   13.2248  C     
13   C         4.3044   -6.4628   11.8247  C     
14   C         5.5596   -6.3761   11.2023  C     
15   C         6.7064   -6.1569   11.9790  C     
16   C         6.6025   -6.0553   13.3824  C     
17   O         6.0332   -3.6210   19.5941  O     
18   H         6.2170   -4.2798   15.6790  H     
19   H         4.2700   -8.0005   15.6460  H     
20   H         4.4724   -5.2310   19.8613  H     
21   H         3.2719   -6.4082   13.6518  H     
22   H         3.4614   -6.5991   11.2577  H     
23   H         5.6353   -6.4589   10.1885  H     
24   H         7.6228   -6.0740   11.5278  H     
25   H         7.4596   -5.9230   13.9269  H     
@<TRIPOS>BOND
     1    1    2 2
     2    1    6 1
     3    2    3 1
     4    2   11 1
     5    3    4 2
     6    4    5 1
     7    4   10 1
     8    5    6 2
     9    5    9 1
    10    6    7 1
    11    7    8 2
    12    7   17 1
    13   11   12 2
    14   11   16 1
    15   12   13 1
    16   13   14 2
    17   14   15 1
    18   15   16 2
    19    1   18 1
    20    3   19 1
    21    9   20 1
    22   12   21 1
    23   13   22 1
    24   14   23 1
    25   15   24 1
    26   16   25 1
@<TRIPOS>PROPERTY_DATA
  Total_Score	| 8.4486
  Crash		| -0.5156
  Polar		| 4.3930
  FragIndex	| 1
  FragRMSD	| 0.065

