@<TRIPOS>MOLECULE
BindingDB_17151
 37 39 0 0 0
SMALL
NO_CHARGES


@<TRIPOS>ATOM
1    C        -2.2038   65.6104    9.7616  C     
2    C        -1.9087   63.5850   10.5695  C     
3    C        -1.1046   65.2570    9.0171  C     
4    O        -2.8646   66.6390    9.6953  O     
5    N        -2.5999   64.7150   10.6245  N     
6    N        -2.1276   62.5707   11.4128  N     
7    S        -0.7339   63.5888    9.3102  S     
8    C        -0.3069   66.1015    8.2967  C     
9    C         0.7451   65.6369    7.4594  C     
10   C         1.3915   66.3113    6.4148  C     
11   C         2.3413   65.4795    5.8662  C     
12   C         2.3282   64.2883    6.5898  C     
13   O         1.3499   64.4126    7.5237  O     
14   C         3.1963   63.1706    6.4327  C     
15   C         5.0401   60.9807    6.2275  C     
16   C         5.1072   62.0646    5.3285  C     
17   C         4.2120   63.1410    5.4362  C     
18   C         3.1051   62.0552    7.3044  C     
19   C         4.0168   60.9829    7.2104  C     
20   S         6.2029   59.6827    6.1399  S     
21   O         7.6388   60.2794    5.7996  O     
22   O         6.3161   58.8936    7.5112  O     
23   N         5.8069   58.5971    4.9230  N     
24   C        -0.5528   67.5593    8.3857  C     
25   H        -3.3013   64.8845   11.2804  H     
26   H        -2.8201   62.6557   12.0913  H     
27   H         1.2257   67.2616    6.0875  H     
28   H         2.9422   65.7305    5.0797  H     
29   H         5.8234   62.0916    4.5984  H     
30   H         4.3166   63.9124    4.7676  H     
31   H         2.3823   62.0289    8.0293  H     
32   H         3.9416   60.2020    7.8709  H     
33   H         6.5117   58.1449    4.4247  H     
34   H         4.8845   58.3005    4.8296  H     
35   H        -1.5309   67.7839    7.9534  H     
36   H         0.1453   68.2106    7.8662  H     
37   H        -0.5409   67.8806    9.4269  H     
@<TRIPOS>BOND
     1    1    3 1
     2    1    4 2
     3    1    5 1
     4    2    5 1
     5    2    6 2
     6    2    7 1
     7    3    7 1
     8    3    8 2
     9    8    9 1
    10    8   24 1
    11    9   10 2
    12    9   13 1
    13   10   11 1
    14   11   12 2
    15   12   13 1
    16   12   14 1
    17   14   17 1
    18   14   18 2
    19   15   16 1
    20   15   19 2
    21   15   20 1
    22   16   17 2
    23   18   19 1
    24   20   21 2
    25   20   22 2
    26   20   23 am
    27    5   25 1
    28    6   26 1
    29   10   27 1
    30   11   28 1
    31   16   29 1
    32   17   30 1
    33   18   31 1
    34   19   32 1
    35   23   33 1
    36   23   34 1
    37   24   35 1
    38   24   36 1
    39   24   37 1
@<TRIPOS>PROPERTY_DATA
  Total_Score	| 4.4697
  Crash		| -1.0018
  Polar		| 2.0697
  FragIndex	| 1
  FragRMSD	| 1.124

