@<TRIPOS>MOLECULE
BindingDB_17150
 34 36 0 0 0
SMALL
NO_CHARGES


@<TRIPOS>ATOM
1    C        -2.2261   65.7139    9.6865  C     
2    C        -1.9147   63.9029   10.8980  C     
3    C        -1.1898   65.1694    9.0008  C     
4    O        -2.7908   66.7656    9.4152  O     
5    N        -2.5918   65.0434   10.7530  N     
6    N        -2.1095   63.0676   11.9292  N     
7    S        -0.7499   63.6403    9.6463  S     
8    C        -0.5753   65.7865    7.9671  C     
9    C         0.5494   65.3630    7.2762  C     
10   C         1.2327   66.1292    6.3332  C     
11   C         2.3149   65.3904    5.8856  C     
12   C         2.2944   64.1644    6.5610  C     
13   O         1.2146   64.1800    7.3900  O     
14   C         3.2174   63.0895    6.4724  C     
15   C         5.1033   60.9400    6.4361  C     
16   C         5.2796   62.0695    5.6089  C     
17   C         4.3579   63.1346    5.6239  C     
18   C         3.0269   61.9344    7.2627  C     
19   C         3.9493   60.8685    7.2533  C     
20   S         6.3350   59.6968    6.3888  S     
21   O         5.7625   58.5385    5.4640  O     
22   O         7.7175   60.2096    5.7920  O     
23   N         6.6846   59.0243    7.8882  N     
24   Cl        3.5917   59.5407    8.2467  Cl    
25   H        -3.2687   65.3506   11.3809  H     
26   H        -2.7543   63.2986   12.6197  H     
27   H        -0.9487   66.6629    7.6726  H     
28   H         1.0076   67.0800    6.0348  H     
29   H         3.0041   65.7025    5.2013  H     
30   H         6.0879   62.1311    4.9941  H     
31   H         4.5502   63.9439    5.0322  H     
32   H         2.2121   61.8738    7.8767  H     
33   H         7.0397   58.1200    7.9465  H     
34   H         6.5016   59.5241    8.7035  H     
@<TRIPOS>BOND
     1    1    3 1
     2    1    4 2
     3    1    5 1
     4    2    5 1
     5    2    6 2
     6    2    7 1
     7    3    7 1
     8    3    8 2
     9    8    9 1
    10    9   10 2
    11    9   13 1
    12   10   11 1
    13   11   12 2
    14   12   13 1
    15   12   14 1
    16   14   17 1
    17   14   18 2
    18   15   16 1
    19   15   19 2
    20   15   20 1
    21   16   17 2
    22   18   19 1
    23   19   24 1
    24   20   21 2
    25   20   22 2
    26   20   23 am
    27    5   25 1
    28    6   26 1
    29    8   27 1
    30   10   28 1
    31   11   29 1
    32   16   30 1
    33   17   31 1
    34   18   32 1
    35   23   33 1
    36   23   34 1
@<TRIPOS>PROPERTY_DATA
  Total_Score	| 5.4632
  Crash		| -0.9978
  Polar		| 3.6970
  FragIndex	| 1
  FragRMSD	| 0.554

