@<TRIPOS>MOLECULE
BindingDB_17144
 37 39 0 0 0
SMALL
NO_CHARGES


@<TRIPOS>ATOM
1    C        -2.3182   65.6077    9.6569  C     
2    C        -1.8919   63.8690   10.9318  C     
3    C        -1.2427   65.1072    8.9986  C     
4    O        -2.9452   66.6143    9.3432  O     
5    N        -2.6420   64.9538   10.7357  N     
6    N        -2.0225   63.0925   12.0131  N     
7    S        -0.7440   63.6010    9.6647  S     
8    C        -0.5734   65.7844    8.0403  C     
9    C         0.5646   65.3861    7.3496  C     
10   C         1.2423   66.1835    6.4281  C     
11   C         2.3042   65.4467    5.9414  C     
12   C         2.2749   64.2021    6.5654  C     
13   O         1.2135   64.1968    7.4130  O     
14   C         3.1784   63.1175    6.3948  C     
15   C         5.0420   60.9640    6.2157  C     
16   C         3.8818   60.8398    7.0070  C     
17   C         2.9646   61.9047    7.0936  C     
18   C         4.3258   63.2063    5.5653  C     
19   C         5.2395   62.1424    5.4680  C     
20   S         6.2261   59.6865    6.1685  S     
21   O         5.7780   58.7309    4.9726  O     
22   O         7.6904   60.1866    5.7765  O     
23   N         6.3180   58.6809    7.5253  N     
24   C         6.3467   59.1918    8.8560  C     
25   H        -3.3321   65.2380   11.3577  H     
26   H        -2.6773   63.3131   12.6965  H     
27   H        -0.9217   66.6857    7.7982  H     
28   H         1.0060   67.1369    6.1465  H     
29   H         2.9708   65.7738    5.2450  H     
30   H         3.7179   59.9755    7.5437  H     
31   H         2.1442   61.7797    7.6827  H     
32   H         4.5234   64.0506    5.0389  H     
33   H         6.0579   62.2417    4.8623  H     
34   H         6.1457   57.7261    7.4083  H     
35   H         6.9271   60.1302    8.9161  H     
36   H         6.8123   58.4336    9.4996  H     
37   H         5.3112   59.3693    9.1925  H     
@<TRIPOS>BOND
     1    1    3 1
     2    1    4 2
     3    1    5 1
     4    2    5 1
     5    2    6 2
     6    2    7 1
     7    3    7 1
     8    3    8 2
     9    8    9 1
    10    9   10 2
    11    9   13 1
    12   10   11 1
    13   11   12 2
    14   12   13 1
    15   12   14 1
    16   14   17 1
    17   14   18 2
    18   15   16 1
    19   15   19 2
    20   15   20 1
    21   16   17 2
    22   18   19 1
    23   20   21 2
    24   20   22 2
    25   20   23 1
    26   23   24 1
    27    5   25 1
    28    6   26 1
    29    8   27 1
    30   10   28 1
    31   11   29 1
    32   16   30 1
    33   17   31 1
    34   18   32 1
    35   19   33 1
    36   23   34 1
    37   24   35 1
    38   24   36 1
    39   24   37 1
@<TRIPOS>PROPERTY_DATA
  Total_Score	| 6.3987
  Crash		| -0.7911
  Polar		| 3.6680
  FragIndex	| 1
  FragRMSD	| 0.891

