@<TRIPOS>MOLECULE
BindingDB_17145
 49 51 0 0 0
SMALL
NO_CHARGES


@<TRIPOS>ATOM
1    C        -2.2730   65.6620    9.6376  C     
2    C        -1.8636   63.9185   10.9277  C     
3    C        -1.2002   65.1433    8.9811  C     
4    O        -2.8944   66.6698    9.3205  O     
5    N        -2.6086   65.0083   10.7215  N     
6    N        -2.0120   63.1175   11.9950  N     
7    S        -0.6814   63.6655    9.6916  S     
8    C        -0.5721   65.7773    7.9674  C     
9    C         0.5619   65.3678    7.2827  C     
10   C         1.2453   66.1543    6.3582  C     
11   C         2.3166   65.4147    5.8929  C     
12   C         2.2824   64.1742    6.5344  C     
13   O         1.2115   64.1780    7.3702  O     
14   C         3.1852   63.0853    6.3983  C     
15   C         5.0189   60.9035    6.2218  C     
16   C         5.2260   62.0754    5.4681  C     
17   C         4.3204   63.1492    5.5532  C     
18   C         2.9711   61.8906    7.1264  C     
19   C         3.8788   60.8174    7.0446  C     
20   S         6.1704   59.5949    6.1343  S     
21   O         5.8628   58.8593    4.7572  O     
22   O         7.6720   60.1011    5.9814  O     
23   N         6.0498   58.3834    7.3035  N     
24   C         6.2070   58.6095    8.6999  C     
25   C         5.3420   57.6028    9.5069  C     
26   N         5.0858   58.0246   10.9239  N     
27   C         3.7243   57.6326   11.3969  C     
28   C         6.1395   57.5876   11.8857  C     
29   H        -3.3171   65.2929   11.3312  H     
30   H        -2.6840   63.3262   12.6680  H     
31   H        -0.9494   66.6534    7.6850  H     
32   H         1.0211   67.1086    6.0747  H     
33   H         2.9952   65.7402    5.2049  H     
34   H         6.0419   62.1593    4.8528  H     
35   H         4.5199   63.9842    4.9979  H     
36   H         2.1581   61.7874    7.7377  H     
37   H         3.6987   59.9762    7.5908  H     
38   H         6.0072   57.4588    6.9940  H     
39   H         7.2631   58.4961    8.9494  H     
40   H         5.9048   59.6335    8.9643  H     
41   H         4.3887   57.5167    8.9727  H     
42   H         5.8106   56.6119    9.4838  H     
43   H         5.1014   59.0466   10.9314  H     
44   H         2.9558   58.0667   10.7513  H     
45   H         3.5431   58.0101   12.4083  H     
46   H         3.6025   56.5451   11.3984  H     
47   H         6.1364   56.4999   12.0122  H     
48   H         5.9658   58.0541   12.8596  H     
49   H         7.1342   57.8936   11.5561  H     
@<TRIPOS>BOND
     1    1    3 1
     2    1    4 2
     3    1    5 1
     4    2    5 1
     5    2    6 2
     6    2    7 1
     7    3    7 1
     8    3    8 2
     9    8    9 1
    10    9   10 2
    11    9   13 1
    12   10   11 1
    13   11   12 2
    14   12   13 1
    15   12   14 1
    16   14   17 1
    17   14   18 2
    18   15   16 1
    19   15   19 2
    20   15   20 1
    21   16   17 2
    22   18   19 1
    23   20   21 2
    24   20   22 2
    25   20   23 1
    26   23   24 1
    27   24   25 1
    28   25   26 1
    29   26   27 1
    30   26   28 1
    31    5   29 1
    32    6   30 1
    33    8   31 1
    34   10   32 1
    35   11   33 1
    36   16   34 1
    37   17   35 1
    38   18   36 1
    39   19   37 1
    40   23   38 1
    41   24   39 1
    42   24   40 1
    43   25   41 1
    44   25   42 1
    45   26   43 1
    46   27   44 1
    47   27   45 1
    48   27   46 1
    49   28   47 1
    50   28   48 1
    51   28   49 1
@<TRIPOS>PROPERTY_DATA
  Total_Score	| 7.9921
  Crash		| -1.1447
  Polar		| 5.5891
  FragIndex	| 1
  FragRMSD	| 0.516

