@<TRIPOS>MOLECULE
BindingDB_17147
 45 48 0 0 0
SMALL
NO_CHARGES


@<TRIPOS>ATOM
1    C        -2.1090   65.8676    9.7738  C     
2    C        -1.9448   63.9759   10.8894  C     
3    C        -1.1215   65.2702    9.0560  C     
4    O        -2.5631   66.9827    9.5781  O     
5    N        -2.5392   65.1639   10.7866  N     
6    N        -2.2184   63.1197   11.8832  N     
7    S        -0.7799   63.6924    9.6392  S     
8    C        -0.4517   65.8897    8.0584  C     
9    C         0.6381   65.4249    7.3325  C     
10   C         1.3084   66.1857    6.3809  C     
11   C         2.3518   65.4261    5.8941  C     
12   C         2.3171   64.1956    6.5440  C     
13   O         1.2653   64.2228    7.4048  O     
14   C         3.2108   63.0985    6.3777  C     
15   C         5.0574   60.9269    6.1765  C     
16   C         3.8547   60.7750    6.8947  C     
17   C         2.9609   61.8621    7.0246  C     
18   C         4.3735   63.1967    5.5808  C     
19   C         5.2834   62.1285    5.4800  C     
20   O         5.7215   58.6432    4.9925  O     
21   O         7.6389   60.2093    5.6496  O     
22   S         6.2349   59.6335    6.1275  S     
23   C         6.1116   58.2336    9.9164  C     
24   C         6.2896   59.3264    8.8273  C     
25   C         7.4375   57.6254    7.4264  C     
26   C         7.2989   56.6143    8.5961  C     
27   N         6.4819   58.7096    7.5291  N     
28   O         7.2081   57.2860    9.8663  O     
29   H        -3.2043   65.4851   11.4215  H     
30   H        -2.8621   63.3588   12.5748  H     
31   H        -0.7464   66.8120    7.8294  H     
32   H         1.0997   67.1467    6.1016  H     
33   H         3.0175   65.7363    5.1892  H     
34   H         3.6605   59.8988    7.3887  H     
35   H         2.1281   61.7410    7.6065  H     
36   H         4.5998   64.0557    5.0753  H     
37   H         6.1253   62.2498    4.9134  H     
38   H         6.1232   58.7095   10.8996  H     
39   H         5.1462   57.7119    9.7881  H     
40   H         5.4102   59.9784    8.8546  H     
41   H         7.1685   59.9501    9.0724  H     
42   H         8.4483   58.0473    7.4358  H     
43   H         7.3074   57.0647    6.4957  H     
44   H         6.4205   55.9729    8.4480  H     
45   H         8.1787   55.9667    8.6177  H     
@<TRIPOS>BOND
     1    1    3 1
     2    1    4 2
     3    1    5 1
     4    2    5 1
     5    2    6 2
     6    2    7 1
     7    3    7 1
     8    3    8 2
     9    8    9 1
    10    9   10 2
    11    9   13 1
    12   10   11 1
    13   11   12 2
    14   12   13 1
    15   12   14 1
    16   14   17 1
    17   14   18 2
    18   15   16 1
    19   15   19 2
    20   15   22 1
    21   16   17 2
    22   18   19 1
    23   20   22 2
    24   21   22 2
    25   22   27 1
    26   23   24 1
    27   23   28 1
    28   24   27 1
    29   25   26 1
    30   25   27 1
    31   26   28 1
    32    5   29 1
    33    6   30 1
    34    8   31 1
    35   10   32 1
    36   11   33 1
    37   16   34 1
    38   17   35 1
    39   18   36 1
    40   19   37 1
    41   23   38 1
    42   23   39 1
    43   24   40 1
    44   24   41 1
    45   25   42 1
    46   25   43 1
    47   26   44 1
    48   26   45 1
@<TRIPOS>PROPERTY_DATA
  Total_Score	| 7.1593
  Crash		| -1.1245
  Polar		| 3.8450
  FragIndex	| 1
  FragRMSD	| 0.888

