@<TRIPOS>MOLECULE
BindingDB_17143
 31 33 0 0 0
SMALL
NO_CHARGES


@<TRIPOS>ATOM
1    C        -2.3011   65.6543    9.5330  C     
2    C        -1.8618   64.0032   10.9250  C     
3    C        -1.2001   65.1355    8.9282  C     
4    O        -2.9527   66.6122    9.1272  O     
5    N        -2.6281   65.0644   10.6492  N     
6    N        -2.0362   63.2597   12.0280  N     
7    S        -0.6501   63.7078    9.7191  S     
8    C        -0.5596   65.7373    7.9044  C     
9    C         0.5899   65.3263    7.2399  C     
10   C         1.2739   66.1279    6.3322  C     
11   C         2.3539   65.4050    5.8659  C     
12   C         2.3467   64.1661    6.5057  C     
13   O         1.2636   64.1481    7.3309  O     
14   C         3.2808   63.1024    6.3555  C     
15   C         5.2266   60.9967    6.2025  C     
16   C         5.3702   62.1774    5.4341  C     
17   C         4.4158   63.2079    5.5131  C     
18   C         3.1095   61.8941    7.0731  C     
19   C         4.0653   60.8608    6.9985  C     
20   C         6.2379   59.9973    6.1832  C     
21   O         6.0482   58.7834    6.7574  O     
22   O         7.4787   60.2480    5.6978  O     
23   H        -3.3520   65.3564   11.2308  H     
24   H        -2.7285   63.4938   12.6694  H     
25   H        -0.9395   66.6047    7.5865  H     
26   H         1.0449   67.0835    6.0496  H     
27   H         3.0400   65.7479    5.1921  H     
28   H         6.1805   62.3009    4.8197  H     
29   H         4.5787   64.0468    4.9581  H     
30   H         2.2996   61.7620    7.6837  H     
31   H         3.9137   60.0195    7.5580  H     
@<TRIPOS>BOND
     1    1    3 1
     2    1    4 2
     3    1    5 1
     4    2    5 1
     5    2    6 2
     6    2    7 1
     7    3    7 1
     8    3    8 2
     9    8    9 1
    10    9   10 2
    11    9   13 1
    12   10   11 1
    13   11   12 2
    14   12   13 1
    15   12   14 1
    16   14   17 1
    17   14   18 2
    18   15   16 1
    19   15   19 2
    20   15   20 1
    21   16   17 2
    22   18   19 1
    23   20   21 2
    24   20   22 1
    25    5   23 1
    26    6   24 1
    27    8   25 1
    28   10   26 1
    29   11   27 1
    30   16   28 1
    31   17   29 1
    32   18   30 1
    33   19   31 1
@<TRIPOS>PROPERTY_DATA
  Total_Score	| 5.8380
  Crash		| -0.7484
  Polar		| 3.6714
  FragIndex	| 1
  FragRMSD	| 0.431

