@<TRIPOS>MOLECULE
BindingDB_17142
 31 33 0 0 0
SMALL
NO_CHARGES


@<TRIPOS>ATOM
1    C        -2.3348   65.7214    9.6359  C     
2    C        -1.9261   64.0040   10.9599  C     
3    C        -1.1980   65.2548    9.0554  C     
4    O        -2.9910   66.6820    9.2547  O     
5    N        -2.7122   65.0509   10.6957  N     
6    N        -2.1184   63.1780   12.0002  N     
7    S        -0.6242   63.8355    9.8371  S     
8    C        -0.5668   65.8809    8.0371  C     
9    C         0.5752   65.4690    7.3633  C     
10   C         1.2965   66.2463    6.4601  C     
11   C         2.3036   65.4483    5.9473  C     
12   C         2.2139   64.1790    6.5341  C     
13   O         1.1736   64.2552    7.4047  O     
14   C         3.0579   63.0303    6.3378  C     
15   C         5.0606   61.0152    6.0680  C     
16   C         5.0497   62.1088    5.1964  C     
17   C         4.0748   63.1068    5.3440  C     
18   C         3.0095   61.8521    7.1665  C     
19   C         4.0585   60.8978    7.0422  C     
20   N         1.9935   61.5472    8.0362  N     
21   O         2.0879   60.7152    8.9019  O     
22   O         0.7587   61.8706    7.7818  O     
23   H        -3.4719   65.2972   11.2489  H     
24   H        -2.8541   63.3290   12.6195  H     
25   H        -0.9703   66.7289    7.7052  H     
26   H         1.1167   67.2196    6.2071  H     
27   H         2.9834   65.7657    5.2595  H     
28   H         5.7777   60.2918    5.9772  H     
29   H         5.7658   62.1893    4.4691  H     
30   H         4.1512   63.9055    4.7136  H     
31   H         4.0696   60.0569    7.6252  H     
@<TRIPOS>BOND
     1    1    3 1
     2    1    4 2
     3    1    5 1
     4    2    5 1
     5    2    6 2
     6    2    7 1
     7    3    7 1
     8    3    8 2
     9    8    9 1
    10    9   10 2
    11    9   13 1
    12   10   11 1
    13   11   12 2
    14   12   13 1
    15   12   14 1
    16   14   17 1
    17   14   18 2
    18   15   16 1
    19   15   19 2
    20   16   17 2
    21   18   19 1
    22   18   20 am
    23   20   21 2
    24   20   22 1
    25    5   23 1
    26    6   24 1
    27    8   25 1
    28   10   26 1
    29   11   27 1
    30   15   28 1
    31   16   29 1
    32   17   30 1
    33   19   31 1
@<TRIPOS>PROPERTY_DATA
  Total_Score	| 4.2833
  Crash		| -0.7504
  Polar		| 2.0176
  FragIndex	| 1
  FragRMSD	| 0.580

