@<TRIPOS>MOLECULE
BindingDB_17148
 33 35 0 0 0
SMALL
NO_CHARGES


@<TRIPOS>ATOM
1    C        -2.2873   65.5731    9.5622  C     
2    C        -1.8563   63.8548   10.8865  C     
3    C        -1.2013   65.0691    8.9218  C     
4    O        -2.9330   66.5625    9.2256  O     
5    N        -2.6187   64.9324   10.6585  N     
6    N        -2.0230   63.0456   11.9516  N     
7    S        -0.6362   63.6312    9.6756  S     
8    C        -0.6042   65.6871    7.8789  C     
9    C         0.5500   65.3094    7.2063  C     
10   C         1.2461   66.1281    6.3164  C     
11   C         2.3549   65.4289    5.8788  C     
12   C         2.3421   64.1820    6.5121  C     
13   O         1.2380   64.1404    7.3082  O     
14   C         3.3074   63.1432    6.4031  C     
15   C         5.3450   61.1003    6.3936  C     
16   C         4.2393   61.0422    7.2794  C     
17   C         3.2460   62.0411    7.2830  C     
18   C         4.3749   63.1731    5.4744  C     
19   C         5.3675   62.1724    5.4693  C     
20   C         6.3796   60.1606    6.4448  C     
21   O         7.4108   60.2986    5.7795  O     
22   N         6.3440   59.0679    7.1680  N     
23   H        -3.3426   65.2074   11.2519  H     
24   H        -2.7217   63.2569   12.5988  H     
25   H        -1.0364   66.5237    7.5530  H     
26   H         1.0039   67.0836    6.0522  H     
27   H         3.0636   65.7968    5.2489  H     
28   H         4.1583   60.2816    7.9630  H     
29   H         2.4899   61.9595    7.9694  H     
30   H         4.4493   63.9333    4.7943  H     
31   H         6.1222   62.2596    4.7823  H     
32   H         7.0982   58.4545    7.1723  H     
33   H         5.5659   58.8584    7.7154  H     
@<TRIPOS>BOND
     1    1    3 1
     2    1    4 2
     3    1    5 1
     4    2    5 1
     5    2    6 2
     6    2    7 1
     7    3    7 1
     8    3    8 2
     9    8    9 1
    10    9   10 2
    11    9   13 1
    12   10   11 1
    13   11   12 2
    14   12   13 1
    15   12   14 1
    16   14   17 1
    17   14   18 2
    18   15   16 1
    19   15   19 2
    20   15   20 1
    21   16   17 2
    22   18   19 1
    23   20   21 2
    24   20   22 am
    25    5   23 1
    26    6   24 1
    27    8   25 1
    28   10   26 1
    29   11   27 1
    30   16   28 1
    31   17   29 1
    32   18   30 1
    33   19   31 1
    34   22   32 1
    35   22   33 1
@<TRIPOS>PROPERTY_DATA
  Total_Score	| 4.8420
  Crash		| -0.7558
  Polar		| 2.9173
  FragIndex	| 1
  FragRMSD	| 0.517

