@<TRIPOS>MOLECULE
BindingDB_17152
 33 35 0 0 0
SMALL
NO_CHARGES


@<TRIPOS>ATOM
1    C        -2.1199   65.5979    9.6779  C     
2    C        -1.1429   64.6069   11.3587  C     
3    C        -0.9649   65.2155    9.0848  C     
4    O        -3.0363   66.2064    9.1389  O     
5    N        -2.1894   65.2695   10.9430  N     
6    S        -0.0133   64.2535   10.1374  S     
7    C        -0.5371   65.6938    7.8913  C     
8    C         0.6227   65.3375    7.2252  C     
9    C         1.2743   66.1204    6.2765  C     
10   C         2.3683   65.4045    5.8325  C     
11   C         2.3732   64.1737    6.4958  C     
12   O         1.3065   64.1658    7.3362  O     
13   C         3.2940   63.1008    6.3307  C     
14   C         5.1098   60.9080    6.0737  C     
15   C         5.3188   62.1016    5.3532  C     
16   C         4.4254   63.1803    5.4838  C     
17   C         3.0804   61.8840    7.0307  C     
18   C         3.9764   60.8031    6.9023  C     
19   S         6.2403   59.5909    5.9223  S     
20   O         7.7068   60.1675    5.6873  O     
21   O         6.2255   58.6785    7.2228  O     
22   N         5.8302   58.6280    4.6117  N     
23   O        -0.9927   64.2657   12.5180  O     
24   H        -2.9279   65.5182   11.5273  H     
25   H        -1.0970   66.3860    7.4473  H     
26   H         1.0219   67.0596    5.9752  H     
27   H         3.0400   65.7362    5.1429  H     
28   H         6.1261   62.1997    4.7339  H     
29   H         4.6230   64.0308    4.9556  H     
30   H         2.2678   61.7680    7.6465  H     
31   H         3.7931   59.9416    7.4229  H     
32   H         6.4591   57.9622    4.2803  H     
33   H         5.0082   58.7952    4.1221  H     
@<TRIPOS>BOND
     1    1    3 1
     2    1    4 2
     3    1    5 1
     4    2    5 1
     5    2    6 1
     6    2   23 2
     7    3    6 1
     8    3    7 2
     9    7    8 1
    10    8    9 2
    11    8   12 1
    12    9   10 1
    13   10   11 2
    14   11   12 1
    15   11   13 1
    16   13   16 1
    17   13   17 2
    18   14   15 1
    19   14   18 2
    20   14   19 1
    21   15   16 2
    22   17   18 1
    23   19   20 2
    24   19   21 2
    25   19   22 am
    26    5   24 1
    27    7   25 1
    28    9   26 1
    29   10   27 1
    30   15   28 1
    31   16   29 1
    32   17   30 1
    33   18   31 1
    34   22   32 1
    35   22   33 1
@<TRIPOS>PROPERTY_DATA
  Total_Score	| 4.3762
  Crash		| -0.8492
  Polar		| 2.6643
  FragIndex	| 1
  FragRMSD	| 0.954

