@<TRIPOS>MOLECULE
BindingDB_17149
 37 39 0 0 0
SMALL
NO_CHARGES


@<TRIPOS>ATOM
1    C        -2.1378   65.8291    9.7790  C     
2    C        -1.9579   63.9411   10.8885  C     
3    C        -1.1375   65.2506    9.0680  C     
4    O        -2.6311   66.9335    9.5609  O     
5    N        -2.5620   65.1247   10.7945  N     
6    N        -2.2295   63.0746   11.8736  N     
7    S        -0.7877   63.6698    9.6427  S     
8    C        -0.4728   65.8781    8.0776  C     
9    C         0.6176   65.4166    7.3537  C     
10   C         1.2876   66.1548    6.3775  C     
11   C         2.3308   65.3767    5.9052  C     
12   C         2.3005   64.1614    6.5930  C     
13   O         1.2511   64.2181    7.4614  O     
14   C         3.2023   63.0618    6.4721  C     
15   C         5.0782   60.9011    6.3689  C     
16   C         5.2109   62.0218    5.5203  C     
17   C         4.2924   63.0791    5.5739  C     
18   C         3.0487   61.9154    7.2831  C     
19   C         3.9538   60.8206    7.2494  C     
20   S         6.3327   59.6793    6.2058  S     
21   O         5.8232   58.6734    5.0827  O     
22   O         7.7024   60.2592    5.6402  O     
23   N         6.7362   58.7088    7.5206  N     
24   C         3.7167   59.6487    8.1598  C     
25   F         2.5052   59.6531    8.8210  F     
26   F         3.7319   58.4692    7.4531  F     
27   F         4.6777   59.6194    9.1389  F     
28   H        -3.2300   65.4296   11.4262  H     
29   H        -2.8921   63.2976   12.5508  H     
30   H        -0.7724   66.7971    7.8388  H     
31   H         1.0720   67.1062    6.0693  H     
32   H         3.0008   65.6732    5.1925  H     
33   H         5.9851   62.0903    4.8535  H     
34   H         4.4451   63.8733    4.9465  H     
35   H         2.2614   61.8924    7.9308  H     
36   H         6.9712   57.7762    7.3751  H     
37   H         6.8772   59.1152    8.3969  H     
@<TRIPOS>BOND
     1    1    3 1
     2    1    4 2
     3    1    5 1
     4    2    5 1
     5    2    6 2
     6    2    7 1
     7    3    7 1
     8    3    8 2
     9    8    9 1
    10    9   10 2
    11    9   13 1
    12   10   11 1
    13   11   12 2
    14   12   13 1
    15   12   14 1
    16   14   17 1
    17   14   18 2
    18   15   16 1
    19   15   19 2
    20   15   20 1
    21   16   17 2
    22   18   19 1
    23   19   24 1
    24   20   21 2
    25   20   22 2
    26   20   23 am
    27   24   25 1
    28   24   26 1
    29   24   27 1
    30    5   28 1
    31    6   29 1
    32    8   30 1
    33   10   31 1
    34   11   32 1
    35   16   33 1
    36   17   34 1
    37   18   35 1
    38   23   36 1
    39   23   37 1
@<TRIPOS>PROPERTY_DATA
  Total_Score	| 6.1550
  Crash		| -0.7410
  Polar		| 3.7784
  FragIndex	| 1
  FragRMSD	| 0.896

