@<TRIPOS>MOLECULE
BindingDB_17141
 34 36 0 0 0
SMALL
NO_CHARGES


@<TRIPOS>ATOM
1    C        -2.3409   65.6401    9.6256  C     
2    C        -1.8680   63.9815   10.9966  C     
3    C        -1.2484   65.1343    8.9955  C     
4    O        -2.9969   66.6054    9.2590  O     
5    N        -2.6556   65.0266   10.7377  N     
6    N        -1.9978   63.2343   12.1014  N     
7    S        -0.6694   63.7168    9.7768  S     
8    C        -0.6546   65.7367    7.9428  C     
9    C         0.4939   65.3468    7.2685  C     
10   C         1.2098   66.1701    6.4015  C     
11   C         2.2852   65.4442    5.9272  C     
12   C         2.2317   64.1768    6.5098  C     
13   O         1.1381   64.1506    7.3178  O     
14   C         3.1495   63.1011    6.3517  C     
15   C         5.0394   60.9706    6.1790  C     
16   C         5.2044   62.1348    5.4039  C     
17   C         4.2741   63.1870    5.4916  C     
18   C         2.9741   61.9094    7.0934  C     
19   C         3.9070   60.8588    7.0104  C     
20   S         6.2283   59.7000    6.1069  S     
21   O         5.7798   58.7159    4.9407  O     
22   O         7.6753   60.2226    5.7003  O     
23   N         6.3496   58.7594    7.4976  N     
24   H        -3.3716   65.3128   11.3316  H     
25   H        -2.6829   63.4479   12.7602  H     
26   H        -1.0696   66.5800    7.6131  H     
27   H         1.0012   67.1416    6.1644  H     
28   H         2.9864   65.8016    5.2799  H     
29   H         6.0153   62.2354    4.7875  H     
30   H         4.4434   64.0212    4.9278  H     
31   H         2.1755   61.8016    7.7231  H     
32   H         3.7613   60.0206    7.5746  H     
33   H         6.2491   57.7937    7.4377  H     
34   H         6.6135   59.1669    8.3396  H     
@<TRIPOS>BOND
     1    1    3 1
     2    1    4 2
     3    1    5 1
     4    2    5 1
     5    2    6 2
     6    2    7 1
     7    3    7 1
     8    3    8 2
     9    8    9 1
    10    9   10 2
    11    9   13 1
    12   10   11 1
    13   11   12 2
    14   12   13 1
    15   12   14 1
    16   14   17 1
    17   14   18 2
    18   15   16 1
    19   15   19 2
    20   15   20 1
    21   16   17 2
    22   18   19 1
    23   20   21 2
    24   20   22 2
    25   20   23 am
    26    5   24 1
    27    6   25 1
    28    8   26 1
    29   10   27 1
    30   11   28 1
    31   16   29 1
    32   17   30 1
    33   18   31 1
    34   19   32 1
    35   23   33 1
    36   23   34 1
@<TRIPOS>PROPERTY_DATA
  Total_Score	| 6.0391
  Crash		| -0.6975
  Polar		| 3.7786
  FragIndex	| 1
  FragRMSD	| 0.457

