@<TRIPOS>MOLECULE
BindingDB_17146
 47 50 0 0 0
SMALL
NO_CHARGES


@<TRIPOS>ATOM
1    C        -2.2665   65.6625    9.7061  C     
2    C        -1.8604   63.9063   10.9775  C     
3    C        -1.1934   65.1476    9.0478  C     
4    O        -2.8941   66.6659    9.3900  O     
5    N        -2.5949   65.0056   10.7913  N     
6    N        -2.0211   63.0984   12.0381  N     
7    S        -0.6857   63.6566    9.7346  S     
8    C        -0.5587   65.8027    8.0486  C     
9    C         0.5711   65.4154    7.3447  C     
10   C         1.2231   66.2197    6.4154  C     
11   C         2.2879   65.4981    5.9150  C     
12   C         2.2898   64.2489    6.5439  C     
13   O         1.2378   64.2306    7.4010  O     
14   C         3.1987   63.1762    6.3352  C     
15   C         5.0143   60.9955    6.0442  C     
16   C         5.1959   62.1809    5.3051  C     
17   C         4.3018   63.2548    5.4525  C     
18   C         3.0062   61.9650    7.0549  C     
19   C         3.9025   60.8900    6.9068  C     
20   O         7.5915   60.2742    6.0161  O     
21   O         5.9443   58.5631    6.9833  O     
22   S         6.1304   59.6637    5.8530  S     
23   C         4.4870   58.3266    2.4393  C     
24   C         4.6470   58.4413    3.9768  C     
25   C         7.1114   58.3120    3.7291  C     
26   C         6.9470   58.2008    2.1925  C     
27   N         5.9576   58.9301    4.3383  N     
28   N         5.6362   57.6202    1.8301  N     
29   H        -3.2961   65.2941   11.4045  H     
30   H        -2.6989   63.3147   12.7125  H     
31   H        -0.9340   66.6879    7.7862  H     
32   H         0.9708   67.1729    6.1466  H     
33   H         2.9433   65.8420    5.2140  H     
34   H         5.9819   62.2753    4.6525  H     
35   H         4.4837   64.0965    4.9020  H     
36   H         2.2094   61.8531    7.6876  H     
37   H         3.7374   60.0319    7.4308  H     
38   H         3.5709   57.7790    2.2042  H     
39   H         4.4064   59.3274    2.0052  H     
40   H         3.8571   59.1079    4.3383  H     
41   H         4.4946   57.4579    4.4314  H     
42   H         7.2467   57.3104    4.1532  H     
43   H         8.0236   58.8864    3.9168  H     
44   H         7.0413   59.1897    1.7354  H     
45   H         7.7359   57.5620    1.7825  H     
46   H         5.6142   56.6430    2.1249  H     
47   H         5.5294   57.6628    0.8148  H     
@<TRIPOS>BOND
     1    1    3 1
     2    1    4 2
     3    1    5 1
     4    2    5 1
     5    2    6 2
     6    2    7 1
     7    3    7 1
     8    3    8 2
     9    8    9 1
    10    9   10 2
    11    9   13 1
    12   10   11 1
    13   11   12 2
    14   12   13 1
    15   12   14 1
    16   14   17 1
    17   14   18 2
    18   15   16 1
    19   15   19 2
    20   15   22 1
    21   16   17 2
    22   18   19 1
    23   20   22 2
    24   21   22 2
    25   22   27 1
    26   23   24 1
    27   23   28 1
    28   24   27 1
    29   25   26 1
    30   25   27 1
    31   26   28 1
    32    5   29 1
    33    6   30 1
    34    8   31 1
    35   10   32 1
    36   11   33 1
    37   16   34 1
    38   17   35 1
    39   18   36 1
    40   19   37 1
    41   23   38 1
    42   23   39 1
    43   24   40 1
    44   24   41 1
    45   25   42 1
    46   25   43 1
    47   26   44 1
    48   26   45 1
    49   28   46 1
    50   28   47 1
@<TRIPOS>PROPERTY_DATA
  Total_Score	| 7.1381
  Crash		| -0.8992
  Polar		| 4.1934
  FragIndex	| 1
  FragRMSD	| 0.965

