@<TRIPOS>MOLECULE
BindingDB_30495
 67 69 0 0 0
SMALL
NO_CHARGES


@<TRIPOS>ATOM
1    C        94.1705    7.3565   51.5961  C     
2    C        93.9770    7.7101   50.2049  C     
3    N        93.4924    9.0658   50.3640  N     
4    C        93.7115    9.4756   51.6165  C     
5    C        94.1020    8.4425   52.3769  C     
6    O        94.4646    6.1257   52.0172  O     
7    C        95.2898    7.5084   49.3152  C     
8    C        92.4598    9.6859   49.5553  C     
9    C        91.0228    9.3529   50.0717  C     
10   O        93.3417   10.5543   52.0737  O     
11   C        94.3861    8.5140   53.6997  C     
12   S        95.8393    8.9577   55.6903  S     
13   N        95.6471    8.5779   54.0730  N     
14   C        93.4907    8.7727   54.7095  C     
15   C        94.1368    9.1089   55.9205  C     
16   C        92.0851    8.7485   54.6411  C     
17   C        91.3319    9.1503   55.7636  C     
18   C        91.9797    9.5497   56.9540  C     
19   C        93.3948    9.5426   57.0695  C     
20   O        96.3445    7.7379   56.5739  O     
21   O        96.4029   10.4242   55.9243  O     
22   C        95.3276    6.0448   48.7445  C     
23   C        95.3121    8.4792   48.1010  C     
24   C        96.6095    7.7385   50.1316  C     
25   C        94.0531    9.9872   58.3384  C     
26   C        89.7884   10.1492   49.4927  C     
27   C        90.0636   10.6613   48.0474  C     
28   C        88.5344    9.2057   49.4451  C     
29   C        89.4563   11.3634   50.4219  C     
30   N        93.8266   11.3594   58.6811  N     
31   S        94.2268   12.6595   57.6776  S     
32   C        93.1307   12.7526   56.2402  C     
33   O        93.9678   13.9964   58.5110  O     
34   O        95.7840   12.6749   57.2598  O     
35   H        93.1654    7.0896   49.8142  H     
36   H        95.3568    6.1743   52.4367  H     
37   H        92.6124   10.7651   49.5224  H     
38   H        92.5373    9.3242   48.5250  H     
39   H        90.8829    8.2892   49.8855  H     
40   H        91.0234    9.4678   51.1640  H     
41   H        91.5972    8.4435   53.7923  H     
42   H        90.3070    9.1372   55.7139  H     
43   H        91.4035    9.8634   57.7477  H     
44   H        95.3501    5.3112   49.5457  H     
45   H        96.2112    5.8817   48.1214  H     
46   H        94.4481    5.8411   48.1388  H     
47   H        94.4153    8.3435   47.4946  H     
48   H        96.1683    8.2947   47.4503  H     
49   H        95.3562    9.5145   48.4218  H     
50   H        96.6161    8.7380   50.5767  H     
51   H        97.5009    7.6423   49.4965  H     
52   H        96.7140    7.0086   50.9462  H     
53   H        93.6607    9.3755   59.1446  H     
54   H        95.1199    9.8197   58.3061  H     
55   H        90.9066   11.3584   48.0373  H     
56   H        89.1956   11.1938   47.6434  H     
57   H        90.2967    9.8240   47.3843  H     
58   H        88.6712    8.4054   48.7227  H     
59   H        87.6359    9.7587   49.1521  H     
60   H        88.3455    8.7498   50.4179  H     
61   H        89.1360   11.0255   51.4067  H     
62   H        88.6576   11.9744   50.0001  H     
63   H        90.3340   11.9950   50.5554  H     
64   H        93.7014   11.5504   59.6344  H     
65   H        93.2859   11.8589   55.6120  H     
66   H        93.3688   13.6420   55.6499  H     
67   H        92.0859   12.7812   56.5776  H     
@<TRIPOS>BOND
     1    1    2 1
     2    1    5 2
     3    1    6 1
     4    2    3 1
     5    2    7 1
     6    3    4 1
     7    3    8 1
     8    4    5 1
     9    4   10 2
    10    5   11 1
    11    7   22 1
    12    7   23 1
    13    7   24 1
    14    8    9 1
    15    9   26 1
    16   11   13 2
    17   11   14 1
    18   12   13 1
    19   12   15 1
    20   12   20 2
    21   12   21 2
    22   14   15 2
    23   14   16 1
    24   15   19 1
    25   16   17 2
    26   17   18 1
    27   18   19 2
    28   19   25 1
    29   25   30 1
    30   26   27 1
    31   26   28 1
    32   26   29 1
    33   30   31 1
    34   31   32 1
    35   31   33 2
    36   31   34 2
    37    2   35 1
    38    6   36 1
    39    8   37 1
    40    8   38 1
    41    9   39 1
    42    9   40 1
    43   16   41 1
    44   17   42 1
    45   18   43 1
    46   22   44 1
    47   22   45 1
    48   22   46 1
    49   23   47 1
    50   23   48 1
    51   23   49 1
    52   24   50 1
    53   24   51 1
    54   24   52 1
    55   25   53 1
    56   25   54 1
    57   27   55 1
    58   27   56 1
    59   27   57 1
    60   28   58 1
    61   28   59 1
    62   28   60 1
    63   29   61 1
    64   29   62 1
    65   29   63 1
    66   30   64 1
    67   32   65 1
    68   32   66 1
    69   32   67 1
@<TRIPOS>PROPERTY_DATA
  Total_Score	| 6.3710
  Crash		| -2.0203
  Polar		| 2.6671
  FragIndex	| 1
  FragRMSD	| 0.756

