@<TRIPOS>MOLECULE
BindingDB_30475
 53 56 0 0 0
SMALL
NO_CHARGES


@<TRIPOS>ATOM
1    C        94.0994    7.6984   51.6137  C     
2    C        93.7779    8.0270   50.2392  C     
3    N        93.7829    9.4639   50.3238  N     
4    C        94.1882    9.8580   51.5203  C     
5    C        94.3601    8.8031   52.3166  C     
6    O        94.0096    6.4518   52.0890  O     
7    C        94.7691    7.4395   49.1686  C     
8    C        96.2260    7.9753   49.2948  C     
9    C        94.7601    5.8860   49.1238  C     
10   C        93.3104   10.3567   49.2863  C     
11   C        91.8241   10.3997   49.2079  C     
12   C        91.1524   10.3707   47.9622  C     
13   C        89.7506   10.4300   47.8983  C     
14   C        88.9906   10.5312   49.0808  C     
15   C        89.6452   10.5765   50.3255  C     
16   C        91.0480   10.5158   50.3880  C     
17   O        94.2914   11.0185   51.8960  O     
18   C        94.5956    8.8489   53.6405  C     
19   S        95.9262    9.0796   55.7684  S     
20   N        95.8290    8.8930   54.0994  N     
21   C        93.6362    8.9982   54.6168  C     
22   C        94.2123    9.1526   55.8794  C     
23   C        92.2338    9.0167   54.4846  C     
24   C        91.4259    9.2105   55.6269  C     
25   C        92.0233    9.3820   56.8933  C     
26   C        93.4294    9.3736   57.0325  C     
27   O        96.2795    7.7715   56.6094  O     
28   O        96.3972   10.4960   56.3104  O     
29   O        94.0337    9.6338   58.2289  O     
30   C        94.1630    8.5079   59.1283  C     
31   C        93.8841    8.9481   60.3819  C     
32   N        93.6359    9.3497   61.4365  N     
33   H        92.7575    7.6822   50.0260  H     
34   H        93.7386    6.5352   53.0262  H     
35   H        94.3954    7.7709   48.1853  H     
36   H        96.2420    9.0656   49.2149  H     
37   H        96.8419    7.5685   48.4845  H     
38   H        96.6617    7.6829   50.2517  H     
39   H        95.2776    5.4667   49.9890  H     
40   H        95.2708    5.5323   48.2256  H     
41   H        93.7391    5.4961   49.1136  H     
42   H        93.6392   11.3914   49.4653  H     
43   H        93.7496   10.0634   48.3319  H     
44   H        91.6893   10.3101   47.0949  H     
45   H        89.2810   10.4065   46.9927  H     
46   H        87.9736   10.5697   49.0314  H     
47   H        89.0933   10.6565   51.1881  H     
48   H        91.4993   10.5455   51.3056  H     
49   H        91.7921    8.9164   53.5683  H     
50   H        90.4034    9.2353   55.5368  H     
51   H        91.4280    9.5407   57.7101  H     
52   H        93.5199    7.6448   58.9000  H     
53   H        95.2023    8.1665   59.0943  H     
@<TRIPOS>BOND
     1    1    2 1
     2    1    5 2
     3    1    6 1
     4    2    3 1
     5    2    7 1
     6    3    4 1
     7    3   10 1
     8    4    5 1
     9    4   17 2
    10    5   18 1
    11    7    8 1
    12    7    9 1
    13   10   11 1
    14   11   12 1
    15   11   16 2
    16   12   13 2
    17   13   14 1
    18   14   15 2
    19   15   16 1
    20   18   20 2
    21   18   21 1
    22   19   20 1
    23   19   22 1
    24   19   27 2
    25   19   28 2
    26   21   22 2
    27   21   23 1
    28   22   26 1
    29   23   24 2
    30   24   25 1
    31   25   26 2
    32   26   29 1
    33   29   30 1
    34   30   31 1
    35   31   32 3
    36    2   33 1
    37    6   34 1
    38    7   35 1
    39    8   36 1
    40    8   37 1
    41    8   38 1
    42    9   39 1
    43    9   40 1
    44    9   41 1
    45   10   42 1
    46   10   43 1
    47   12   44 1
    48   13   45 1
    49   14   46 1
    50   15   47 1
    51   16   48 1
    52   23   49 1
    53   24   50 1
    54   25   51 1
    55   30   52 1
    56   30   53 1
@<TRIPOS>PROPERTY_DATA
  Total_Score	| 5.4578
  Crash		| -0.9880
  Polar		| 1.9683
  FragIndex	| 1
  FragRMSD	| 0.162

