@<TRIPOS>MOLECULE
BindingDB_30479
 63 65 0 0 0
SMALL
NO_CHARGES


@<TRIPOS>ATOM
1    C        94.2705    7.4416   51.6565  C     
2    C        93.9909    7.7296   50.2598  C     
3    N        93.4778    9.0829   50.3857  N     
4    C        93.7439    9.5472   51.6042  C     
5    C        94.2051    8.5565   52.3906  C     
6    O        94.5032    6.2152   52.1081  O     
7    C        95.2613    7.5128   49.3152  C     
8    C        95.2710    6.0293   48.7901  C     
9    C        95.2065    8.4674   48.0718  C     
10   C        92.4449    9.6636   49.5364  C     
11   C        91.0023    9.3953   50.1008  C     
12   C        89.7654   10.1581   49.4732  C     
13   O        93.4071   10.6546   52.0244  O     
14   C        94.4413    8.6496   53.7268  C     
15   S        95.7843    8.9350   55.8269  S     
16   N        95.6805    8.6475   54.1739  N     
17   C        93.4916    8.8547   54.7075  C     
18   C        94.0784    9.0647   55.9586  C     
19   C        92.0877    8.9019   54.5794  C     
20   C        91.3002    9.1838   55.7122  C     
21   C        91.9151    9.4111   56.9644  C     
22   C        93.3215    9.3366   57.1103  C     
23   O        96.1547    7.6961   56.7579  O     
24   O        96.3103   10.3824   56.2356  O     
25   O        94.0197    9.5791   58.2747  O     
26   C        93.3230    9.6443   59.5341  C     
27   C        94.3934    9.5714   60.6611  C     
28   C        90.0384   10.6230   48.0001  C     
29   C        88.5096    9.2099   49.4406  C     
30   C        89.4003   11.4003   50.3526  C     
31   C        96.6402    7.7614   50.0307  C     
32   H        93.1692    7.0851   49.9346  H     
33   H        95.4170    6.2439   52.4748  H     
34   H        95.2640    5.3185   49.6206  H     
35   H        96.1576    5.8215   48.1809  H     
36   H        94.3897    5.8286   48.1773  H     
37   H        94.2711    8.2901   47.5192  H     
38   H        96.0517    8.2715   47.3879  H     
39   H        95.2510    9.5162   48.4125  H     
40   H        92.6179   10.7464   49.4300  H     
41   H        92.5049    9.2181   48.5338  H     
42   H        90.8316    8.3178   49.9896  H     
43   H        91.0102    9.6024   51.1765  H     
44   H        91.6348    8.7313   53.6769  H     
45   H        90.2856    9.2428   55.6127  H     
46   H        91.3250    9.6331   57.7715  H     
47   H        92.7778   10.5831   59.6424  H     
48   H        92.6347    8.8029   59.6692  H     
49   H        94.9468    8.6289   60.5879  H     
50   H        93.9239    9.6250   61.6494  H     
51   H        95.1005   10.3990   60.5626  H     
52   H        90.8463   11.3559   47.9707  H     
53   H        89.1430   11.0922   47.5760  H     
54   H        90.3091    9.7667   47.3769  H     
55   H        88.6537    8.3958   48.7314  H     
56   H        87.6103    9.7550   49.1421  H     
57   H        88.3304    8.7747   50.4252  H     
58   H        88.9516   11.0857   51.2968  H     
59   H        88.6849   12.0478   49.8430  H     
60   H        90.2893   11.9876   50.5842  H     
61   H        96.6570    8.7526   50.4936  H     
62   H        97.4704    7.7061   49.3134  H     
63   H        96.8277    7.0094   50.8073  H     
@<TRIPOS>BOND
     1    1    2 1
     2    1    5 2
     3    1    6 1
     4    2    3 1
     5    2    7 1
     6    3    4 1
     7    3   10 1
     8    4    5 1
     9    4   13 2
    10    5   14 1
    11    7    8 1
    12    7    9 1
    13    7   31 1
    14   10   11 1
    15   11   12 1
    16   12   28 1
    17   12   29 1
    18   12   30 1
    19   14   16 2
    20   14   17 1
    21   15   16 1
    22   15   18 1
    23   15   23 2
    24   15   24 2
    25   17   18 2
    26   17   19 1
    27   18   22 1
    28   19   20 2
    29   20   21 1
    30   21   22 2
    31   22   25 1
    32   25   26 1
    33   26   27 1
    34    2   32 1
    35    6   33 1
    36    8   34 1
    37    8   35 1
    38    8   36 1
    39    9   37 1
    40    9   38 1
    41    9   39 1
    42   10   40 1
    43   10   41 1
    44   11   42 1
    45   11   43 1
    46   19   44 1
    47   20   45 1
    48   21   46 1
    49   26   47 1
    50   26   48 1
    51   27   49 1
    52   27   50 1
    53   27   51 1
    54   28   52 1
    55   28   53 1
    56   28   54 1
    57   29   55 1
    58   29   56 1
    59   29   57 1
    60   30   58 1
    61   30   59 1
    62   30   60 1
    63   31   61 1
    64   31   62 1
    65   31   63 1
@<TRIPOS>PROPERTY_DATA
  Total_Score	| 5.5999
  Crash		| -1.8369
  Polar		| 1.1708
  FragIndex	| 1
  FragRMSD	| 0.714

