@<TRIPOS>MOLECULE
BindingDB_30486
 56 58 0 0 0
SMALL
NO_CHARGES


@<TRIPOS>ATOM
1    C        94.1732    7.5106   51.5875  C     
2    C        93.9335    7.8491   50.1922  C     
3    N        93.3627    9.1666   50.3797  N     
4    C        93.5935    9.5945   51.6129  C     
5    C        94.0672    8.5931   52.3649  C     
6    O        94.4739    6.2747   51.9965  O     
7    C        95.2401    7.7832   49.2870  C     
8    C        92.3420    9.7442   49.5137  C     
9    C        90.8954    9.4666   50.0704  C     
10   O        93.2061   10.6636   52.0686  O     
11   C        94.3671    8.6378   53.6767  C     
12   S        95.8236    8.8288   55.7271  S     
13   N        95.6247    8.6056   54.0699  N     
14   C        93.4663    8.8321   54.6942  C     
15   C        94.1146    9.0063   55.9190  C     
16   C        92.0591    8.9198   54.6344  C     
17   C        91.3332    9.1928   55.8141  C     
18   C        92.0061    9.3955   57.0404  C     
19   C        93.4067    9.2966   57.0999  C     
20   O        96.1753    7.5330   56.5864  O     
21   O        96.3919   10.2458   56.1850  O     
22   C        95.4611    6.3243   48.7603  C     
23   C        95.1079    8.7223   48.0387  C     
24   C        96.5343    8.2215   50.0601  C     
25   C        89.6788   10.2370   49.4147  C     
26   C        88.4174    9.2973   49.3322  C     
27   C        89.2941   11.4622   50.3175  C     
28   C        90.0033   10.7375   47.9655  C     
29   H        93.1560    7.1819   49.8048  H     
30   H        95.4357    6.3070   52.2031  H     
31   H        92.5114   10.8316   49.4058  H     
32   H        92.4081    9.3004   48.5131  H     
33   H        90.7280    8.3867   49.9606  H     
34   H        90.8986    9.6811   51.1466  H     
35   H        91.5649    8.7813   53.7500  H     
36   H        90.3114    9.2572   55.7640  H     
37   H        91.4695    9.6147   57.8734  H     
38   H        93.8978    9.4514   57.9792  H     
39   H        95.6387    5.6287   49.5923  H     
40   H        96.3294    6.2790   48.0898  H     
41   H        94.5772    5.9800   48.2072  H     
42   H        94.1962    8.4715   47.4858  H     
43   H        95.9787    8.6219   47.3691  H     
44   H        95.0525    9.7713   48.3583  H     
45   H        96.4149    9.2262   50.4799  H     
46   H        97.4047    8.2360   49.3953  H     
47   H        96.7614    7.5360   50.8820  H     
48   H        88.6183    8.4424   48.6729  H     
49   H        87.5519    9.8423   48.9290  H     
50   H        88.1500    8.9092   50.3257  H     
51   H        88.8840   11.1260   51.2765  H     
52   H        88.5382   12.0919   49.8312  H     
53   H        90.1736   12.0793   50.5278  H     
54   H        90.8439   11.4434   47.9993  H     
55   H        89.1294   11.2433   47.5199  H     
56   H        90.2760    9.8842   47.3300  H     
@<TRIPOS>BOND
     1    1    2 1
     2    1    5 2
     3    1    6 1
     4    2    3 1
     5    2    7 1
     6    3    4 1
     7    3    8 1
     8    4    5 1
     9    4   10 2
    10    5   11 1
    11    7   22 1
    12    7   23 1
    13    7   24 1
    14    8    9 1
    15    9   25 1
    16   11   13 2
    17   11   14 1
    18   12   13 1
    19   12   15 1
    20   12   20 2
    21   12   21 2
    22   14   15 2
    23   14   16 1
    24   15   19 1
    25   16   17 2
    26   17   18 1
    27   18   19 2
    28   25   26 1
    29   25   27 1
    30   25   28 1
    31    2   29 1
    32    6   30 1
    33    8   31 1
    34    8   32 1
    35    9   33 1
    36    9   34 1
    37   16   35 1
    38   17   36 1
    39   18   37 1
    40   19   38 1
    41   22   39 1
    42   22   40 1
    43   22   41 1
    44   23   42 1
    45   23   43 1
    46   23   44 1
    47   24   45 1
    48   24   46 1
    49   24   47 1
    50   26   48 1
    51   26   49 1
    52   26   50 1
    53   27   51 1
    54   27   52 1
    55   27   53 1
    56   28   54 1
    57   28   55 1
    58   28   56 1
@<TRIPOS>PROPERTY_DATA
  Total_Score	| 4.6657
  Crash		| -1.6177
  Polar		| 1.1436
  FragIndex	| 1
  FragRMSD	| 0.745

