@<TRIPOS>MOLECULE
BindingDB_30492
 59 62 0 0 0
SMALL
NO_CHARGES


@<TRIPOS>ATOM
1    C        94.0808    7.8248   51.6976  C     
2    C        93.8906    8.2321   50.3113  C     
3    N        93.8667    9.6706   50.4729  N     
4    C        94.2992    9.9887   51.6927  C     
5    C        94.4451    8.8747   52.4357  C     
6    O        93.9210    6.5723   52.1397  O     
7    C        95.0129    7.6635   49.3294  C     
8    C        93.2697   10.6310   49.5615  C     
9    C        91.7906   10.4784   49.4604  C     
10   O        94.3699   11.1308   52.1436  O     
11   C        94.9495    8.8345   53.6853  C     
12   S        96.7643    8.7684   55.4451  S     
13   N        96.2588    8.7465   53.8429  N     
14   C        94.2441    8.8890   54.8705  C     
15   C        95.1145    8.8678   55.9596  C     
16   C        92.8491    8.9442   55.0990  C     
17   C        92.3690    8.9936   56.4256  C     
18   C        93.2568    8.9602   57.5418  C     
19   C        94.6494    8.9098   57.2777  C     
20   O        97.2370    7.4006   56.1074  O     
21   O        97.3547   10.1596   55.9721  O     
22   C        96.4585    7.9511   49.8752  C     
23   C        94.8678    6.1085   49.1537  C     
24   C        94.8886    8.3040   47.9048  C     
25   C        91.1454   10.3933   48.2067  C     
26   C        91.0008   10.4458   50.6348  C     
27   C        89.6064   10.2808   50.5621  C     
28   C        88.9769   10.1640   49.3057  C     
29   C        89.7452   10.2436   48.1264  C     
30   Cl       89.0140   10.1546   46.6000  Cl    
31   F        87.6831    9.9765   49.2534  F     
32   N        92.7382    9.0295   58.8023  N     
33   C        92.6985    6.7637   60.5253  C     
34   S        93.4243    8.3788   60.2045  S     
35   O        95.0172    8.2498   60.2252  O     
36   O        93.0971    9.3219   61.4446  O     
37   H        92.8980    7.8809   50.0086  H     
38   H        94.4331    6.5039   52.9746  H     
39   H        93.4574   11.6636   49.8800  H     
40   H        93.7365   10.5579   48.5817  H     
41   H        92.1881    8.9225   54.3186  H     
42   H        91.3501    9.0285   56.5885  H     
43   H        95.3429    8.8954   58.0306  H     
44   H        96.6125    9.0224   50.0491  H     
45   H        97.2068    7.6020   49.1555  H     
46   H        96.6334    7.4235   50.8186  H     
47   H        95.1500    5.5752   50.0681  H     
48   H        95.5250    5.7465   48.3557  H     
49   H        93.8383    5.8393   48.9028  H     
50   H        93.8388    8.4571   47.6465  H     
51   H        95.3392    7.6678   47.1336  H     
52   H        95.4026    9.2641   47.8513  H     
53   H        91.6928   10.4447   47.3475  H     
54   H        91.4368   10.5201   51.5548  H     
55   H        89.0504   10.2345   51.4214  H     
56   H        91.8004    9.2675   58.8740  H     
57   H        91.6346    6.8840   60.7519  H     
58   H        93.1926    6.2909   61.3655  H     
59   H        92.8048    6.1320   59.6492  H     
@<TRIPOS>BOND
     1    1    2 1
     2    1    5 2
     3    1    6 1
     4    2    3 1
     5    2    7 1
     6    3    4 1
     7    3    8 1
     8    4    5 1
     9    4   10 2
    10    5   11 1
    11    7   22 1
    12    7   23 1
    13    7   24 1
    14    8    9 1
    15    9   25 1
    16    9   26 2
    17   11   13 2
    18   11   14 1
    19   12   13 1
    20   12   15 1
    21   12   20 2
    22   12   21 2
    23   14   15 2
    24   14   16 1
    25   15   19 1
    26   16   17 2
    27   17   18 1
    28   18   19 2
    29   18   32 1
    30   25   29 2
    31   26   27 1
    32   27   28 2
    33   28   29 1
    34   28   31 1
    35   29   30 1
    36   32   34 1
    37   33   34 1
    38   34   35 2
    39   34   36 2
    40    2   37 1
    41    6   38 1
    42    8   39 1
    43    8   40 1
    44   16   41 1
    45   17   42 1
    46   19   43 1
    47   22   44 1
    48   22   45 1
    49   22   46 1
    50   23   47 1
    51   23   48 1
    52   23   49 1
    53   24   50 1
    54   24   51 1
    55   24   52 1
    56   25   53 1
    57   26   54 1
    58   27   55 1
    59   32   56 1
    60   33   57 1
    61   33   58 1
    62   33   59 1
@<TRIPOS>PROPERTY_DATA
  Total_Score	| 5.6671
  Crash		| -2.8100
  Polar		| 2.1268
  FragIndex	| 1
  FragRMSD	| 0.696

