@<TRIPOS>MOLECULE
BindingDB_30471
 49 52 0 0 0
SMALL
NO_CHARGES


@<TRIPOS>ATOM
1    C        94.0851    7.7076   51.5725  C     
2    C        93.7408    8.1097   50.2246  C     
3    N        93.6943    9.5423   50.3929  N     
4    C        94.0677    9.8706   51.6212  C     
5    C        94.2777    8.7719   52.3526  C     
6    O        94.0479    6.4491   52.0044  O     
7    C        94.7302    7.6229   49.1030  C     
8    C        96.1546    8.2439   49.1795  C     
9    C        94.8431    6.0744   49.0214  C     
10   C        93.2268   10.4842   49.3963  C     
11   C        91.7503   10.4451   49.2330  C     
12   C        91.1414   10.2928   47.9654  C     
13   C        89.7360   10.2685   47.8391  C     
14   C        88.9257   10.4000   48.9786  C     
15   C        89.5174   10.5725   50.2417  C     
16   C        90.9171   10.6057   50.3637  C     
17   O        94.1235   11.0104   52.0679  O     
18   C        94.4959    8.7358   53.6861  C     
19   S        95.7917    8.5416   55.8372  S     
20   N        95.7090    8.5338   54.1573  N     
21   C        93.5373    8.9116   54.6656  C     
22   C        94.0981    8.8404   55.9446  C     
23   C        92.1460    9.1251   54.5275  C     
24   C        91.3485    9.2823   55.6803  C     
25   C        91.9337    9.2307   56.9617  C     
26   C        93.3151    8.9929   57.1038  C     
27   O        96.0026    7.1317   56.5428  O     
28   O        96.4701    9.8214   56.4934  O     
29   O        93.8698    8.8909   58.3329  O     
30   H        92.7360    7.7331   50.0031  H     
31   H        94.9432    6.2827   52.3694  H     
32   H        94.3042    7.9480   48.1484  H     
33   H        96.1110    9.3307   49.0883  H     
34   H        96.7801    7.8701   48.3658  H     
35   H        96.6354    7.9945   50.1268  H     
36   H        95.4294    5.6900   49.8585  H     
37   H        95.3339    5.7753   48.0928  H     
38   H        93.8543    5.6089   49.0488  H     
39   H        93.4838   11.5081   49.6714  H     
40   H        93.7409   10.2930   48.4505  H     
41   H        91.7146   10.2062   47.1213  H     
42   H        89.3026   10.1503   46.9208  H     
43   H        87.9071   10.3751   48.8932  H     
44   H        88.9307   10.6839   51.0731  H     
45   H        91.3283   10.7479   51.2882  H     
46   H        91.7092    9.1687   53.6037  H     
47   H        90.3397    9.4287   55.5899  H     
48   H        91.3504    9.3540   57.7923  H     
49   H        93.6096    7.9908   58.6342  H     
@<TRIPOS>BOND
     1    1    2 1
     2    1    5 2
     3    1    6 1
     4    2    3 1
     5    2    7 1
     6    3    4 1
     7    3   10 1
     8    4    5 1
     9    4   17 2
    10    5   18 1
    11    7    8 1
    12    7    9 1
    13   10   11 1
    14   11   12 1
    15   11   16 2
    16   12   13 2
    17   13   14 1
    18   14   15 2
    19   15   16 1
    20   18   20 2
    21   18   21 1
    22   19   20 1
    23   19   22 1
    24   19   27 2
    25   19   28 2
    26   21   22 2
    27   21   23 1
    28   22   26 1
    29   23   24 2
    30   24   25 1
    31   25   26 2
    32   26   29 1
    33    2   30 1
    34    6   31 1
    35    7   32 1
    36    8   33 1
    37    8   34 1
    38    8   35 1
    39    9   36 1
    40    9   37 1
    41    9   38 1
    42   10   39 1
    43   10   40 1
    44   12   41 1
    45   13   42 1
    46   14   43 1
    47   15   44 1
    48   16   45 1
    49   23   46 1
    50   24   47 1
    51   25   48 1
    52   29   49 1
@<TRIPOS>PROPERTY_DATA
  Total_Score	| 4.6947
  Crash		| -0.8118
  Polar		| 1.0717
  FragIndex	| 1
  FragRMSD	| 0.156

