@<TRIPOS>MOLECULE
BindingDB_30469
 48 51 0 0 0
SMALL
NO_CHARGES


@<TRIPOS>ATOM
1    C        93.9019    7.6349   51.5035  C     
2    C        93.6405    8.0820   50.1528  C     
3    N        93.7121    9.5074   50.3439  N     
4    C        94.1120    9.7887   51.5760  C     
5    C        94.2206    8.6639   52.2900  C     
6    O        93.7163    6.3826   51.9162  O     
7    C        94.6367    7.5195   49.0736  C     
8    C        96.0767    8.1018   49.1751  C     
9    C        94.6970    5.9640   49.0565  C     
10   C        93.2945   10.4815   49.3616  C     
11   C        91.8151   10.4853   49.1909  C     
12   C        90.9696   10.6717   50.3131  C     
13   C        89.5686   10.6622   50.1698  C     
14   C        88.9940   10.4723   48.9004  C     
15   C        89.8207   10.3014   47.7732  C     
16   C        91.2217   10.3166   47.9176  C     
17   O        94.2315   10.9167   52.0443  O     
18   C        94.4490    8.6024   53.6206  C     
19   S        95.7747    8.5430   55.7550  S     
20   N        95.6781    8.4741   54.0783  N     
21   C        93.4990    8.7961   54.6052  C     
22   C        94.0750    8.7927   55.8792  C     
23   C        92.1074    9.0064   54.4716  C     
24   C        91.3236    9.2231   55.6240  C     
25   C        91.9229    9.2314   56.9011  C     
26   C        93.3083    9.0129   57.0377  C     
27   O        96.1143    7.1473   56.4426  O     
28   O        96.4730    9.8555   56.3171  O     
29   H        92.6147    7.8022   49.8879  H     
30   H        92.8524    6.1149   51.5364  H     
31   H        94.2449    7.8221   48.0973  H     
32   H        96.0638    9.1890   49.0824  H     
33   H        96.7021    7.7071   48.3723  H     
34   H        96.5317    7.8398   50.1314  H     
35   H        95.2783    5.5922   49.9027  H     
36   H        95.1690    5.6114   48.1345  H     
37   H        93.6952    5.5310   49.1139  H     
38   H        93.5989   11.4928   49.6473  H     
39   H        93.8035   10.2696   48.4187  H     
40   H        91.3700   10.8111   51.2438  H     
41   H        88.9681   10.7930   50.9883  H     
42   H        87.9761   10.4595   48.7961  H     
43   H        89.4031   10.1659   46.8489  H     
44   H        91.8071   10.2032   47.0857  H     
45   H        91.6654    9.0103   53.5493  H     
46   H        90.3157    9.3711   55.5337  H     
47   H        91.3514    9.3994   57.7318  H     
48   H        93.7477    9.0251   57.9609  H     
@<TRIPOS>BOND
     1    1    2 1
     2    1    5 2
     3    1    6 1
     4    2    3 1
     5    2    7 1
     6    3    4 1
     7    3   10 1
     8    4    5 1
     9    4   17 2
    10    5   18 1
    11    7    8 1
    12    7    9 1
    13   10   11 1
    14   11   12 1
    15   11   16 2
    16   12   13 2
    17   13   14 1
    18   14   15 2
    19   15   16 1
    20   18   20 2
    21   18   21 1
    22   19   20 1
    23   19   22 1
    24   19   27 2
    25   19   28 2
    26   21   22 2
    27   21   23 1
    28   22   26 1
    29   23   24 2
    30   24   25 1
    31   25   26 2
    32    2   29 1
    33    6   30 1
    34    7   31 1
    35    8   32 1
    36    8   33 1
    37    8   34 1
    38    9   35 1
    39    9   36 1
    40    9   37 1
    41   10   38 1
    42   10   39 1
    43   12   40 1
    44   13   41 1
    45   14   42 1
    46   15   43 1
    47   16   44 1
    48   23   45 1
    49   24   46 1
    50   25   47 1
    51   26   48 1
@<TRIPOS>PROPERTY_DATA
  Total_Score	| 4.8562
  Crash		| -1.1155
  Polar		| 0.9518
  FragIndex	| 1
  FragRMSD	| 0.205

