@<TRIPOS>MOLECULE
BindingDB_30478
 60 62 0 0 0
SMALL
NO_CHARGES


@<TRIPOS>ATOM
1    C        94.2291    7.5011   51.5845  C     
2    C        93.8952    7.8324   50.2091  C     
3    N        93.2801    9.1235   50.4338  N     
4    C        93.5236    9.5387   51.6676  C     
5    C        94.0800    8.5574   52.3886  C     
6    O        94.5848    6.2815   52.0013  O     
7    C        95.1736    7.8292   49.2734  C     
8    C        95.5313    6.3945   48.7667  C     
9    C        95.0267    8.7690   48.0399  C     
10   C        92.2944    9.7266   49.5609  C     
11   C        90.8404    9.4358   50.0672  C     
12   C        89.6399   10.2281   49.4030  C     
13   O        93.1145   10.5875   52.1459  O     
14   C        94.3981    8.5889   53.6996  C     
15   S        95.8679    8.6377   55.7286  S     
16   N        95.6534    8.4581   54.0756  N     
17   C        93.5220    8.8291   54.7409  C     
18   C        94.1833    8.9256   55.9683  C     
19   C        92.1183    8.9661   54.6824  C     
20   C        91.3979    9.2205   55.8654  C     
21   C        92.0728    9.3287   57.0949  C     
22   C        93.4754    9.2003   57.1574  C     
23   O        96.2965    7.2845   56.4496  O     
24   O        96.7099    9.9542   56.0252  O     
25   O        94.1000    9.3067   58.3661  O     
26   C        94.6191   10.6180   58.6907  C     
27   C        93.5899   11.7738   58.6496  C     
28   C        89.2639   11.4601   50.2940  C     
29   C        89.9949   10.7103   47.9504  C     
30   C        88.3666    9.3114   49.3053  C     
31   H        93.1413    7.1174   49.8562  H     
32   H        95.5669    6.2728   51.9357  H     
33   H        96.0397    8.1926   49.8541  H     
34   H        95.8013    5.7341   49.5969  H     
35   H        96.3946    6.4316   48.0878  H     
36   H        94.6791    5.9538   48.2309  H     
37   H        94.1719    8.4350   47.4305  H     
38   H        95.9532    8.7588   47.4319  H     
39   H        94.8736    9.7965   48.3916  H     
40   H        92.4828   10.8109   49.4884  H     
41   H        92.3961    9.3105   48.5458  H     
42   H        90.6743    8.3582   49.9290  H     
43   H        90.7920    9.6126   51.1508  H     
44   H        91.6168    8.8862   53.7940  H     
45   H        90.3852    9.3274   55.8251  H     
46   H        91.5399    9.5061   57.9396  H     
47   H        95.0056   10.5645   59.7123  H     
48   H        95.4603   10.8809   58.0383  H     
49   H        93.2718   11.9590   57.6192  H     
50   H        94.0457   12.6964   59.0404  H     
51   H        92.7136   11.5250   59.2592  H     
52   H        88.8229   11.1301   51.2464  H     
53   H        88.5298   12.1088   49.7922  H     
54   H        90.1538   12.0584   50.5270  H     
55   H        90.8267   11.4204   47.9878  H     
56   H        89.1323   11.2142   47.4811  H     
57   H        90.2754    9.8466   47.3373  H     
58   H        88.5588    8.4415   48.6634  H     
59   H        87.5191    9.8676   48.8754  H     
60   H        88.0634    8.9421   50.2978  H     
@<TRIPOS>BOND
     1    1    2 1
     2    1    5 2
     3    1    6 1
     4    2    3 1
     5    2    7 1
     6    3    4 1
     7    3   10 1
     8    4    5 1
     9    4   13 2
    10    5   14 1
    11    7    8 1
    12    7    9 1
    13   10   11 1
    14   11   12 1
    15   12   28 1
    16   12   29 1
    17   12   30 1
    18   14   16 2
    19   14   17 1
    20   15   16 1
    21   15   18 1
    22   15   23 2
    23   15   24 2
    24   17   18 2
    25   17   19 1
    26   18   22 1
    27   19   20 2
    28   20   21 1
    29   21   22 2
    30   22   25 1
    31   25   26 1
    32   26   27 1
    33    2   31 1
    34    6   32 1
    35    7   33 1
    36    8   34 1
    37    8   35 1
    38    8   36 1
    39    9   37 1
    40    9   38 1
    41    9   39 1
    42   10   40 1
    43   10   41 1
    44   11   42 1
    45   11   43 1
    46   19   44 1
    47   20   45 1
    48   21   46 1
    49   26   47 1
    50   26   48 1
    51   27   49 1
    52   27   50 1
    53   27   51 1
    54   28   52 1
    55   28   53 1
    56   28   54 1
    57   29   55 1
    58   29   56 1
    59   29   57 1
    60   30   58 1
    61   30   59 1
    62   30   60 1
@<TRIPOS>PROPERTY_DATA
  Total_Score	| 4.6604
  Crash		| -1.6143
  Polar		| 1.0787
  FragIndex	| 1
  FragRMSD	| 0.840

