@<TRIPOS>MOLECULE
BindingDB_30472
 56 59 0 0 0
SMALL
NO_CHARGES


@<TRIPOS>ATOM
1    C        94.0865    7.6558   51.5376  C     
2    C        93.7693    8.0381   50.1752  C     
3    N        93.7655    9.4758   50.3133  N     
4    C        94.1302    9.8203   51.5433  C     
5    C        94.3107    8.7299   52.2981  C     
6    O        94.0603    6.4043   51.9827  O     
7    C        94.7590    7.4801   49.0933  C     
8    C        96.2084    8.0341   49.2111  C     
9    C        94.7857    5.9220   49.0361  C     
10   C        93.3473   10.4084   49.2858  C     
11   C        91.8675   10.4806   49.1554  C     
12   C        91.2242   10.3266   47.9076  C     
13   C        89.8208   10.3585   47.8076  C     
14   C        89.0347   10.5600   48.9551  C     
15   C        89.6583   10.7582   50.2000  C     
16   C        91.0623   10.7121   50.3003  C     
17   O        94.2149   10.9666   51.9677  O     
18   C        94.5200    8.7153   53.6410  C     
19   S        95.7965    8.7359   55.7972  S     
20   N        95.7407    8.6281   54.1234  N     
21   C        93.5439    8.8957   54.6036  C     
22   C        94.1017    9.0098   55.8789  C     
23   C        92.1442    8.9792   54.4418  C     
24   C        91.3299    9.1877   55.5699  C     
25   C        91.9082    9.3547   56.8472  C     
26   C        93.3121    9.3025   57.0125  C     
27   O        96.0596    7.3464   56.5404  O     
28   O        96.5159   10.0115   56.4073  O     
29   O        93.9358    9.5035   58.2213  O     
30   C        93.7666   10.8022   58.8419  C     
31   C        94.2570   11.9605   58.1120  C     
32   N        94.4944   13.0887   58.7518  N     
33   O        94.4453   11.9537   56.9038  O     
34   H        92.7534    7.7020   49.9512  H     
35   H        94.9434    6.2568   52.3882  H     
36   H        94.3776    7.8066   48.1254  H     
37   H        96.2093    9.1238   49.1345  H     
38   H        96.8297    7.6421   48.4012  H     
39   H        96.6587    7.7501   50.1631  H     
40   H        95.3737    5.5084   49.8598  H     
41   H        95.2341    5.5881   48.0962  H     
42   H        93.7752    5.5087   49.0982  H     
43   H        93.7109   11.4163   49.4905  H     
44   H        93.8079   10.1191   48.3444  H     
45   H        91.7765   10.1964   47.0587  H     
46   H        89.3696   10.2257   46.9016  H     
47   H        88.0178   10.5773   48.8862  H     
48   H        89.0934   10.9228   51.0370  H     
49   H        91.4993   10.8533   51.2168  H     
50   H        91.7174    8.8695   53.5205  H     
51   H        90.3117    9.2041   55.4690  H     
52   H        91.3010    9.5147   57.6494  H     
53   H        92.7103   10.9487   59.0805  H     
54   H        94.3011   10.7528   59.7901  H     
55   H        94.8016   13.8712   58.2632  H     
56   H        94.3529   13.1460   59.7088  H     
@<TRIPOS>BOND
     1    1    2 1
     2    1    5 2
     3    1    6 1
     4    2    3 1
     5    2    7 1
     6    3    4 1
     7    3   10 1
     8    4    5 1
     9    4   17 2
    10    5   18 1
    11    7    8 1
    12    7    9 1
    13   10   11 1
    14   11   12 1
    15   11   16 2
    16   12   13 2
    17   13   14 1
    18   14   15 2
    19   15   16 1
    20   18   20 2
    21   18   21 1
    22   19   20 1
    23   19   22 1
    24   19   27 2
    25   19   28 2
    26   21   22 2
    27   21   23 1
    28   22   26 1
    29   23   24 2
    30   24   25 1
    31   25   26 2
    32   26   29 1
    33   29   30 1
    34   30   31 1
    35   31   32 am
    36   31   33 2
    37    2   34 1
    38    6   35 1
    39    7   36 1
    40    8   37 1
    41    8   38 1
    42    8   39 1
    43    9   40 1
    44    9   41 1
    45    9   42 1
    46   10   43 1
    47   10   44 1
    48   12   45 1
    49   13   46 1
    50   14   47 1
    51   15   48 1
    52   16   49 1
    53   23   50 1
    54   24   51 1
    55   25   52 1
    56   30   53 1
    57   30   54 1
    58   32   55 1
    59   32   56 1
@<TRIPOS>PROPERTY_DATA
  Total_Score	| 6.0515
  Crash		| -0.9452
  Polar		| 2.5388
  FragIndex	| 1
  FragRMSD	| 0.150

