@<TRIPOS>MOLECULE
BindingDB_30485
 60 62 0 0 0
SMALL
NO_CHARGES


@<TRIPOS>ATOM
1    C        94.2935    7.6244   51.6426  C     
2    C        94.1235    7.9780   50.2436  C     
3    N        93.7587    9.3808   50.4059  N     
4    C        93.9605    9.7564   51.6668  C     
5    C        94.2928    8.7128   52.4181  C     
6    O        94.3885    6.3660   52.0668  O     
7    C        95.3733    7.6157   49.3250  C     
8    C        92.9532   10.1686   49.4688  C     
9    C        91.5794    9.5106   49.1198  C     
10   O        93.7012   10.8641   52.1337  O     
11   C        94.4867    8.7080   53.7566  C     
12   S        95.7856    8.7468   55.9107  S     
13   N        95.7109    8.6298   54.2365  N     
14   C        93.5172    8.8720   54.7245  C     
15   C        94.0813    8.9398   56.0019  C     
16   C        92.1163    8.9891   54.5772  C     
17   C        91.3129    9.2065   55.7142  C     
18   C        91.9051    9.3212   56.9866  C     
19   C        93.2998    9.1647   57.1519  C     
20   O        96.0754    7.3876   56.6920  O     
21   O        96.3665   10.1130   56.4888  O     
22   O        93.9092    9.3386   58.3678  O     
23   C        93.3834    8.5482   59.4555  C     
24   C        94.1287    8.9162   60.7454  C     
25   C        96.7450    7.9079   50.0258  C     
26   C        95.3143    6.0969   48.9589  C     
27   C        95.3689    8.4001   47.9716  C     
28   C        90.3936   10.4887   48.8718  C     
29   C        89.2201    9.7463   48.1608  C     
30   C        89.9030   11.1419   50.2001  C     
31   H        93.2499    7.4332   49.8777  H     
32   H        95.3512    6.2135   52.2259  H     
33   H        92.7746   11.1788   49.8576  H     
34   H        93.5153   10.3273   48.5463  H     
35   H        91.7238    8.9052   48.2182  H     
36   H        91.2572    8.8228   49.9139  H     
37   H        91.6844    8.9253   53.6492  H     
38   H        90.3019    9.2890   55.6126  H     
39   H        91.3143    9.5235   57.7964  H     
40   H        92.3170    8.7536   59.6062  H     
41   H        93.5169    7.4772   59.2526  H     
42   H        95.1892    8.6665   60.6541  H     
43   H        93.7131    8.3639   61.5853  H     
44   H        94.0337    9.9818   60.9410  H     
45   H        96.7786    8.9395   50.3898  H     
46   H        97.5881    7.7600   49.3345  H     
47   H        96.9061    7.2386   50.8729  H     
48   H        95.3453    5.4730   49.8560  H     
49   H        96.1521    5.7991   48.3187  H     
50   H        94.3864    5.8570   48.4247  H     
51   H        94.4105    8.2853   47.4600  H     
52   H        96.1537    8.0333   47.2938  H     
53   H        95.5612    9.4660   48.1396  H     
54   H        90.7327   11.2781   48.1831  H     
55   H        89.5636    9.2737   47.2302  H     
56   H        88.4143   10.4503   47.9008  H     
57   H        88.8027    8.9712   48.8098  H     
58   H        89.6813   10.3681   50.9458  H     
59   H        88.9961   11.7429   50.0266  H     
60   H        90.6901   11.8036   50.5988  H     
@<TRIPOS>BOND
     1    1    2 1
     2    1    5 2
     3    1    6 1
     4    2    3 1
     5    2    7 1
     6    3    4 1
     7    3    8 1
     8    4    5 1
     9    4   10 2
    10    5   11 1
    11    7   25 1
    12    7   26 1
    13    7   27 1
    14    8    9 1
    15    9   28 1
    16   11   13 2
    17   11   14 1
    18   12   13 1
    19   12   15 1
    20   12   20 2
    21   12   21 2
    22   14   15 2
    23   14   16 1
    24   15   19 1
    25   16   17 2
    26   17   18 1
    27   18   19 2
    28   19   22 1
    29   22   23 1
    30   23   24 1
    31   28   29 1
    32   28   30 1
    33    2   31 1
    34    6   32 1
    35    8   33 1
    36    8   34 1
    37    9   35 1
    38    9   36 1
    39   16   37 1
    40   17   38 1
    41   18   39 1
    42   23   40 1
    43   23   41 1
    44   24   42 1
    45   24   43 1
    46   24   44 1
    47   25   45 1
    48   25   46 1
    49   25   47 1
    50   26   48 1
    51   26   49 1
    52   26   50 1
    53   27   51 1
    54   27   52 1
    55   27   53 1
    56   28   54 1
    57   29   55 1
    58   29   56 1
    59   29   57 1
    60   30   58 1
    61   30   59 1
    62   30   60 1
@<TRIPOS>PROPERTY_DATA
  Total_Score	| 5.1476
  Crash		| -1.2938
  Polar		| 1.0968
  FragIndex	| 1
  FragRMSD	| 0.470

