@<TRIPOS>MOLECULE
BindingDB_30470
 55 58 0 0 0
SMALL
NO_CHARGES


@<TRIPOS>ATOM
1    C        94.1176    7.6378   51.4914  C     
2    C        93.7450    8.0923   50.1689  C     
3    N        93.6907    9.5173   50.3881  N     
4    C        94.0515    9.8027   51.6302  C     
5    C        94.3357    8.6764   52.2976  C     
6    O        94.0978    6.3576   51.8645  O     
7    C        94.7185    7.6355   49.0242  C     
8    C        96.1103    8.3323   49.0674  C     
9    C        94.8930    6.0895   48.9563  C     
10   C        93.2217   10.4851   49.4195  C     
11   C        91.7443   10.4586   49.2565  C     
12   C        90.9053   10.6194   50.3851  C     
13   C        89.5045   10.6279   50.2472  C     
14   C        88.9234   10.4736   48.9744  C     
15   C        89.7439   10.3174   47.8414  C     
16   C        91.1445   10.3164   47.9823  C     
17   O        93.9710   10.9064   52.1618  O     
18   C        94.5797    8.6150   53.6238  C     
19   S        95.8843    8.9222   55.7445  S     
20   N        95.8102    8.7126   54.0782  N     
21   C        93.6085    8.7514   54.5938  C     
22   C        94.1648    8.9876   55.8542  C     
23   C        92.2109    8.7908   54.4153  C     
24   C        91.3868    9.1231   55.5121  C     
25   C        91.9635    9.4105   56.7688  C     
26   C        93.3630    9.3278   56.9607  C     
27   O        96.3707    7.6227   56.5226  O     
28   O        96.4050   10.3564   56.1950  O     
29   O        93.9263    9.7712   58.1275  O     
30   C        94.3564    8.7715   59.0694  C     
31   C        93.4248    8.6361   60.2898  C     
32   H        92.7348    7.7289   49.9497  H     
33   H        95.0328    6.0846   51.9719  H     
34   H        94.2497    7.9274   48.0775  H     
35   H        96.0006    9.4173   49.0198  H     
36   H        96.7159    8.0213   48.2148  H     
37   H        96.6459    8.0754   49.9854  H     
38   H        95.5276    5.7325   49.7695  H     
39   H        95.3578    5.8045   48.0099  H     
40   H        93.9283    5.5832   49.0264  H     
41   H        93.4970   11.5024   49.7119  H     
42   H        93.7278   10.3054   48.4691  H     
43   H        91.3117   10.7379   51.3161  H     
44   H        88.9090   10.7476   51.0703  H     
45   H        87.9059   10.4792   48.8717  H     
46   H        89.3226   10.2095   46.9142  H     
47   H        91.7254   10.2153   47.1453  H     
48   H        91.8041    8.6189   53.4884  H     
49   H        90.3739    9.1927   55.3849  H     
50   H        91.3629    9.6932   57.5453  H     
51   H        94.4859    7.7962   58.5936  H     
52   H        95.3360    9.0905   59.4250  H     
53   H        93.1375    9.6253   60.6513  H     
54   H        93.9347    8.0981   61.0930  H     
55   H        92.5265    8.0793   60.0137  H     
@<TRIPOS>BOND
     1    1    2 1
     2    1    5 2
     3    1    6 1
     4    2    3 1
     5    2    7 1
     6    3    4 1
     7    3   10 1
     8    4    5 1
     9    4   17 2
    10    5   18 1
    11    7    8 1
    12    7    9 1
    13   10   11 1
    14   11   12 1
    15   11   16 2
    16   12   13 2
    17   13   14 1
    18   14   15 2
    19   15   16 1
    20   18   20 2
    21   18   21 1
    22   19   20 1
    23   19   22 1
    24   19   27 2
    25   19   28 2
    26   21   22 2
    27   21   23 1
    28   22   26 1
    29   23   24 2
    30   24   25 1
    31   25   26 2
    32   26   29 1
    33   29   30 1
    34   30   31 1
    35    2   32 1
    36    6   33 1
    37    7   34 1
    38    8   35 1
    39    8   36 1
    40    8   37 1
    41    9   38 1
    42    9   39 1
    43    9   40 1
    44   10   41 1
    45   10   42 1
    46   12   43 1
    47   13   44 1
    48   14   45 1
    49   15   46 1
    50   16   47 1
    51   23   48 1
    52   24   49 1
    53   25   50 1
    54   30   51 1
    55   30   52 1
    56   31   53 1
    57   31   54 1
    58   31   55 1
@<TRIPOS>PROPERTY_DATA
  Total_Score	| 5.6578
  Crash		| -0.8057
  Polar		| 1.1217
  FragIndex	| 1
  FragRMSD	| 0.199

