@<TRIPOS>MOLECULE
BindingDB_30473
 59 62 0 0 0
SMALL
NO_CHARGES


@<TRIPOS>ATOM
1    C        93.8965    7.6687   51.5141  C     
2    C        93.6559    8.1240   50.1623  C     
3    N        93.6999    9.5495   50.3676  N     
4    C        94.0557    9.8241   51.6110  C     
5    C        94.1583    8.6952   52.3206  C     
6    O        93.7431    6.4070   51.9094  O     
7    C        94.6792    7.5981   49.0940  C     
8    C        96.1017    8.2260   49.2084  C     
9    C        94.7781    6.0420   49.0572  C     
10   C        93.3145   10.5326   49.3809  C     
11   C        91.8431   10.5283   49.1634  C     
12   C        91.2921   10.3175   47.8789  C     
13   C        89.8956   10.3032   47.6907  C     
14   C        89.0355   10.5201   48.7804  C     
15   C        89.5694   10.7523   50.0587  C     
16   C        90.9636   10.7625   50.2462  C     
17   O        94.1538   10.9457   52.0912  O     
18   C        94.3910    8.6170   53.6472  C     
19   S        95.7418    8.7379   55.7554  S     
20   N        95.6338    8.6202   54.0821  N     
21   C        93.4476    8.7750   54.6465  C     
22   C        94.0322    8.8818   55.9179  C     
23   C        92.0512    8.9033   54.5190  C     
24   C        91.2715    9.1818   55.6550  C     
25   C        91.8846    9.3514   56.9143  C     
26   C        93.2819    9.1670   57.0809  C     
27   O        96.2681    7.3715   56.3747  O     
28   O        96.4151   10.1007   56.2212  O     
29   O        93.9638    9.4560   58.2367  O     
30   C        93.4635    9.1885   59.5673  C     
31   C        93.0430    7.7326   59.9338  C     
32   C        93.4358    6.6756   59.0015  C     
33   N        92.9234    5.4690   59.0709  N     
34   O        94.2025    6.9004   58.0675  O     
35   H        92.6419    7.8299   49.8659  H     
36   H        92.9229    6.0956   51.4714  H     
37   H        94.2952    7.9001   48.1104  H     
38   H        96.0508    9.3180   49.1441  H     
39   H        96.7454    7.8754   48.3999  H     
40   H        96.5651    7.9571   50.1671  H     
41   H        95.3287    5.6724   49.9267  H     
42   H        95.2982    5.7129   48.1554  H     
43   H        93.7835    5.5946   49.0644  H     
44   H        93.6002   11.5410   49.6894  H     
45   H        93.8620   10.3362   48.4545  H     
46   H        91.9035   10.1731   47.0726  H     
47   H        89.5097   10.1403   46.7575  H     
48   H        88.0229   10.5111   48.6418  H     
49   H        88.9455   10.9153   50.8507  H     
50   H        91.3322   10.9351   51.1837  H     
51   H        91.6025    8.8300   53.6051  H     
52   H        90.2595    9.2815   55.5662  H     
53   H        91.3062    9.6145   57.7084  H     
54   H        94.2693    9.4809   60.2481  H     
55   H        92.6277    9.8696   59.7648  H     
56   H        93.4494    7.4827   60.9200  H     
57   H        91.9510    7.7106   60.0299  H     
58   H        93.1383    4.8329   58.3668  H     
59   H        92.2921    5.2229   59.7792  H     
@<TRIPOS>BOND
     1    1    2 1
     2    1    5 2
     3    1    6 1
     4    2    3 1
     5    2    7 1
     6    3    4 1
     7    3   10 1
     8    4    5 1
     9    4   17 2
    10    5   18 1
    11    7    8 1
    12    7    9 1
    13   10   11 1
    14   11   12 1
    15   11   16 2
    16   12   13 2
    17   13   14 1
    18   14   15 2
    19   15   16 1
    20   18   20 2
    21   18   21 1
    22   19   20 1
    23   19   22 1
    24   19   27 2
    25   19   28 2
    26   21   22 2
    27   21   23 1
    28   22   26 1
    29   23   24 2
    30   24   25 1
    31   25   26 2
    32   26   29 1
    33   29   30 1
    34   30   31 1
    35   31   32 1
    36   32   33 am
    37   32   34 2
    38    2   35 1
    39    6   36 1
    40    7   37 1
    41    8   38 1
    42    8   39 1
    43    8   40 1
    44    9   41 1
    45    9   42 1
    46    9   43 1
    47   10   44 1
    48   10   45 1
    49   12   46 1
    50   13   47 1
    51   14   48 1
    52   15   49 1
    53   16   50 1
    54   23   51 1
    55   24   52 1
    56   25   53 1
    57   30   54 1
    58   30   55 1
    59   31   56 1
    60   31   57 1
    61   33   58 1
    62   33   59 1
@<TRIPOS>PROPERTY_DATA
  Total_Score	| 6.5385
  Crash		| -2.2764
  Polar		| 1.8323
  FragIndex	| 1
  FragRMSD	| 0.195

