@<TRIPOS>MOLECULE
BindingDB_30474
 66 69 0 0 0
SMALL
NO_CHARGES


@<TRIPOS>ATOM
1    C        94.1050    7.6801   51.6039  C     
2    C        93.7391    8.1062   50.2730  C     
3    N        93.7271    9.5353   50.4655  N     
4    C        94.1521    9.8403   51.6805  C     
5    C        94.3547    8.7290   52.3842  C     
6    O        94.0779    6.4173   52.0084  O     
7    C        94.7031    7.6122   49.1345  C     
8    C        96.1193    8.2512   49.1935  C     
9    C        94.8145    6.0608   49.0647  C     
10   C        93.2425   10.5011   49.5002  C     
11   C        91.7659   10.4460   49.3585  C     
12   C        90.9282   10.6263   50.4868  C     
13   C        89.5273   10.5923   50.3581  C     
14   C        88.9415   10.3674   49.0969  C     
15   C        89.7625   10.1919   47.9659  C     
16   C        91.1620   10.2386   48.0959  C     
17   O        94.2508   10.9771   52.1349  O     
18   C        94.5592    8.6931   53.7141  C     
19   S        95.8370    8.9308   55.8638  S     
20   N        95.7814    8.7074   54.1968  N     
21   C        93.5773    8.8851   54.6717  C     
22   C        94.1225    9.0786   55.9497  C     
23   C        92.1778    8.9549   54.4963  C     
24   C        91.3512    9.2431   55.6008  C     
25   C        91.9230    9.4839   56.8721  C     
26   C        93.3247    9.3892   57.0770  C     
27   O        96.2581    7.6305   56.6756  O     
28   O        96.4577   10.3357   56.2761  O     
29   O        93.9448    9.7706   58.2523  O     
30   C        93.7088    8.9443   59.4180  C     
31   C        94.3724    9.4795   60.6107  C     
32   C        95.8222    9.8112   60.7331  C     
33   O        93.6604    9.5894   61.6049  O     
34   C        96.6866    8.5406   60.4381  C     
35   C        96.2049   10.9577   59.7341  C     
36   C        96.2117   10.3120   62.1719  C     
37   H        92.7200    7.7642   50.0643  H     
38   H        94.9085    6.2797   52.5172  H     
39   H        94.2561    7.9262   48.1856  H     
40   H        96.0528    9.3389   49.1694  H     
41   H        96.7162    7.9333   48.3379  H     
42   H        96.6379    7.9559   50.1067  H     
43   H        95.4354    5.6789   49.8752  H     
44   H        95.2661    5.7579   48.1167  H     
45   H        93.8318    5.5919   49.1387  H     
46   H        93.4965   11.5282   49.7925  H     
47   H        93.7498   10.3339   48.5481  H     
48   H        91.3376   10.7957   51.4074  H     
49   H        88.9325   10.7262   51.1800  H     
50   H        87.9251   10.3375   49.0044  H     
51   H        89.3343   10.0361   47.0474  H     
52   H        91.7390   10.1269   47.2581  H     
53   H        91.7549    8.7995   53.5786  H     
54   H        90.3329    9.2995   55.4780  H     
55   H        91.3042    9.7427   57.6521  H     
56   H        92.6219    8.8731   59.6059  H     
57   H        94.0779    7.9242   59.2387  H     
58   H        96.4865    7.7643   61.1838  H     
59   H        97.7537    8.7765   60.4662  H     
60   H        96.4586    8.1335   59.4497  H     
61   H        96.1473   10.6133   58.6942  H     
62   H        97.2311   11.3126   59.9139  H     
63   H        95.5282   11.8123   59.8575  H     
64   H        95.6580   11.2204   62.4318  H     
65   H        97.2832   10.5467   62.2349  H     
66   H        95.9916    9.5505   62.9234  H     
@<TRIPOS>BOND
     1    1    2 1
     2    1    5 2
     3    1    6 1
     4    2    3 1
     5    2    7 1
     6    3    4 1
     7    3   10 1
     8    4    5 1
     9    4   17 2
    10    5   18 1
    11    7    8 1
    12    7    9 1
    13   10   11 1
    14   11   12 1
    15   11   16 2
    16   12   13 2
    17   13   14 1
    18   14   15 2
    19   15   16 1
    20   18   20 2
    21   18   21 1
    22   19   20 1
    23   19   22 1
    24   19   27 2
    25   19   28 2
    26   21   22 2
    27   21   23 1
    28   22   26 1
    29   23   24 2
    30   24   25 1
    31   25   26 2
    32   26   29 1
    33   29   30 1
    34   30   31 1
    35   31   32 1
    36   31   33 2
    37   32   34 1
    38   32   35 1
    39   32   36 1
    40    2   37 1
    41    6   38 1
    42    7   39 1
    43    8   40 1
    44    8   41 1
    45    8   42 1
    46    9   43 1
    47    9   44 1
    48    9   45 1
    49   10   46 1
    50   10   47 1
    51   12   48 1
    52   13   49 1
    53   14   50 1
    54   15   51 1
    55   16   52 1
    56   23   53 1
    57   24   54 1
    58   25   55 1
    59   30   56 1
    60   30   57 1
    61   34   58 1
    62   34   59 1
    63   34   60 1
    64   35   61 1
    65   35   62 1
    66   35   63 1
    67   36   64 1
    68   36   65 1
    69   36   66 1
@<TRIPOS>PROPERTY_DATA
  Total_Score	| 6.5742
  Crash		| -1.0588
  Polar		| 2.1791
  FragIndex	| 1
  FragRMSD	| 0.145

