@<TRIPOS>MOLECULE
BindingDB_30483
 58 61 0 0 0
SMALL
NO_CHARGES


@<TRIPOS>ATOM
1    C        94.1898    7.5673   51.5078  C     
2    C        94.1443    7.8839   50.0852  C     
3    N        94.0651    9.3226   50.1682  N     
4    C        94.3819    9.7215   51.3931  C     
5    C        94.4570    8.6680   52.2185  C     
6    O        94.0177    6.3385   52.0052  O     
7    C        95.3918    7.3175   49.2610  C     
8    C        93.4062   10.1645   49.1894  C     
9    C        91.9218   10.2997   49.3434  C     
10   O        94.3263   10.8787   51.7922  O     
11   C        94.6503    8.7223   53.5520  C     
12   S        95.9038    9.0024   55.7083  S     
13   N        95.8670    8.7746   54.0486  N     
14   C        93.6469    8.8822   54.4744  C     
15   C        94.1825    9.1008   55.7495  C     
16   C        92.2470    8.8918   54.2802  C     
17   C        91.4041    9.1573   55.3698  C     
18   C        91.9464    9.3993   56.6476  C     
19   C        93.3468    9.3619   56.8488  C     
20   O        96.2968    7.7130   56.5548  O     
21   O        96.4213   10.4254   56.1880  O     
22   O        93.8870    9.6324   58.0729  O     
23   C        94.1296    8.4873   58.9112  C     
24   C        93.3438    8.6854   60.2204  C     
25   C        95.1608    5.8092   48.9042  C     
26   C        95.5920    8.0826   47.9192  C     
27   C        96.7375    7.4311   50.0650  C     
28   C        91.1092   10.3802   48.1826  C     
29   C        91.2794   10.3771   50.6064  C     
30   C        89.8796   10.4920   50.7073  C     
31   C        89.0953   10.5402   49.5435  C     
32   C        89.7069   10.4917   48.2750  C     
33   Cl       88.7497   10.5411   46.8824  Cl    
34   H        93.2034    7.4890   49.6815  H     
35   H        94.4917    6.3365   52.8682  H     
36   H        93.8260   11.1705   49.2317  H     
37   H        93.6283    9.7637   48.1906  H     
38   H        91.8452    8.7248   53.3548  H     
39   H        90.3968    9.1777   55.2326  H     
40   H        91.3218    9.5905   57.4356  H     
41   H        93.8515    7.5216   58.4634  H     
42   H        95.2023    8.4609   59.1266  H     
43   H        93.6940    9.5813   60.7323  H     
44   H        93.4814    7.8259   60.8797  H     
45   H        92.2842    8.7925   59.9973  H     
46   H        94.9487    5.2187   49.7961  H     
47   H        96.0491    5.3872   48.4254  H     
48   H        94.3229    5.6932   48.2174  H     
49   H        94.6366    8.1458   47.3944  H     
50   H        96.3426    7.5963   47.2880  H     
51   H        95.9361    9.0926   48.1093  H     
52   H        96.9187    8.4637   50.3791  H     
53   H        97.5819    7.1175   49.4432  H     
54   H        96.7257    6.7979   50.9614  H     
55   H        91.5469   10.3394   47.2588  H     
56   H        91.8089   10.3638   51.4775  H     
57   H        89.4401   10.5546   51.6270  H     
58   H        88.0642   10.6190   49.6323  H     
@<TRIPOS>BOND
     1    1    2 1
     2    1    5 2
     3    1    6 1
     4    2    3 1
     5    2    7 1
     6    3    4 1
     7    3    8 1
     8    4    5 1
     9    4   10 2
    10    5   11 1
    11    7   25 1
    12    7   26 1
    13    7   27 1
    14    8    9 1
    15    9   28 1
    16    9   29 2
    17   11   13 2
    18   11   14 1
    19   12   13 1
    20   12   15 1
    21   12   20 2
    22   12   21 2
    23   14   15 2
    24   14   16 1
    25   15   19 1
    26   16   17 2
    27   17   18 1
    28   18   19 2
    29   19   22 1
    30   22   23 1
    31   23   24 1
    32   28   32 2
    33   29   30 1
    34   30   31 2
    35   31   32 1
    36   32   33 1
    37    2   34 1
    38    6   35 1
    39    8   36 1
    40    8   37 1
    41   16   38 1
    42   17   39 1
    43   18   40 1
    44   23   41 1
    45   23   42 1
    46   24   43 1
    47   24   44 1
    48   24   45 1
    49   25   46 1
    50   25   47 1
    51   25   48 1
    52   26   49 1
    53   26   50 1
    54   26   51 1
    55   27   52 1
    56   27   53 1
    57   27   54 1
    58   28   55 1
    59   29   56 1
    60   30   57 1
    61   31   58 1
@<TRIPOS>PROPERTY_DATA
  Total_Score	| 5.5056
  Crash		| -1.7473
  Polar		| 1.1216
  FragIndex	| 1
  FragRMSD	| 0.441

