@<TRIPOS>MOLECULE
BindingDB_30476
 67 71 0 0 0
SMALL
NO_CHARGES


@<TRIPOS>ATOM
1    C        94.1259    7.8288   51.7165  C     
2    C        93.9739    8.2312   50.3281  C     
3    N        94.0166    9.6607   50.4923  N     
4    C        94.3553    9.9775   51.7355  C     
5    C        94.4148    8.8786   52.4866  C     
6    O        93.9039    6.5924   52.1469  O     
7    C        95.0770    7.6067   49.3795  C     
8    C        94.9365    6.0548   49.2741  C     
9    C        95.1197    8.2185   47.9455  C     
10   C        93.4846   10.6292   49.5458  C     
11   C        92.0039   10.5273   49.3919  C     
12   C        91.4016   10.2268   48.1404  C     
13   C        90.0031   10.1853   48.0019  C     
14   C        89.1772   10.4382   49.1166  C     
15   C        89.7532   10.7276   50.3701  C     
16   C        91.1570   10.7883   50.4978  C     
17   O        94.3899   11.1129   52.2000  O     
18   C        94.6256    8.8525   53.8196  C     
19   S        95.9189    9.0736   55.9754  S     
20   N        95.8488    8.9170   54.3021  N     
21   C        93.6535    8.9931   54.7923  C     
22   C        94.1993    9.1586   56.0682  C     
23   C        92.2530    9.0323   54.6286  C     
24   C        91.4261    9.2675   55.7437  C     
25   C        91.9959    9.4822   57.0166  C     
26   C        93.3961    9.4201   57.1975  C     
27   O        96.3589    7.7342   56.7076  O     
28   O        96.4785   10.4763   56.4809  O     
29   O        93.9550    9.7115   58.4124  O     
30   C        93.9590    8.6267   59.3559  C     
31   C        94.3504    9.1481   60.6646  C     
32   N        95.6113    9.3360   61.1092  N     
33   O        93.4111    9.4949   61.3746  O     
34   C        95.8915    9.9113   62.4245  C     
35   C        96.8061    8.9834   60.3537  C     
36   C        97.6883    8.0221   61.1941  C     
37   O        97.9676    8.5816   62.4932  O     
38   C        96.7843    8.9346   63.2373  C     
39   H        92.9795    7.9373   49.9762  H     
40   H        93.5629    6.6774   53.0601  H     
41   H        96.0604    7.8074   49.8330  H     
42   H        95.1757    5.5846   50.2283  H     
43   H        95.6357    5.6439   48.5371  H     
44   H        93.9192    5.7707   48.9909  H     
45   H        94.1097    8.4082   47.5872  H     
46   H        95.6295    7.5766   47.2384  H     
47   H        95.6681    9.1598   47.9466  H     
48   H        93.6982   11.6670   49.8508  H     
49   H        93.9858   10.5005   48.5814  H     
50   H        91.9871   10.0582   47.3186  H     
51   H        89.5864    9.9847   47.0873  H     
52   H        88.1605   10.4136   49.0162  H     
53   H        89.1568   10.9282   51.1700  H     
54   H        91.5476   11.0358   51.4032  H     
55   H        91.8226    8.9055   53.7037  H     
56   H        90.4033    9.3071   55.6301  H     
57   H        91.3868    9.7011   57.8077  H     
58   H        92.9625    8.1681   59.4216  H     
59   H        94.6461    7.8370   59.0378  H     
60   H        96.4132   10.8604   62.2992  H     
61   H        94.9976   10.1162   63.0254  H     
62   H        96.6062    8.5006   59.3955  H     
63   H        97.3779    9.8917   60.1448  H     
64   H        97.2004    7.0487   61.2982  H     
65   H        98.6423    7.8663   60.6796  H     
66   H        97.0912    9.4140   64.1682  H     
67   H        96.2161    8.0325   63.4915  H     
@<TRIPOS>BOND
     1    1    2 1
     2    1    5 2
     3    1    6 1
     4    2    3 1
     5    2    7 1
     6    3    4 1
     7    3   10 1
     8    4    5 1
     9    4   17 2
    10    5   18 1
    11    7    8 1
    12    7    9 1
    13   10   11 1
    14   11   12 1
    15   11   16 2
    16   12   13 2
    17   13   14 1
    18   14   15 2
    19   15   16 1
    20   18   20 2
    21   18   21 1
    22   19   20 1
    23   19   22 1
    24   19   27 2
    25   19   28 2
    26   21   22 2
    27   21   23 1
    28   22   26 1
    29   23   24 2
    30   24   25 1
    31   25   26 2
    32   26   29 1
    33   29   30 1
    34   30   31 1
    35   31   32 am
    36   31   33 2
    37   32   34 1
    38   32   35 1
    39   34   38 1
    40   35   36 1
    41   36   37 1
    42   37   38 1
    43    2   39 1
    44    6   40 1
    45    7   41 1
    46    8   42 1
    47    8   43 1
    48    8   44 1
    49    9   45 1
    50    9   46 1
    51    9   47 1
    52   10   48 1
    53   10   49 1
    54   12   50 1
    55   13   51 1
    56   14   52 1
    57   15   53 1
    58   16   54 1
    59   23   55 1
    60   24   56 1
    61   25   57 1
    62   30   58 1
    63   30   59 1
    64   34   60 1
    65   34   61 1
    66   35   62 1
    67   35   63 1
    68   36   64 1
    69   36   65 1
    70   38   66 1
    71   38   67 1
@<TRIPOS>PROPERTY_DATA
  Total_Score	| 6.8296
  Crash		| -1.3877
  Polar		| 2.0987
  FragIndex	| 1
  FragRMSD	| 0.412

