@<TRIPOS>MOLECULE
BindingDB_50388187
 75 80 0 0 0
SMALL
NO_CHARGES


@<TRIPOS>ATOM
1    C       -40.9474   16.4395   14.3554  C     
2    C       -41.0235   17.1602   15.5643  C     
3    C       -41.3974   18.5232   15.5844  C     
4    C       -41.6041   19.1597   14.3331  C     
5    C       -41.5049   18.4482   13.1224  C     
6    C       -41.2558   17.0588   13.1202  C     
7    C       -41.7248   19.2020   16.7690  C     
8    O       -42.8280   19.7389   16.7268  O     
9    N       -40.9925   19.3213   17.8970  N     
10   N       -41.2895   16.2821   11.9938  N     
11   C       -41.9307   16.5345   10.8188  C     
12   N       -42.5914   17.6854   10.4957  N     
13   C       -43.2129   17.9107    9.3022  C     
14   N       -43.1824   16.9001    8.3849  N     
15   C       -41.4763   20.0778   19.0540  C     
16   C       -41.3628   19.2104   20.3380  C     
17   O       -40.0183   18.7174   20.4938  O     
18   C       -39.5449   17.9734   19.3592  C     
19   C       -39.6447   18.8100   18.0533  C     
20   C       -41.9283   15.5335    9.8161  C     
21   N       -42.5651   15.7733    8.6491  N     
22   C       -42.4020   14.7022    7.8635  C     
23   C       -41.6342   13.7985    8.5847  C     
24   N       -41.3538   14.3173    9.7920  N     
25   C       -43.8041   19.1743    9.0000  C     
26   C       -44.5088   19.8289   10.0405  C     
27   C       -45.0997   21.0820    9.8513  C     
28   C       -44.9997   21.7169    8.6003  C     
29   C       -44.3212   21.0952    7.5345  C     
30   C       -43.6840   19.8326    7.7314  C     
31   N       -44.3520   21.7481    6.3321  N     
32   C       -44.9556   21.2938    5.2382  C     
33   C       -44.8583   21.9368    4.0121  C     
34   O       -45.5538   20.2258    5.2738  O     
35   C       -43.9262   22.9655    3.7601  C     
36   C       -43.7730   23.5135    2.4729  C     
37   C       -44.5765   23.1048    1.3606  C     
38   C       -45.5357   22.0972    1.6541  C     
39   C       -45.6748   21.5236    2.9288  C     
40   C       -42.8433   19.2428    6.6403  C     
41   N       -44.4263   23.6377    0.0867  N     
42   C       -45.1128   23.0807   -1.0704  C     
43   C       -43.6018   24.8118   -0.1529  C     
44   H       -40.7179   15.4415   14.3813  H     
45   H       -40.8714   16.6473   16.4407  H     
46   H       -41.8421   20.1584   14.2882  H     
47   H       -41.6428   18.9598   12.2454  H     
48   H       -40.8625   15.4119   12.0684  H     
49   H       -40.8542   20.9683   19.1806  H     
50   H       -42.5078   20.4273   18.9816  H     
51   H       -41.6214   19.8174   21.2159  H     
52   H       -42.0697   18.3745   20.2917  H     
53   H       -38.5073   17.7085   19.5430  H     
54   H       -40.1124   17.0456   19.2729  H     
55   H       -39.2965   18.1864   17.2288  H     
56   H       -38.9594   19.6619   18.1319  H     
57   H       -42.7485   14.5773    6.9060  H     
58   H       -41.3073   12.8882    8.2577  H     
59   H       -44.6042   19.3931   10.9691  H     
60   H       -45.6112   21.5392   10.6148  H     
61   H       -45.4647   22.6208    8.4679  H     
62   H       -43.9863   22.6415    6.2962  H     
63   H       -43.2874   23.2681    4.5040  H     
64   H       -43.0578   24.2263    2.3517  H     
65   H       -46.1761   21.7627    0.9336  H     
66   H       -46.3890   20.7979    3.0777  H     
67   H       -41.8629   18.9512    7.0422  H     
68   H       -42.6539   19.9243    5.8092  H     
69   H       -43.3290   18.3605    6.2317  H     
70   H       -44.8958   22.0097   -1.1467  H     
71   H       -44.8142   23.5256   -2.0233  H     
72   H       -46.1935   23.2236   -0.9601  H     
73   H       -43.9322   25.6192    0.5139  H     
74   H       -43.6587   25.2068   -1.1716  H     
75   H       -42.5445   24.5886    0.0485  H     
@<TRIPOS>BOND
     1    1    2 2
     2    1    6 1
     3    2    3 1
     4    3    4 2
     5    3    7 1
     6    4    5 1
     7    5    6 2
     8    6   10 1
     9    7    8 2
    10    7    9 am
    11    9   15 1
    12    9   19 1
    13   10   11 1
    14   11   12 2
    15   11   20 1
    16   12   13 1
    17   13   14 2
    18   13   25 1
    19   14   21 1
    20   15   16 1
    21   16   17 1
    22   17   18 1
    23   18   19 1
    24   20   21 1
    25   20   24 2
    26   21   22 1
    27   22   23 2
    28   23   24 1
    29   25   26 1
    30   25   30 2
    31   26   27 2
    32   27   28 1
    33   28   29 2
    34   29   30 1
    35   29   31 1
    36   30   40 1
    37   31   32 am
    38   32   33 1
    39   32   34 2
    40   33   35 2
    41   33   39 1
    42   35   36 1
    43   36   37 2
    44   37   38 1
    45   37   41 1
    46   38   39 2
    47   41   42 1
    48   41   43 1
    49    1   44 1
    50    2   45 1
    51    4   46 1
    52    5   47 1
    53   10   48 1
    54   15   49 1
    55   15   50 1
    56   16   51 1
    57   16   52 1
    58   18   53 1
    59   18   54 1
    60   19   55 1
    61   19   56 1
    62   22   57 1
    63   23   58 1
    64   26   59 1
    65   27   60 1
    66   28   61 1
    67   31   62 1
    68   35   63 1
    69   36   64 1
    70   38   65 1
    71   39   66 1
    72   40   67 1
    73   40   68 1
    74   40   69 1
    75   42   70 1
    76   42   71 1
    77   42   72 1
    78   43   73 1
    79   43   74 1
    80   43   75 1
@<TRIPOS>PROPERTY_DATA
  Total_Score	| 9.1637
  Crash		| -1.6299
  Polar		| 2.3943
  FragIndex	| 1
  FragRMSD	| 0.629

