@<TRIPOS>MOLECULE
BindingDB_50388188
 77 82 0 0 0
SMALL
NO_CHARGES


@<TRIPOS>ATOM
1    C       -40.6544   16.5326   14.0616  C     
2    C       -40.4792   17.2513   15.2532  C     
3    C       -41.0134   18.5541   15.4025  C     
4    C       -41.7555   19.0981   14.3229  C     
5    C       -41.9285   18.3737   13.1296  C     
6    C       -41.3701   17.0782   12.9654  C     
7    C       -40.8487   19.2817   16.5794  C     
8    O       -41.9119   19.6213   17.0992  O     
9    N       -39.6766   19.6636   17.1208  N     
10   N       -41.4795   16.2853   11.8567  N     
11   C       -42.0325   16.5192   10.6402  C     
12   N       -42.5977   17.6916   10.2498  N     
13   C       -43.1526   17.9139    9.0229  C     
14   N       -43.1424   16.8770    8.1397  N     
15   C       -38.3797   19.4619   16.4836  C     
16   C       -37.4384   18.7022   17.4511  C     
17   O       -37.3521   19.3930   18.7171  O     
18   C       -38.6325   19.6193   19.3500  C     
19   C       -39.6025   20.3656   18.3976  C     
20   C       -42.0252   15.4970    9.6650  C     
21   N       -42.5897   15.7310    8.4608  N     
22   C       -42.4491   14.6327    7.7106  C     
23   C       -41.7574   13.7096    8.4893  C     
24   N       -41.5176   14.2523    9.6949  N     
25   C       -43.7035   19.1850    8.7030  C     
26   C       -44.4218   19.8565    9.7236  C     
27   C       -44.9513   21.1346    9.5146  C     
28   C       -44.8081   21.7582    8.2682  C     
29   C       -44.1572   21.0996    7.2077  C     
30   C       -43.5472   19.8233    7.4369  C     
31   N       -44.1821   21.7075    5.9796  N     
32   C       -44.8716   21.2533    4.9349  C     
33   C       -44.7847   21.8290    3.6654  C     
34   O       -45.6289   20.3027    5.0935  O     
35   C       -44.0575   23.0165    3.4159  C     
36   C       -43.9766   23.5846    2.1322  C     
37   C       -44.6129   22.9953    0.9929  C     
38   C       -45.3322   21.7970    1.2610  C     
39   C       -45.4363   21.2433    2.5490  C     
40   C       -42.7211   19.1901    6.3654  C     
41   N       -44.5163   23.5244   -0.2790  N     
42   C       -43.7990   24.7593   -0.5364  C     
43   C       -45.1263   22.8621   -1.4194  C     
44   N       -42.8594   14.4557    6.4441  N     
45   H       -40.2464   15.6000   13.9829  H     
46   H       -39.9563   16.8211   16.0221  H     
47   H       -42.1698   20.0342   14.3995  H     
48   H       -42.4653   18.8244   12.3887  H     
49   H       -41.0868   15.4018   11.9555  H     
50   H       -38.4196   18.9213   15.5398  H     
51   H       -37.9437   20.4380   16.2580  H     
52   H       -37.7980   17.6791   17.6032  H     
53   H       -36.4357   18.6595   17.0196  H     
54   H       -39.0722   18.6640   19.6542  H     
55   H       -38.4675   20.2225   20.2437  H     
56   H       -39.2245   21.3807   18.2247  H     
57   H       -40.5641   20.4623   18.9091  H     
58   H       -41.4712   12.7741    8.2041  H     
59   H       -44.5740   19.4181   10.6345  H     
60   H       -45.4566   21.6053   10.2659  H     
61   H       -45.2195   22.6830    8.1304  H     
62   H       -43.7280   22.5633    5.8944  H     
63   H       -43.5317   23.4720    4.1718  H     
64   H       -43.4110   24.4278    2.0380  H     
65   H       -45.8474   21.3135    0.5261  H     
66   H       -45.9672   20.3694    2.6489  H     
67   H       -41.7644   18.8504    6.7739  H     
68   H       -42.4673   19.8620    5.5491  H     
69   H       -43.2574   18.3368    5.9375  H     
70   H       -44.1549   25.5389    0.1478  H     
71   H       -43.9486   25.1501   -1.5444  H     
72   H       -42.7202   24.6204   -0.3977  H     
73   H       -44.7824   21.8212   -1.4792  H     
74   H       -44.8789   23.3098   -2.3834  H     
75   H       -46.2174   22.8718   -1.3347  H     
76   H       -42.7098   13.6106    5.9968  H     
77   H       -43.3297   15.1692    5.9849  H     
@<TRIPOS>BOND
     1    1    2 2
     2    1    6 1
     3    2    3 1
     4    3    4 2
     5    3    7 1
     6    4    5 1
     7    5    6 2
     8    6   10 1
     9    7    8 2
    10    7    9 am
    11    9   15 1
    12    9   19 1
    13   10   11 1
    14   11   12 2
    15   11   20 1
    16   12   13 1
    17   13   14 2
    18   13   25 1
    19   14   21 1
    20   15   16 1
    21   16   17 1
    22   17   18 1
    23   18   19 1
    24   20   21 1
    25   20   24 2
    26   21   22 1
    27   22   23 2
    28   22   44 1
    29   23   24 1
    30   25   26 1
    31   25   30 2
    32   26   27 2
    33   27   28 1
    34   28   29 2
    35   29   30 1
    36   29   31 1
    37   30   40 1
    38   31   32 am
    39   32   33 1
    40   32   34 2
    41   33   35 2
    42   33   39 1
    43   35   36 1
    44   36   37 2
    45   37   38 1
    46   37   41 1
    47   38   39 2
    48   41   42 1
    49   41   43 1
    50    1   45 1
    51    2   46 1
    52    4   47 1
    53    5   48 1
    54   10   49 1
    55   15   50 1
    56   15   51 1
    57   16   52 1
    58   16   53 1
    59   18   54 1
    60   18   55 1
    61   19   56 1
    62   19   57 1
    63   23   58 1
    64   26   59 1
    65   27   60 1
    66   28   61 1
    67   31   62 1
    68   35   63 1
    69   36   64 1
    70   38   65 1
    71   39   66 1
    72   40   67 1
    73   40   68 1
    74   40   69 1
    75   42   70 1
    76   42   71 1
    77   42   72 1
    78   43   73 1
    79   43   74 1
    80   43   75 1
    81   44   76 1
    82   44   77 1
@<TRIPOS>PROPERTY_DATA
  Total_Score	| 9.4296
  Crash		| -2.1662
  Polar		| 2.0676
  FragIndex	| 1
  FragRMSD	| 0.216

