@<TRIPOS>MOLECULE
BindingDB_50388182
 62 66 0 0 0
SMALL
NO_CHARGES


@<TRIPOS>ATOM
1    C       -45.3963   21.7408    2.6893  C     
2    C       -45.1208   22.3179    1.4409  C     
3    C       -43.8730   22.9239    1.1477  C     
4    C       -42.8993   22.8904    2.1859  C     
5    C       -43.1769   22.3424    3.4515  C     
6    C       -44.4397   21.7544    3.7360  C     
7    C       -43.5427   23.5778   -0.1943  C     
8    C       -42.2800   22.8853   -0.8096  C     
9    C       -44.6639   23.5033   -1.2947  C     
10   C       -43.2631   25.1028    0.0248  C     
11   C       -44.7123   21.1601    4.9713  C     
12   N       -44.1910   21.6141    6.1137  N     
13   O       -45.4980   20.2148    5.0191  O     
14   C       -44.3174   21.0364    7.3502  C     
15   C       -43.8449   19.7255    7.6043  C     
16   C       -43.8884   19.1564    8.9064  C     
17   C       -44.4610   19.9384    9.9424  C     
18   C       -44.9448   21.2341    9.6987  C     
19   C       -44.8535   21.7917    8.4123  C     
20   C       -43.3291   17.9052    9.1810  C     
21   C       -43.3346   16.8712    8.3015  C     
22   C       -42.0300   16.5999   10.7607  C     
23   N       -42.6932   17.7261   10.3631  N     
24   C       -42.0316   15.5608    9.8005  C     
25   N       -42.6822   15.7375    8.6255  N     
26   C       -42.5028   14.6262    7.8935  C     
27   C       -41.7128   13.7638    8.6488  C     
28   N       -41.4367   14.3519    9.8251  N     
29   N       -41.3502   16.4528   11.9247  N     
30   C       -41.1231   17.3558   12.9334  C     
31   C       -41.7427   18.6267   13.0737  C     
32   C       -41.4129   19.4808   14.1445  C     
33   C       -40.4620   19.0784   15.0984  C     
34   C       -39.8559   17.8137   14.9918  C     
35   C       -40.1913   16.9570   13.9234  C     
36   H       -46.3111   21.3087    2.8349  H     
37   H       -45.8700   22.2705    0.7534  H     
38   H       -41.9586   23.2697    2.0303  H     
39   H       -42.4338   22.3427    4.1590  H     
40   H       -41.4142   22.9698   -0.1527  H     
41   H       -42.0088   23.3429   -1.7674  H     
42   H       -42.4694   21.8220   -0.9858  H     
43   H       -44.8959   22.4679   -1.5547  H     
44   H       -44.3508   24.0012   -2.2196  H     
45   H       -45.5821   23.9851   -0.9443  H     
46   H       -44.1169   25.5832    0.5091  H     
47   H       -43.0844   25.6050   -0.9255  H     
48   H       -42.3801   25.2731    0.6397  H     
49   H       -43.7458   22.4795    6.0751  H     
50   H       -43.4048   19.2118    6.8294  H     
51   H       -44.5422   19.5639   10.8889  H     
52   H       -45.3572   21.7823   10.4614  H     
53   H       -45.1923   22.7404    8.2467  H     
54   H       -43.8082   16.9319    7.4240  H     
55   H       -42.8642   14.4362    6.9572  H     
56   H       -41.3771   12.8475    8.3517  H     
57   H       -40.8651   15.6104   12.0030  H     
58   H       -42.4556   18.9531   12.4258  H     
59   H       -41.8705   20.3908   14.2256  H     
60   H       -40.2140   19.7013   15.8700  H     
61   H       -39.1584   17.5189   15.6830  H     
62   H       -39.7375   16.0314   13.8736  H     
@<TRIPOS>BOND
     1    1    2 2
     2    1    6 1
     3    2    3 1
     4    3    4 2
     5    3    7 1
     6    4    5 1
     7    5    6 2
     8    6   11 1
     9    7    8 1
    10    7    9 1
    11    7   10 1
    12   11   12 am
    13   11   13 2
    14   12   14 1
    15   14   15 2
    16   14   19 1
    17   15   16 1
    18   16   17 2
    19   16   20 1
    20   17   18 1
    21   18   19 2
    22   20   21 2
    23   20   23 1
    24   21   25 1
    25   22   23 2
    26   22   24 1
    27   22   29 1
    28   24   25 1
    29   24   28 2
    30   25   26 1
    31   26   27 2
    32   27   28 1
    33   29   30 1
    34   30   31 2
    35   30   35 1
    36   31   32 1
    37   32   33 2
    38   33   34 1
    39   34   35 2
    40    1   36 1
    41    2   37 1
    42    4   38 1
    43    5   39 1
    44    8   40 1
    45    8   41 1
    46    8   42 1
    47    9   43 1
    48    9   44 1
    49    9   45 1
    50   10   46 1
    51   10   47 1
    52   10   48 1
    53   12   49 1
    54   15   50 1
    55   17   51 1
    56   18   52 1
    57   19   53 1
    58   21   54 1
    59   26   55 1
    60   27   56 1
    61   29   57 1
    62   31   58 1
    63   32   59 1
    64   33   60 1
    65   34   61 1
    66   35   62 1
@<TRIPOS>PROPERTY_DATA
  Total_Score	| 9.3501
  Crash		| -1.3430
  Polar		| 2.1918
  FragIndex	| 1
  FragRMSD	| 0.184

