@<TRIPOS>MOLECULE
BindingDB_36518
 61 64 0 0 0
SMALL
NO_CHARGES


@<TRIPOS>ATOM
1    O       -41.5148   14.2962    9.9580  O     
2    O       -42.2476   19.3464   17.0739  O     
3    O       -38.3614   17.9103   19.4961  O     
4    O       -45.5295   20.2894    5.1359  O     
5    N       -42.5361   17.5870   10.2624  N     
6    N       -42.6462   15.5710    8.5055  N     
7    N       -41.3334   16.2180   11.8213  N     
8    N       -44.3524   21.7664    6.3307  N     
9    N       -40.0776   18.9657   17.5203  N     
10   C       -43.1516   17.8152    9.0906  C     
11   C       -43.7039   19.0891    8.8610  C     
12   C       -41.9434   16.4172   10.6201  C     
13   C       -42.0120   15.3814    9.6810  C     
14   C       -43.6137   19.8056    7.6226  C     
15   C       -43.2258   16.7786    8.2222  C     
16   C       -44.2864   21.0620    7.4961  C     
17   C       -41.2830   16.9745   12.9586  C     
18   C       -44.3783   19.7084    9.9492  C     
19   C       -41.1898   18.2820   15.4887  C     
20   C       -44.9128   21.6532    8.6084  C     
21   C       -41.1623   18.9003   16.7244  C     
22   C       -44.9528   20.9800    9.8368  C     
23   C       -41.6948   18.3242   13.0971  C     
24   C       -40.7922   16.3113   14.1059  C     
25   C       -41.6514   18.9701   14.3457  C     
26   C       -40.7433   16.9511   15.3588  C     
27   C       -42.7568   19.3251    6.4967  C     
28   C       -42.7184   14.4954    7.5329  C     
29   C       -44.9509   21.3617    5.2159  C     
30   C       -40.1497   19.4912   18.8735  C     
31   C       -38.7624   18.4797   17.1325  C     
32   C       -39.6633   18.4026   19.8670  C     
33   C       -38.2886   17.4095   18.1478  C     
34   C       -44.9671   22.2243    4.0588  C     
35   H       -40.8905   15.3571   11.9090  H     
36   H       -44.0249   22.6803    6.3492  H     
37   H       -43.7298   16.8981    7.3698  H     
38   H       -44.4732   19.2279   10.8450  H     
39   H       -45.3714   22.5683    8.5298  H     
40   H       -45.4249   21.4067   10.6409  H     
41   H       -42.0327   18.8562   12.3013  H     
42   H       -40.4862   15.3374   14.0532  H     
43   H       -41.9629   19.9440   14.4164  H     
44   H       -40.3874   16.4370   16.1698  H     
45   H       -41.8757   18.7945    6.8608  H     
46   H       -42.3833   20.1534    5.8856  H     
47   H       -43.3370   18.6548    5.8527  H     
48   H       -41.7141   14.1297    7.3023  H     
49   H       -43.1830   14.7939    6.5886  H     
50   H       -43.3014   13.6684    7.9441  H     
51   H       -39.5015   20.3685   18.9523  H     
52   H       -41.1500   19.8056   19.1801  H     
53   H       -38.7183   18.0436   16.1332  H     
54   H       -38.0590   19.3184   17.1412  H     
55   H       -40.3791   17.5781   19.8997  H     
56   H       -39.5931   18.8329   20.8668  H     
57   H       -37.2512   17.1465   17.9337  H     
58   H       -38.8952   16.5047   18.0463  H     
59   H       -44.4952   21.7192    3.2123  H     
60   H       -44.4299   23.1562    4.2479  H     
61   H       -46.0016   22.4626    3.7990  H     
@<TRIPOS>BOND
     1    1   13 2
     2    2   21 2
     3    3   32 1
     4    3   33 1
     5    4   29 2
     6    5   10 1
     7    5   12 2
     8    6   13 1
     9    6   15 1
    10    6   28 1
    11    7   12 1
    12    7   17 1
    13    8   16 1
    14    8   29 am
    15    9   21 am
    16    9   30 1
    17    9   31 1
    18   10   11 1
    19   10   15 2
    20   11   14 2
    21   11   18 1
    22   12   13 1
    23   14   16 1
    24   14   27 1
    25   16   20 2
    26   17   23 2
    27   17   24 1
    28   18   22 2
    29   19   21 1
    30   19   25 2
    31   19   26 1
    32   20   22 1
    33   23   25 1
    34   24   26 2
    35   29   34 1
    36   30   32 1
    37   31   33 1
    38    7   35 1
    39    8   36 1
    40   15   37 1
    41   18   38 1
    42   20   39 1
    43   22   40 1
    44   23   41 1
    45   24   42 1
    46   25   43 1
    47   26   44 1
    48   27   45 1
    49   27   46 1
    50   27   47 1
    51   28   48 1
    52   28   49 1
    53   28   50 1
    54   30   51 1
    55   30   52 1
    56   31   53 1
    57   31   54 1
    58   32   55 1
    59   32   56 1
    60   33   57 1
    61   33   58 1
    62   34   59 1
    63   34   60 1
    64   34   61 1
@<TRIPOS>PROPERTY_DATA
  Total_Score	| 7.3505
  Crash		| -0.8401
  Polar		| 2.6459
  FragIndex	| 1
  FragRMSD	| 0.211

