@<TRIPOS>MOLECULE
BindingDB_36519
 81 85 0 0 0
SMALL
NO_CHARGES


@<TRIPOS>ATOM
1    O       -41.4112   14.3252    9.9092  O     
2    O       -41.8371   19.4165   17.0753  O     
3    O       -37.9537   17.7082   19.4231  O     
4    N       -42.5635   17.5753   10.3428  N     
5    N       -42.6740   15.5908    8.5424  N     
6    N       -41.2392   16.1989   11.7990  N     
7    N       -44.3985   21.6591    6.3569  N     
8    N       -39.7307   18.8048   17.5141  N     
9    C       -43.2428   17.7943    9.2038  C     
10   C       -43.7489   19.0777    8.9747  C     
11   C       -41.9006   16.4246   10.6371  C     
12   C       -41.9611   15.3982    9.6778  C     
13   C       -43.6327   19.7635    7.7164  C     
14   C       -43.3074   16.7813    8.3085  C     
15   C       -44.2789   21.0347    7.5591  C     
16   C       -44.3784   19.7525   10.0600  C     
17   C       -41.1669   16.9322   12.9393  C     
18   C       -44.8520   21.6940    8.6758  C     
19   C       -40.9364   18.2093   15.4821  C     
20   C       -44.9035   21.0516    9.9244  C     
21   C       -40.8240   18.8228   16.7238  C     
22   C       -41.3694   18.3264   13.0647  C     
23   C       -40.8400   16.1976   14.0950  C     
24   C       -42.6977   19.2821    6.6432  C     
25   C       -41.2615   18.9526   14.3250  C     
26   C       -40.7454   16.8164   15.3483  C     
27   C       -42.7658   14.5389    7.5539  C     
28   C       -45.0978   21.0969    5.2431  C     
29   C       -44.8383   21.7180    3.9363  C     
30   C       -44.3039   22.5370    1.2062  C     
31   C       -43.9775   22.9590   -0.2275  C     
32   C       -43.5272   21.9900    3.5048  C     
33   C       -45.8794   21.8361    2.9873  C     
34   C       -43.2685   22.4032    2.1772  C     
35   C       -45.6244   22.2317    1.6564  C     
36   C       -39.7476   19.3121   18.8825  C     
37   C       -38.4292   18.3139   17.0857  C     
38   C       -39.2347   18.2122   19.8486  C     
39   C       -37.9452   17.2166   18.0680  C     
40   C       -45.2348   23.1198   -1.1402  C     
41   C       -43.2432   24.3390   -0.2085  C     
42   C       -43.0685   21.8820   -0.8910  C     
43   H       -40.8189   15.3308   11.8555  H     
44   H       -44.1495   22.6185    6.3142  H     
45   H       -43.8339   16.9109    7.4645  H     
46   H       -44.4631   19.3038   10.9830  H     
47   H       -45.2992   22.6153    8.5741  H     
48   H       -45.3620   21.5042   10.7155  H     
49   H       -41.5845   18.9039   12.2437  H     
50   H       -40.6876   15.1835   14.0337  H     
51   H       -41.8696   18.6781    7.0723  H     
52   H       -42.2386   20.1055    6.0963  H     
53   H       -43.2600   18.6397    5.9574  H     
54   H       -41.3983   19.9629   14.3824  H     
55   H       -40.5358   16.2347   16.1612  H     
56   H       -41.7645   14.2458    7.2079  H     
57   H       -43.3467   14.8192    6.6666  H     
58   H       -43.2498   13.6606    7.9980  H     
59   H       -44.8340   20.0519    5.1216  H     
60   H       -46.1726   21.1338    5.4836  H     
61   H       -42.7373   21.8541    4.1272  H     
62   H       -46.8406   21.5751    3.2432  H     
63   H       -42.2994   22.6011    1.9191  H     
64   H       -46.4171   22.2767    1.0293  H     
65   H       -39.0865   20.1808   18.9507  H     
66   H       -40.7340   19.6314   19.2266  H     
67   H       -38.4051   17.9134   16.0717  H     
68   H       -37.7184   19.1431   17.1077  H     
69   H       -39.9580   17.3957   19.9057  H     
70   H       -39.1186   18.6314   20.8471  H     
71   H       -36.9254   16.9227   17.8090  H     
72   H       -38.5860   16.3303   17.9870  H     
73   H       -45.7874   22.1842   -1.2247  H     
74   H       -44.9459   23.4107   -2.1661  H     
75   H       -45.9009   23.8895   -0.7568  H     
76   H       -43.8680   25.0953    0.2789  H     
77   H       -43.0265   24.6914   -1.2256  H     
78   H       -42.2903   24.2990    0.3205  H     
79   H       -42.1289   21.7382   -0.3569  H     
80   H       -42.8137   22.1703   -1.9231  H     
81   H       -43.5842   20.9178   -0.9339  H     
@<TRIPOS>BOND
     1    1   12 2
     2    2   21 2
     3    3   38 1
     4    3   39 1
     5    4    9 1
     6    4   11 2
     7    5   12 1
     8    5   14 1
     9    5   27 1
    10    6   11 1
    11    6   17 1
    12    7   15 1
    13    7   28 1
    14    8   21 am
    15    8   36 1
    16    8   37 1
    17    9   10 1
    18    9   14 2
    19   10   13 2
    20   10   16 1
    21   11   12 1
    22   13   15 1
    23   13   24 1
    24   15   18 2
    25   16   20 2
    26   17   22 2
    27   17   23 1
    28   18   20 1
    29   19   21 1
    30   19   25 2
    31   19   26 1
    32   22   25 1
    33   23   26 2
    34   28   29 1
    35   29   32 2
    36   29   33 1
    37   30   31 1
    38   30   34 2
    39   30   35 1
    40   31   40 1
    41   31   41 1
    42   31   42 1
    43   32   34 1
    44   33   35 2
    45   36   38 1
    46   37   39 1
    47    6   43 1
    48    7   44 1
    49   14   45 1
    50   16   46 1
    51   18   47 1
    52   20   48 1
    53   22   49 1
    54   23   50 1
    55   24   51 1
    56   24   52 1
    57   24   53 1
    58   25   54 1
    59   26   55 1
    60   27   56 1
    61   27   57 1
    62   27   58 1
    63   28   59 1
    64   28   60 1
    65   32   61 1
    66   33   62 1
    67   34   63 1
    68   35   64 1
    69   36   65 1
    70   36   66 1
    71   37   67 1
    72   37   68 1
    73   38   69 1
    74   38   70 1
    75   39   71 1
    76   39   72 1
    77   40   73 1
    78   40   74 1
    79   40   75 1
    80   41   76 1
    81   41   77 1
    82   41   78 1
    83   42   79 1
    84   42   80 1
    85   42   81 1
@<TRIPOS>PROPERTY_DATA
  Total_Score	| 9.7506
  Crash		| -1.1892
  Polar		| 1.6395
  FragIndex	| 1
  FragRMSD	| 0.333

