@<TRIPOS>MOLECULE
BindingDB_36517
 56 59 0 0 0
SMALL
NO_CHARGES


@<TRIPOS>ATOM
1    O       -41.5046   14.2599    9.9426  O     
2    O       -42.0611   19.6442   16.9217  O     
3    O       -38.4830   17.7621   19.6027  O     
4    N       -42.5765   17.5328   10.2512  N     
5    N       -42.6984   15.5114    8.5086  N     
6    N       -41.3726   16.1717   11.8125  N     
7    N       -40.0439   18.9343   17.5559  N     
8    N       -43.9976   21.7584    6.3065  N     
9    C       -43.2007   17.7538    9.0832  C     
10   C       -41.9783   16.3678   10.6108  C     
11   C       -43.7178   19.0322    8.8235  C     
12   C       -42.0385   15.3306    9.6733  C     
13   C       -43.2960   16.7073    8.2336  C     
14   C       -43.5047   19.7498    7.5992  C     
15   C       -41.2996   16.9521   12.9366  C     
16   C       -44.1007   21.0349    7.4402  C     
17   C       -44.4573   19.6564    9.8617  C     
18   C       -41.0967   18.3431   15.4308  C     
19   C       -41.0523   18.9969   16.6618  C     
20   C       -40.7965   16.3123   14.0920  C     
21   C       -41.6891   18.3088   13.0485  C     
22   C       -40.7096   16.9884   15.3212  C     
23   C       -41.5970   18.9899   14.2767  C     
24   C       -44.8435   21.6155    8.4868  C     
25   C       -45.0064   20.9364    9.7002  C     
26   C       -42.7659   14.4401    7.5364  C     
27   C       -42.6254   19.2045    6.5169  C     
28   C       -38.7134   18.4312   17.2453  C     
29   C       -40.1941   19.4067   18.9254  C     
30   C       -38.3355   17.3053   18.2421  C     
31   C       -39.7986   18.2706   19.9051  C     
32   H       -40.9586   15.2989   11.9148  H     
33   H       -44.4047   22.6368    6.2561  H     
34   H       -43.5243   21.4098    5.5356  H     
35   H       -43.8233   16.8153    7.3977  H     
36   H       -44.6193   19.1767   10.7528  H     
37   H       -40.5091   15.3294   14.0570  H     
38   H       -42.0319   18.8300   12.2444  H     
39   H       -40.3782   16.4730   16.1409  H     
40   H       -41.8911   19.9698   14.3197  H     
41   H       -45.2657   22.5423    8.3761  H     
42   H       -45.5384   21.3667   10.4622  H     
43   H       -41.7570   14.1527    7.2312  H     
44   H       -43.3186   14.7025    6.6310  H     
45   H       -43.2570   13.5718    7.9788  H     
46   H       -41.7601   18.6873    6.9411  H     
47   H       -42.2256   19.9777    5.8651  H     
48   H       -43.1937   18.5052    5.8983  H     
49   H       -38.5956   18.0577   16.2267  H     
50   H       -37.9959   19.2499   17.3552  H     
51   H       -39.5348   20.2647   19.0857  H     
52   H       -41.2081   19.7274   19.1789  H     
53   H       -37.2935   17.0181   18.0864  H     
54   H       -38.9571   16.4223   18.0730  H     
55   H       -40.5317   17.4606   19.8543  H     
56   H       -39.7912   18.6563   20.9264  H     
@<TRIPOS>BOND
     1    1   12 2
     2    2   19 2
     3    3   30 1
     4    3   31 1
     5    4    9 1
     6    4   10 2
     7    5   12 1
     8    5   13 1
     9    5   26 1
    10    6   10 1
    11    6   15 1
    12    7   19 am
    13    7   28 1
    14    7   29 1
    15    8   16 1
    16    9   11 1
    17    9   13 2
    18   10   12 1
    19   11   14 2
    20   11   17 1
    21   14   16 1
    22   14   27 1
    23   15   20 2
    24   15   21 1
    25   16   24 2
    26   17   25 2
    27   18   19 1
    28   18   22 2
    29   18   23 1
    30   20   22 1
    31   21   23 2
    32   24   25 1
    33   28   30 1
    34   29   31 1
    35    6   32 1
    36    8   33 1
    37    8   34 1
    38   13   35 1
    39   17   36 1
    40   20   37 1
    41   21   38 1
    42   22   39 1
    43   23   40 1
    44   24   41 1
    45   25   42 1
    46   26   43 1
    47   26   44 1
    48   26   45 1
    49   27   46 1
    50   27   47 1
    51   27   48 1
    52   28   49 1
    53   28   50 1
    54   29   51 1
    55   29   52 1
    56   30   53 1
    57   30   54 1
    58   31   55 1
    59   31   56 1
@<TRIPOS>PROPERTY_DATA
  Total_Score	| 5.7668
  Crash		| -0.7783
  Polar		| 1.4828
  FragIndex	| 1
  FragRMSD	| 0.178

