@<TRIPOS>MOLECULE
BindingDB_50388183
 80 85 0 0 0
SMALL
NO_CHARGES


@<TRIPOS>ATOM
1    C       -44.7889   22.1984    3.8245  C     
2    C       -45.0234   21.4476    4.9663  C     
3    N       -44.3960   21.7320    6.1079  N     
4    O       -45.7498   20.4610    4.8983  O     
5    C       -44.3726   20.9843    7.2574  C     
6    C       -43.7414   19.7064    7.3777  C     
7    C       -43.7324   19.0285    8.6494  C     
8    C       -44.3990   19.6657    9.7312  C     
9    C       -44.9748   20.9367    9.6158  C     
10   C       -44.9515   21.5941    8.3829  C     
11   C       -43.0658   17.8009    8.9334  C     
12   C       -43.0421   16.7053    8.1315  C     
13   C       -41.8020   16.5416   10.5609  C     
14   N       -42.4208   17.6816   10.1278  N     
15   C       -41.8226   15.4433    9.7016  C     
16   N       -42.4282   15.5417    8.4990  N     
17   N       -41.1789   16.4669   11.7695  N     
18   C       -41.1806   17.3886   12.7828  C     
19   C       -45.3372   22.0360    2.5372  C     
20   S       -43.6148   23.4509    3.6844  S     
21   C       -43.8141   23.7568    2.0059  C     
22   C       -44.7886   22.8656    1.5318  C     
23   C       -45.1367   22.7962    0.0901  C     
24   C       -44.0880   23.4897   -0.8364  C     
25   C       -43.5899   24.8421   -0.2619  C     
26   C       -43.0159   24.6812    1.1740  C     
27   C       -43.0439   19.1346    6.1840  C     
28   C       -40.2884   17.2176   13.8627  C     
29   C       -40.2138   18.1723   14.8911  C     
30   C       -41.0505   19.3141   14.8799  C     
31   C       -42.0045   19.4396   13.8443  C     
32   C       -42.0746   18.4825   12.8176  C     
33   C       -40.9116   20.3907   15.9176  C     
34   N       -40.1857   21.5667   15.2998  N     
35   C       -40.4802   22.8425   16.0072  C     
36   C       -42.0087   23.0761   15.9711  C     
37   N       -42.7851   21.9295   16.4037  N     
38   C       -42.2312   20.7091   16.4831  C     
39   C       -44.1885   22.1663   16.6840  C     
40   C       -38.7150   21.3416   15.1473  C     
41   O       -42.8248   19.7834   17.0368  O     
42   C       -42.4771   14.4338    7.5681  C     
43   O       -41.3183   14.3967   10.0891  O     
44   H       -43.9122   22.5702    6.1407  H     
45   H       -44.4728   19.2111   10.6463  H     
46   H       -45.4232   21.3755   10.4217  H     
47   H       -45.3763   22.5261    8.3060  H     
48   H       -43.4893   16.7459    7.2518  H     
49   H       -40.6422   15.6716   11.9117  H     
50   H       -46.0433   21.3298    2.3278  H     
51   H       -45.2059   21.7446   -0.2086  H     
52   H       -46.1191   23.2523   -0.0677  H     
53   H       -43.2259   22.8280   -0.9515  H     
54   H       -44.5184   23.6549   -1.8277  H     
55   H       -42.8154   25.2534   -0.9162  H     
56   H       -44.4177   25.5518   -0.2377  H     
57   H       -42.9764   25.6638    1.6591  H     
58   H       -41.9935   24.2903    1.1152  H     
59   H       -42.9119   19.8314    5.3515  H     
60   H       -43.6446   18.2846    5.8144  H     
61   H       -42.0363   18.8006    6.4616  H     
62   H       -39.6676   16.4079   13.8931  H     
63   H       -39.5247   18.0486   15.6391  H     
64   H       -42.6550   20.2268   13.8378  H     
65   H       -42.7868   18.5623   12.0859  H     
66   H       -40.3102   20.0333   16.7617  H     
67   H       -40.5582   21.6911   14.3566  H     
68   H       -40.1345   22.8002   17.0439  H     
69   H       -39.9839   23.6829   15.5163  H     
70   H       -42.2247   23.9353   16.6085  H     
71   H       -42.3017   23.3327   14.9478  H     
72   H       -44.2897   22.8963   17.4884  H     
73   H       -44.7385   21.2739   16.9854  H     
74   H       -44.6848   22.5595   15.7940  H     
75   H       -38.2256   21.2534   16.1217  H     
76   H       -38.2565   22.1693   14.6011  H     
77   H       -38.5206   20.4312   14.5799  H     
78   H       -43.5091   14.0965    7.4467  H     
79   H       -41.8773   13.5713    7.8722  H     
80   H       -42.1032   14.7479    6.5919  H     
@<TRIPOS>BOND
     1    1    2 1
     2    1   19 2
     3    1   20 1
     4    2    3 am
     5    2    4 2
     6    3    5 1
     7    5    6 2
     8    5   10 1
     9    6    7 1
    10    6   27 1
    11    7    8 2
    12    7   11 1
    13    8    9 1
    14    9   10 2
    15   11   12 2
    16   11   14 1
    17   12   16 1
    18   13   14 2
    19   13   15 1
    20   13   17 1
    21   15   16 1
    22   15   43 2
    23   16   42 1
    24   17   18 1
    25   18   28 2
    26   18   32 1
    27   19   22 1
    28   20   21 1
    29   21   22 2
    30   21   26 1
    31   22   23 1
    32   23   24 1
    33   24   25 1
    34   25   26 1
    35   28   29 1
    36   29   30 2
    37   30   31 1
    38   33   30 1
    39   31   32 2
    40   33   34 1
    41   33   38 1
    42   34   35 1
    43   34   40 1
    44   35   36 1
    45   36   37 1
    46   37   38 1
    47   37   39 1
    48   38   41 2
    49    3   44 1
    50    8   45 1
    51    9   46 1
    52   10   47 1
    53   12   48 1
    54   17   49 1
    55   19   50 1
    56   23   51 1
    57   23   52 1
    58   24   53 1
    59   24   54 1
    60   25   55 1
    61   25   56 1
    62   26   57 1
    63   26   58 1
    64   27   59 1
    65   27   60 1
    66   27   61 1
    67   28   62 1
    68   29   63 1
    69   31   64 1
    70   32   65 1
    71   33   66 1
    72   34   67 1
    73   35   68 1
    74   35   69 1
    75   36   70 1
    76   36   71 1
    77   39   72 1
    78   39   73 1
    79   39   74 1
    80   40   75 1
    81   40   76 1
    82   40   77 1
    83   42   78 1
    84   42   79 1
    85   42   80 1
@<TRIPOS>PROPERTY_DATA
  Total_Score	| 9.9719
  Crash		| -1.7081
  Polar		| 2.8239
  FragIndex	| 1
  FragRMSD	| 0.261

