@<TRIPOS>MOLECULE
BindingDB_36516
 80 84 0 0 0
SMALL
NO_CHARGES


@<TRIPOS>ATOM
1    O       -41.5951   14.2637   10.0135  O     
2    O       -45.7589   20.2760    5.3086  O     
3    O       -41.8420   19.7878   16.9850  O     
4    O       -38.1003   18.0583   19.5082  O     
5    N       -42.6510   17.5383   10.3227  N     
6    N       -42.7484   15.5374    8.5620  N     
7    N       -41.5203   16.1455   11.9112  N     
8    N       -44.3876   21.6907    6.3020  N     
9    N       -39.8005   19.0464   17.4655  N     
10   C       -43.2475   17.7866    9.1471  C     
11   C       -43.7779   19.0715    8.9080  C     
12   C       -42.0802   16.3650   10.6922  C     
13   C       -43.6841   19.7626    7.6549  C     
14   C       -42.1267   15.3362    9.7458  C     
15   C       -44.3236   21.0299    7.4990  C     
16   C       -43.3260   16.7463    8.2838  C     
17   C       -44.4273   19.7309    9.9882  C     
18   C       -41.4176   16.9298   13.0286  C     
19   C       -44.9306   21.6573    8.6059  C     
20   C       -44.9737   21.0170    9.8459  C     
21   C       -45.0318   21.2569    5.2221  C     
22   C       -44.8371   21.8415    3.9579  C     
23   C       -41.0610   18.3728   15.4809  C     
24   C       -42.8439   19.2308    6.5303  C     
25   C       -40.8904   19.0803   16.6725  C     
26   C       -40.9670   16.2835   14.2049  C     
27   C       -41.6921   18.3160   13.1069  C     
28   C       -44.2948   22.7848    1.2703  C     
29   C       -42.7859   14.4790    7.5736  C     
30   C       -40.7982   16.9856   15.4131  C     
31   C       -41.5319   19.0204   14.3122  C     
32   C       -43.9384   23.2157   -0.1436  C     
33   C       -43.6626   22.5744    3.6551  C     
34   C       -45.7517   21.6269    2.9039  C     
35   C       -43.4048   23.0224    2.3479  C     
36   C       -45.4932   22.0871    1.6015  C     
37   C       -39.7695   19.7157   18.7643  C     
38   C       -38.5408   18.3978   17.1067  C     
39   C       -45.0756   22.9814   -1.2064  C     
40   C       -43.6046   24.7449   -0.1724  C     
41   C       -42.6869   22.4097   -0.6393  C     
42   C       -39.3353   18.7093   19.8646  C     
43   C       -38.1368   17.4005   18.2247  C     
44   H       -41.1560   15.2545   12.0227  H     
45   H       -43.9197   22.5377    6.2420  H     
46   H       -43.8382   16.8563    7.4405  H     
47   H       -44.5159   19.2736   10.8973  H     
48   H       -45.3639   22.5820    8.5112  H     
49   H       -45.4211   21.4662   10.6501  H     
50   H       -41.9285   18.7843    6.9161  H     
51   H       -42.5322   20.0032    5.8283  H     
52   H       -43.4083   18.4785    5.9791  H     
53   H       -40.7558   15.2840   14.1976  H     
54   H       -41.9858   18.8513   12.2911  H     
55   H       -41.7678   14.2029    7.2863  H     
56   H       -43.3224   14.7503    6.6574  H     
57   H       -43.2813   13.5996    7.9932  H     
58   H       -40.4497   16.4868   16.2355  H     
59   H       -41.7401   20.0255   14.3279  H     
60   H       -42.9508   22.7404    4.3692  H     
61   H       -46.6211   21.1029    3.0691  H     
62   H       -42.5205   23.5089    2.1827  H     
63   H       -46.1941   21.8747    0.8936  H     
64   H       -39.0445   20.5356   18.7296  H     
65   H       -40.7241   20.1467   19.0706  H     
66   H       -38.5645   17.8558   16.1578  H     
67   H       -37.7574   19.1587   17.0188  H     
68   H       -45.3182   21.9155   -1.2917  H     
69   H       -44.7686   23.3244   -2.1973  H     
70   H       -45.9835   23.5234   -0.9323  H     
71   H       -44.4403   25.3261    0.2177  H     
72   H       -43.3983   25.0853   -1.1916  H     
73   H       -42.7230   24.9761    0.4249  H     
74   H       -41.8120   22.6040   -0.0183  H     
75   H       -42.4242   22.6766   -1.6658  H     
76   H       -42.8914   21.3349   -0.6109  H     
77   H       -40.1206   17.9632   20.0194  H     
78   H       -39.1790   19.2402   20.8071  H     
79   H       -37.1386   17.0043   18.0183  H     
80   H       -38.8347   16.5584   18.2582  H     
@<TRIPOS>BOND
     1    1   14 2
     2    2   21 2
     3    3   25 2
     4    4   42 1
     5    4   43 1
     6    5   10 1
     7    5   12 2
     8    6   14 1
     9    6   16 1
    10    6   29 1
    11    7   12 1
    12    7   18 1
    13    8   15 1
    14    8   21 am
    15    9   25 am
    16    9   37 1
    17    9   38 1
    18   10   11 1
    19   10   16 2
    20   11   13 2
    21   11   17 1
    22   12   14 1
    23   13   15 1
    24   13   24 1
    25   15   19 2
    26   17   20 2
    27   18   26 2
    28   18   27 1
    29   19   20 1
    30   21   22 1
    31   22   33 2
    32   22   34 1
    33   23   25 1
    34   23   30 2
    35   23   31 1
    36   26   30 1
    37   27   31 2
    38   28   32 1
    39   28   35 2
    40   28   36 1
    41   32   39 1
    42   32   40 1
    43   32   41 1
    44   33   35 1
    45   34   36 2
    46   37   42 1
    47   38   43 1
    48    7   44 1
    49    8   45 1
    50   16   46 1
    51   17   47 1
    52   19   48 1
    53   20   49 1
    54   24   50 1
    55   24   51 1
    56   24   52 1
    57   26   53 1
    58   27   54 1
    59   29   55 1
    60   29   56 1
    61   29   57 1
    62   30   58 1
    63   31   59 1
    64   33   60 1
    65   34   61 1
    66   35   62 1
    67   36   63 1
    68   37   64 1
    69   37   65 1
    70   38   66 1
    71   38   67 1
    72   39   68 1
    73   39   69 1
    74   39   70 1
    75   40   71 1
    76   40   72 1
    77   40   73 1
    78   41   74 1
    79   41   75 1
    80   41   76 1
    81   42   77 1
    82   42   78 1
    83   43   79 1
    84   43   80 1
@<TRIPOS>PROPERTY_DATA
  Total_Score	| 10.3323
  Crash		| -0.9735
  Polar		| 2.1005
  FragIndex	| 1
  FragRMSD	| 0.257

