@<TRIPOS>MOLECULE
BindingDB_36520
 80 84 0 0 0
SMALL
NO_CHARGES


@<TRIPOS>ATOM
1    O       -41.5133   14.2411    9.9888  O     
2    O       -45.3078   20.5492    5.3036  O     
3    O       -42.0401   19.2659   17.1888  O     
4    O       -38.1419   17.9517   19.6195  O     
5    N       -42.5662   17.5130   10.4214  N     
6    N       -42.7090   15.5572    8.6058  N     
7    N       -41.3580   16.0951   11.9256  N     
8    N       -44.0677   21.8339    6.5873  N     
9    N       -39.8630   18.8953   17.5834  N     
10   C       -43.1972   17.7742    9.2688  C     
11   C       -43.7122   19.0569    9.0574  C     
12   C       -41.9671   16.3335   10.7329  C     
13   C       -43.5001   19.8167    7.8640  C     
14   C       -42.0389   15.3276    9.7595  C     
15   C       -44.1583   21.0736    7.7162  C     
16   C       -43.3022   16.7642    8.3781  C     
17   C       -44.4843   19.6315   10.1002  C     
18   C       -41.2564   16.8523   13.0637  C     
19   C       -44.9078   21.6188    8.7747  C     
20   C       -44.5833   21.5374    5.3923  C     
21   C       -45.0609   20.9031    9.9684  C     
22   C       -44.3253   22.3093    4.2440  C     
23   C       -41.0326   18.1816   15.5784  C     
24   C       -44.3390   22.5243    1.7405  C     
25   C       -42.5357   19.3816    6.8059  C     
26   C       -40.9670   18.8048   16.8119  C     
27   C       -40.8488   16.1526   14.2224  C     
28   C       -41.5187   18.2389   13.1809  C     
29   C       -44.5704   21.7965    2.9447  C     
30   C       -44.6386   21.9777    0.3500  C     
31   C       -42.7871   14.5276    7.5905  C     
32   C       -40.7472   16.7996   15.4674  C     
33   C       -41.4061   18.8952   14.4214  C     
34   C       -43.7758   23.6168    4.3148  C     
35   C       -43.8068   23.8299    1.8926  C     
36   C       -43.5244   24.3686    3.1544  C     
37   C       -38.5789   18.3104   17.2192  C     
38   C       -39.8781   19.5453   18.8855  C     
39   C       -43.3311   21.9452   -0.5146  C     
40   C       -45.2154   20.5191    0.3569  C     
41   C       -45.7077   22.8877   -0.3506  C     
42   C       -38.1286   17.3208   18.3235  C     
43   C       -39.4141   18.5396   19.9700  C     
44   H       -40.9692   15.2055   12.0097  H     
45   H       -43.6214   22.6887    6.6811  H     
46   H       -43.8192   16.9172    7.5385  H     
47   H       -44.6552   19.1171   10.9605  H     
48   H       -45.3586   22.5335    8.6696  H     
49   H       -45.6137   21.2941   10.7287  H     
50   H       -41.7691   18.7106    7.1916  H     
51   H       -42.0022   20.2372    6.3819  H     
52   H       -43.0732   18.8759    6.0024  H     
53   H       -40.6350   15.1524   14.1770  H     
54   H       -41.7848   18.7992   12.3759  H     
55   H       -44.9332   20.8476    2.8742  H     
56   H       -41.7796   14.2710    7.2527  H     
57   H       -43.3660   14.8201    6.7062  H     
58   H       -43.2608   13.6379    8.0098  H     
59   H       -40.4587   16.2607   16.2877  H     
60   H       -41.6106   19.9000   14.4776  H     
61   H       -43.5727   24.0622    5.2071  H     
62   H       -43.6182   24.4103    1.0719  H     
63   H       -43.1509   25.3188    3.2273  H     
64   H       -38.5813   17.7753   16.2683  H     
65   H       -37.8378   19.1118   17.1314  H     
66   H       -39.1901   20.3952   18.8669  H     
67   H       -40.8568   19.9338   19.1813  H     
68   H       -42.9383   22.9526   -0.6865  H     
69   H       -43.5229   21.5000   -1.4932  H     
70   H       -42.5572   21.3570   -0.0105  H     
71   H       -44.5117   19.8196    0.8172  H     
72   H       -45.4235   20.1690   -0.6562  H     
73   H       -46.1563   20.4784    0.9199  H     
74   H       -46.6139   22.9345    0.2610  H     
75   H       -45.9723   22.4886   -1.3349  H     
76   H       -45.3409   23.9053   -0.4973  H     
77   H       -37.1102   16.9870   18.1167  H     
78   H       -38.7796   16.4418   18.3261  H     
79   H       -40.1670   17.7545   20.0982  H     
80   H       -39.3000   19.0614   20.9222  H     
@<TRIPOS>BOND
     1    1   14 2
     2    2   20 2
     3    3   26 2
     4    4   42 1
     5    4   43 1
     6    5   10 1
     7    5   12 2
     8    6   14 1
     9    6   16 1
    10    6   31 1
    11    7   12 1
    12    7   18 1
    13    8   15 1
    14    8   20 am
    15    9   26 am
    16    9   37 1
    17    9   38 1
    18   10   11 1
    19   10   16 2
    20   11   13 2
    21   11   17 1
    22   12   14 1
    23   13   15 1
    24   13   25 1
    25   15   19 2
    26   17   21 2
    27   18   27 2
    28   18   28 1
    29   19   21 1
    30   20   22 1
    31   22   29 1
    32   22   34 2
    33   23   26 1
    34   23   32 2
    35   23   33 1
    36   24   29 2
    37   24   30 1
    38   24   35 1
    39   27   32 1
    40   28   33 2
    41   30   39 1
    42   30   40 1
    43   30   41 1
    44   34   36 1
    45   35   36 2
    46   37   42 1
    47   38   43 1
    48    7   44 1
    49    8   45 1
    50   16   46 1
    51   17   47 1
    52   19   48 1
    53   21   49 1
    54   25   50 1
    55   25   51 1
    56   25   52 1
    57   27   53 1
    58   28   54 1
    59   29   55 1
    60   31   56 1
    61   31   57 1
    62   31   58 1
    63   32   59 1
    64   33   60 1
    65   34   61 1
    66   35   62 1
    67   36   63 1
    68   37   64 1
    69   37   65 1
    70   38   66 1
    71   38   67 1
    72   39   68 1
    73   39   69 1
    74   39   70 1
    75   40   71 1
    76   40   72 1
    77   40   73 1
    78   41   74 1
    79   41   75 1
    80   41   76 1
    81   42   77 1
    82   42   78 1
    83   43   79 1
    84   43   80 1
@<TRIPOS>PROPERTY_DATA
  Total_Score	| 10.0752
  Crash		| -2.4183
  Polar		| 2.4133
  FragIndex	| 1
  FragRMSD	| 0.564

