@<TRIPOS>MOLECULE
BindingDB_50341519
 67 71 0 0 0
SMALL
NO_CHARGES


@<TRIPOS>ATOM
1    C       -44.0472   23.3701    2.5426  C     
2    C       -44.2737   22.4898    3.5931  C     
3    C       -43.9515   22.7729    4.8844  C     
4    C       -43.4341   24.0217    5.1330  C     
5    N       -43.2379   24.8810    4.1322  N     
6    C       -43.5176   24.5720    2.8523  C     
7    O       -43.1680   24.4001    6.2625  O     
8    N       -43.9315   21.8605    5.8801  N     
9    C       -44.6110   20.7210    5.9899  C     
10   C       -44.1555   19.7357    6.8486  C     
11   O       -45.5616   20.4569    5.2607  O     
12   C       -44.0689   19.9415    8.2406  C     
13   C       -43.6386   18.9014    9.0848  C     
14   C       -43.1898   17.6562    8.5744  C     
15   C       -43.2814   17.4751    7.1743  C     
16   C       -43.7598   18.4892    6.3290  C     
17   N       -42.6897   16.6652    9.3825  N     
18   C       -42.7488   15.2764    9.0377  C     
19   C       -42.7121   14.5687   10.3922  C     
20   C       -41.7617   15.4551   11.2027  C     
21   C       -42.0291   16.8799   10.6531  C     
22   C       -40.7130   17.7105   10.4977  C     
23   N       -40.8992   19.1834   10.6904  N     
24   C       -40.1237   20.0631    9.7936  C     
25   C       -40.3681   21.4611   10.3705  C     
26   C       -40.5547   21.2323   11.8879  C     
27   C       -40.6591   19.7045   12.0591  C     
28   C       -44.2728   22.9678    1.2273  C     
29   N       -43.2732   23.1073    0.3084  N     
30   C       -43.3321   22.5922   -0.9462  C     
31   C       -44.5135   21.9237   -1.3234  C     
32   N       -45.5213   21.7985   -0.4290  N     
33   C       -45.4364   22.2722    0.8325  C     
34   N       -42.2102   22.6813   -1.7032  N     
35   C       -41.6672   21.6071   -2.5078  C     
36   H       -44.5304   21.5610    3.3756  H     
37   H       -42.8876   25.7616    4.3327  H     
38   H       -43.3129   25.2450    2.1507  H     
39   H       -43.2871   22.0393    6.5801  H     
40   H       -44.3688   20.8271    8.6499  H     
41   H       -43.6880   19.0644   10.0875  H     
42   H       -42.9618   16.6166    6.7292  H     
43   H       -43.7496   18.3300    5.3200  H     
44   H       -43.6685   15.0149    8.5142  H     
45   H       -41.8840   14.9999    8.4300  H     
46   H       -43.7065   14.5705   10.8442  H     
47   H       -42.3546   13.5454   10.2990  H     
48   H       -41.9578   15.3820   12.2751  H     
49   H       -40.7417   15.1211   11.0125  H     
50   H       -42.6987   17.3788   11.3520  H     
51   H       -39.9590   17.3518   11.1983  H     
52   H       -40.3071   17.5092    9.5026  H     
53   H       -41.8644   19.3982   10.4913  H     
54   H       -39.0601   19.8197    9.8269  H     
55   H       -40.4889   20.0041    8.7640  H     
56   H       -39.5298   22.1340   10.1548  H     
57   H       -41.2837   21.8801    9.9439  H     
58   H       -39.6969   21.6210   12.4536  H     
59   H       -41.4659   21.7268   12.2482  H     
60   H       -41.4835   19.4451   12.7239  H     
61   H       -39.7377   19.3082   12.4821  H     
62   H       -44.6618   21.5703   -2.2681  H     
63   H       -46.2194   22.1334    1.4751  H     
64   H       -41.6016   23.4083   -1.5009  H     
65   H       -40.8044   21.1968   -1.9640  H     
66   H       -41.3151   21.9981   -3.4754  H     
67   H       -42.3556   20.7820   -2.6959  H     
@<TRIPOS>BOND
     1    1    2 1
     2    1    6 2
     3    1   28 1
     4    2    3 2
     5    3    4 1
     6    3    8 1
     7    4    5 1
     8    4    7 2
     9    5    6 1
    10    8    9 am
    11    9   10 1
    12    9   11 2
    13   10   12 2
    14   10   16 1
    15   12   13 1
    16   13   14 2
    17   14   15 1
    18   14   17 1
    19   15   16 2
    20   17   18 1
    21   17   21 1
    22   18   19 1
    23   19   20 1
    24   20   21 1
    25   21   22 1
    26   22   23 1
    27   23   24 1
    28   23   27 1
    29   24   25 1
    30   25   26 1
    31   26   27 1
    32   28   29 2
    33   28   33 1
    34   29   30 1
    35   30   31 2
    36   30   34 1
    37   31   32 1
    38   32   33 2
    39   34   35 1
    40    2   36 1
    41    5   37 1
    42    6   38 1
    43    8   39 1
    44   12   40 1
    45   13   41 1
    46   15   42 1
    47   16   43 1
    48   18   44 1
    49   18   45 1
    50   19   46 1
    51   19   47 1
    52   20   48 1
    53   20   49 1
    54   21   50 1
    55   22   51 1
    56   22   52 1
    57   23   53 1
    58   24   54 1
    59   24   55 1
    60   25   56 1
    61   25   57 1
    62   26   58 1
    63   26   59 1
    64   27   60 1
    65   27   61 1
    66   31   62 1
    67   33   63 1
    68   34   64 1
    69   35   65 1
    70   35   66 1
    71   35   67 1
@<TRIPOS>PROPERTY_DATA
  Total_Score	| 5.6093
  Crash		| -3.8213
  Polar		| 1.5518
  FragIndex	| 1
  FragRMSD	| 1.401

