@<TRIPOS>MOLECULE
BindingDB_50388184
 66 68 0 0 0
SMALL
NO_CHARGES


@<TRIPOS>ATOM
1    C       -43.5983   19.1396    8.8089  C     
2    C       -44.3282   19.8499    9.7984  C     
3    C       -44.9185   21.0928    9.5194  C     
4    C       -44.8586   21.6075    8.2094  C     
5    C       -44.1483   20.9236    7.1973  C     
6    C       -43.4453   19.7130    7.5023  C     
7    C       -42.5760   19.0631    6.4784  C     
8    C       -43.0303   17.9210    9.1616  C     
9    N       -44.1326   21.4213    5.9301  N     
10   C       -44.8959   21.0363    4.9083  C     
11   C       -44.6678   21.4944    3.6069  C     
12   O       -45.7732   20.1818    5.1033  O     
13   C       -43.2027   16.7780    8.4430  C     
14   N       -42.5640   15.6348    8.7766  N     
15   C       -41.9105   15.5590    9.9438  C     
16   C       -41.7666   16.6605   10.7778  C     
17   C       -42.2605   17.8292   10.3002  C     
18   C       -42.5908   14.5397    7.8111  C     
19   O       -41.4196   14.4948   10.3259  O     
20   N       -41.0676   16.5848   11.9300  N     
21   C       -41.0657   17.4111   12.9786  C     
22   N       -41.9827   18.3553   13.1615  N     
23   O       -40.2079   17.1717   13.8174  O     
24   C       -42.0458   19.2659   14.2679  C     
25   C       -41.3172   20.6080   13.9716  C     
26   C       -45.7538   21.8241    2.7581  C     
27   C       -45.5477   22.2308    1.4388  C     
28   C       -44.2533   22.3589    0.8571  C     
29   C       -43.1690   22.0462    1.7218  C     
30   C       -43.3744   21.6227    3.0526  C     
31   C       -44.0690   22.8744   -0.5699  C     
32   C       -43.7049   24.3973   -0.4952  C     
33   C       -42.9265   22.1299   -1.3536  C     
34   C       -45.3611   22.7162   -1.4605  C     
35   H       -44.4344   19.4724   10.7482  H     
36   H       -45.4412   21.6138   10.2384  H     
37   H       -45.3240   22.4911    8.0181  H     
38   H       -41.6499   18.7047    6.9431  H     
39   H       -42.2755   19.7181    5.6618  H     
40   H       -43.0992   18.2121    6.0451  H     
41   H       -43.4076   22.0187    5.7364  H     
42   H       -43.7785   16.8078    7.6094  H     
43   H       -42.0305   18.6759   10.7606  H     
44   H       -43.5818   14.0904    7.7416  H     
45   H       -41.8774   13.7454    8.0495  H     
46   H       -42.3209   14.9059    6.8196  H     
47   H       -40.5231   15.7779   12.0684  H     
48   H       -42.7049   18.3850   12.5383  H     
49   H       -43.1017   19.4837   14.4719  H     
50   H       -41.6314   18.8083   15.1687  H     
51   H       -40.2615   20.4314   13.7438  H     
52   H       -41.3811   21.2651   14.8522  H     
53   H       -41.8020   21.0796   13.1267  H     
54   H       -46.7225   21.8020    3.1035  H     
55   H       -46.3975   22.4651    0.9198  H     
56   H       -42.2098   22.0965    1.4104  H     
57   H       -42.5537   21.3970    3.6215  H     
58   H       -44.5077   24.9621   -0.0277  H     
59   H       -43.5218   24.8073   -1.4919  H     
60   H       -42.7915   24.5321    0.0936  H     
61   H       -41.9547   22.3267   -0.9014  H     
62   H       -42.8627   22.4513   -2.3931  H     
63   H       -43.1071   21.0439   -1.3468  H     
64   H       -45.6939   21.6813   -1.4518  H     
65   H       -45.1808   23.0018   -2.5008  H     
66   H       -46.1899   23.3471   -1.1145  H     
@<TRIPOS>BOND
     1    1    2 2
     2    1    6 1
     3    1    8 1
     4    2    3 1
     5    3    4 2
     6    4    5 1
     7    5    6 2
     8    5    9 1
     9    6    7 1
    10    8   13 2
    11    8   17 1
    12    9   10 am
    13   10   11 1
    14   10   12 2
    15   11   26 2
    16   11   30 1
    17   13   14 1
    18   14   15 1
    19   14   18 1
    20   15   16 1
    21   15   19 2
    22   16   17 2
    23   16   20 1
    24   20   21 am
    25   21   22 am
    26   21   23 2
    27   22   24 1
    28   24   25 1
    29   26   27 1
    30   27   28 2
    31   28   29 1
    32   28   31 1
    33   29   30 2
    34   31   32 1
    35   31   33 1
    36   31   34 1
    37    2   35 1
    38    3   36 1
    39    4   37 1
    40    7   38 1
    41    7   39 1
    42    7   40 1
    43    9   41 1
    44   13   42 1
    45   17   43 1
    46   18   44 1
    47   18   45 1
    48   18   46 1
    49   20   47 1
    50   22   48 1
    51   24   49 1
    52   24   50 1
    53   25   51 1
    54   25   52 1
    55   25   53 1
    56   26   54 1
    57   27   55 1
    58   29   56 1
    59   30   57 1
    60   32   58 1
    61   32   59 1
    62   32   60 1
    63   33   61 1
    64   33   62 1
    65   33   63 1
    66   34   64 1
    67   34   65 1
    68   34   66 1
@<TRIPOS>PROPERTY_DATA
  Total_Score	| 9.0112
  Crash		| -1.9159
  Polar		| 2.4119
  FragIndex	| 1
  FragRMSD	| 0.306

