@<TRIPOS>MOLECULE
BindingDB_36521
 79 83 0 0 0
SMALL
NO_CHARGES


@<TRIPOS>ATOM
1    O       -41.8451   14.0884   10.0053  O     
2    O       -45.6707   20.2470    5.2571  O     
3    O       -41.8279   19.7954   16.8680  O     
4    O       -37.5970   18.0885   18.2628  O     
5    N       -42.5841   17.4614   10.3289  N     
6    N       -42.7434   15.5065    8.5137  N     
7    N       -41.6668   15.9634   11.9420  N     
8    N       -44.2295   21.5963    6.2350  N     
9    N       -39.6600   19.5708   17.0963  N     
10   N       -44.9392   21.7209    1.5047  N     
11   C       -43.1177   17.7595    9.1359  C     
12   C       -43.6220   19.0481    8.8982  C     
13   C       -42.1346   16.2294   10.6927  C     
14   C       -43.5167   19.7091    7.6333  C     
15   C       -42.2430   15.2148    9.7333  C     
16   C       -44.1885   20.9524    7.4425  C     
17   C       -43.2277   16.7518    8.2435  C     
18   C       -44.3012   19.7044    9.9561  C     
19   C       -41.4858   16.8297   12.9825  C     
20   C       -44.8263   21.5940    8.5218  C     
21   C       -44.9054   21.1994    5.1574  C     
22   C       -44.8888   20.9695    9.7712  C     
23   C       -44.7214   21.7898    3.9018  C     
24   C       -40.9736   18.5636   15.2271  C     
25   C       -42.6335   19.2010    6.5359  C     
26   C       -40.7887   19.3550   16.3842  C     
27   C       -44.2209   22.8591    1.2942  C     
28   C       -40.8140   16.3488   14.1251  C     
29   C       -41.8471   18.1958   12.9455  C     
30   C       -42.7629   14.5022    7.4700  C     
31   C       -40.5807   17.1908   15.2274  C     
32   C       -41.5543   19.0341   14.0343  C     
33   C       -43.9600   23.2797   -0.1351  C     
34   C       -45.2103   21.1887    2.7216  C     
35   C       -43.9912   22.9917    3.7269  C     
36   C       -43.7368   23.5187    2.4465  C     
37   C       -39.7074   19.3705   18.5455  C     
38   C       -38.2994   19.7171   16.5964  C     
39   C       -42.8352   22.3648   -0.7037  C     
40   C       -45.2528   23.0809   -0.9908  C     
41   C       -43.5091   24.7741   -0.3039  C     
42   C       -38.9052   18.0857   18.8850  C     
43   C       -37.5880   18.3642   16.8406  C     
44   H       -41.5398   15.0273   12.1598  H     
45   H       -43.7236   22.4192    6.1706  H     
46   H       -43.6940   16.9265    7.3834  H     
47   H       -44.3863   19.2647   10.8793  H     
48   H       -45.2556   22.5186    8.3880  H     
49   H       -45.3619   21.4319   10.5540  H     
50   H       -41.8529   18.5330    6.9070  H     
51   H       -42.1112   20.0398    6.0514  H     
52   H       -43.2269   18.6622    5.7956  H     
53   H       -40.5160   15.3726   14.1800  H     
54   H       -42.2690   18.6037   12.1013  H     
55   H       -41.7401   14.1912    7.2360  H     
56   H       -43.2120   14.8488    6.5340  H     
57   H       -43.3328   13.6311    7.8028  H     
58   H       -40.1240   16.7785   16.0485  H     
59   H       -41.7815   20.0078   13.9211  H     
60   H       -45.7424   20.3189    2.7512  H     
61   H       -43.6171   23.4969    4.5314  H     
62   H       -43.1771   24.3660    2.3743  H     
63   H       -39.2609   20.2298   19.0644  H     
64   H       -40.7149   19.2406   18.9545  H     
65   H       -38.1864   20.0928   15.5703  H     
66   H       -37.7816   20.4808   17.1849  H     
67   H       -41.9172   22.4742   -0.1099  H     
68   H       -42.6173   22.6330   -1.7439  H     
69   H       -43.1334   21.3109   -0.7002  H     
70   H       -45.5665   22.0340   -0.9969  H     
71   H       -45.0841   23.3679   -2.0341  H     
72   H       -46.0725   23.6875   -0.5994  H     
73   H       -44.2598   25.4591    0.0935  H     
74   H       -43.3488   25.0141   -1.3600  H     
75   H       -42.5662   24.9600    0.2124  H     
76   H       -39.4697   17.1983   18.5653  H     
77   H       -38.7619   18.0256   19.9698  H     
78   H       -36.5510   18.4185   16.4905  H     
79   H       -38.0868   17.5458   16.3112  H     
@<TRIPOS>BOND
     1    1   15 2
     2    2   21 2
     3    3   26 2
     4    4   42 1
     5    4   43 1
     6    5   11 1
     7    5   13 2
     8    6   15 1
     9    6   17 1
    10    6   30 1
    11    7   13 1
    12    7   19 1
    13    8   16 1
    14    8   21 am
    15    9   26 am
    16    9   37 1
    17    9   38 1
    18   10   27 1
    19   10   34 2
    20   11   12 1
    21   11   17 2
    22   12   14 2
    23   12   18 1
    24   13   15 1
    25   14   16 1
    26   14   25 1
    27   16   20 2
    28   18   22 2
    29   19   28 2
    30   19   29 1
    31   20   22 1
    32   21   23 1
    33   23   34 1
    34   23   35 2
    35   24   26 1
    36   24   31 2
    37   24   32 1
    38   27   33 1
    39   27   36 2
    40   28   31 1
    41   29   32 2
    42   33   39 1
    43   33   40 1
    44   33   41 1
    45   35   36 1
    46   37   42 1
    47   38   43 1
    48    7   44 1
    49    8   45 1
    50   17   46 1
    51   18   47 1
    52   20   48 1
    53   22   49 1
    54   25   50 1
    55   25   51 1
    56   25   52 1
    57   28   53 1
    58   29   54 1
    59   30   55 1
    60   30   56 1
    61   30   57 1
    62   31   58 1
    63   32   59 1
    64   34   60 1
    65   35   61 1
    66   36   62 1
    67   37   63 1
    68   37   64 1
    69   38   65 1
    70   38   66 1
    71   39   67 1
    72   39   68 1
    73   39   69 1
    74   40   70 1
    75   40   71 1
    76   40   72 1
    77   41   73 1
    78   41   74 1
    79   41   75 1
    80   42   76 1
    81   42   77 1
    82   43   78 1
    83   43   79 1
@<TRIPOS>PROPERTY_DATA
  Total_Score	| 10.2376
  Crash		| -0.7147
  Polar		| 1.8998
  FragIndex	| 1
  FragRMSD	| 0.568

