@<TRIPOS>MOLECULE
BindingDB_50334345
 34 35 0 0 0
SMALL
NO_CHARGES


@<TRIPOS>ATOM
1    C        -3.9759    2.2074   16.1584  C     
2    C        -3.1610    3.1381   15.4870  C     
3    C        -3.7181    4.3127   14.9448  C     
4    C        -5.1103    4.5322   15.0574  C     
5    C        -5.9313    3.5872   15.7030  C     
6    C        -5.3660    2.4192   16.2528  C     
7    S        -6.3590    1.2524   17.0771  S     
8    N        -8.0157    1.4859   16.9635  N     
9    O        -6.1206   -0.1499   16.3685  O     
10   O        -5.9270    1.0468   18.5930  O     
11   N        -2.9050    5.1784   14.2768  N     
12   C        -2.6934    6.4451   14.5748  C     
13   N        -1.8922    7.1138   13.7629  N     
14   O        -3.2076    6.9724   15.5562  O     
15   C        -1.3876    8.3611   13.9617  C     
16   C        -0.6683    8.6942   15.1335  C     
17   C        -0.1055    9.9742   15.2871  C     
18   C        -0.2637   10.9434   14.2731  C     
19   C        -0.9776   10.6126   13.1002  C     
20   C        -1.5129    9.3211   12.9365  C     
21   C         0.2282   12.1391   14.4195  C     
22   N         0.6591   13.1981   14.5422  N     
23   H        -3.5479    1.3765   16.5731  H     
24   H        -2.1516    2.9687   15.4293  H     
25   H        -5.5326    5.3712   14.6543  H     
26   H        -6.9360    3.7628   15.7633  H     
27   H        -8.5400    0.9069   16.3916  H     
28   H        -8.4005    2.3107   17.2874  H     
29   H        -2.3537    4.8004   13.5624  H     
30   H        -1.6746    6.6875   12.9137  H     
31   H        -0.5275    7.9934   15.8670  H     
32   H         0.4159   10.1856   16.1442  H     
33   H        -1.1157   11.3055   12.3574  H     
34   H        -2.0273    9.0982   12.0796  H     
@<TRIPOS>BOND
     1    1    2 2
     2    1    6 1
     3    2    3 1
     4    3    4 2
     5    3   11 1
     6    4    5 1
     7    5    6 2
     8    6    7 1
     9    7    8 am
    10    7    9 2
    11    7   10 2
    12   11   12 am
    13   12   13 am
    14   12   14 2
    15   13   15 1
    16   15   16 2
    17   15   20 1
    18   16   17 1
    19   17   18 2
    20   18   19 1
    21   18   21 1
    22   19   20 2
    23   21   22 3
    24    1   23 1
    25    2   24 1
    26    4   25 1
    27    5   26 1
    28    8   27 1
    29    8   28 1
    30   11   29 1
    31   13   30 1
    32   16   31 1
    33   17   32 1
    34   19   33 1
    35   20   34 1
@<TRIPOS>PROPERTY_DATA
  Total_Score	| 4.2851
  Crash		| -1.2711
  Polar		| 2.2160
  FragIndex	| 1
  FragRMSD	| 1.115

