@<TRIPOS>MOLECULE
BindingDB_50334343
 36 37 0 0 0
SMALL
NO_CHARGES


@<TRIPOS>ATOM
1    C        -5.8563    3.5859   15.5623  C     
2    C        -5.0866    4.6099   14.9795  C     
3    C        -3.6692    4.5452   14.9794  C     
4    C        -3.0603    3.4038   15.5486  C     
5    C        -3.8247    2.3809   16.1299  C     
6    C        -5.2287    2.4693   16.1508  C     
7    S        -6.1380    1.2344   16.9633  S     
8    N        -7.7719    1.5647   17.1198  N     
9    O        -6.0969   -0.0144   15.9814  O     
10   O        -5.4086    0.7716   18.2989  O     
11   N        -2.8025    5.4722   14.4705  N     
12   C        -2.9982    6.6919   13.9820  C     
13   N        -1.9023    7.3147   13.5730  N     
14   O        -4.0954    7.2357   13.9581  O     
15   C        -1.7849    8.6183   12.9878  C     
16   C        -1.1452    9.5909   13.9115  C     
17   C         0.0554    9.2634   14.5833  C     
18   C         0.6909   10.2041   15.4242  C     
19   C         0.1521   11.4938   15.5728  C     
20   C        -1.0221   11.8462   14.8833  C     
21   C        -1.6736   10.8988   14.0678  C     
22   H        -6.8735    3.6694   15.5539  H     
23   H        -5.5765    5.3953   14.5560  H     
24   H        -2.0387    3.3170   15.5587  H     
25   H        -3.3453    1.5816   16.5464  H     
26   H        -8.4195    0.8870   16.8344  H     
27   H        -8.0596    2.4767   17.2370  H     
28   H        -1.8739    5.1913   14.4822  H     
29   H        -1.0777    6.8203   13.6777  H     
30   H        -1.1399    8.5148   12.1171  H     
31   H        -2.7527    8.9809   12.6261  H     
32   H         0.4810    8.3423   14.4770  H     
33   H         1.5420    9.9494   15.9310  H     
34   H         0.6094   12.1710   16.1849  H     
35   H        -1.4071   12.7845   14.9838  H     
36   H        -2.5232   11.1783   13.5785  H     
@<TRIPOS>BOND
     1    1    2 2
     2    1    6 1
     3    2    3 1
     4    3    4 2
     5    3   11 1
     6    4    5 1
     7    5    6 2
     8    6    7 1
     9    7    8 am
    10    7    9 2
    11    7   10 2
    12   11   12 am
    13   12   13 am
    14   12   14 2
    15   13   15 1
    16   15   16 1
    17   16   17 2
    18   16   21 1
    19   17   18 1
    20   18   19 2
    21   19   20 1
    22   20   21 2
    23    1   22 1
    24    2   23 1
    25    4   24 1
    26    5   25 1
    27    8   26 1
    28    8   27 1
    29   11   28 1
    30   13   29 1
    31   15   30 1
    32   15   31 1
    33   17   32 1
    34   18   33 1
    35   19   34 1
    36   20   35 1
    37   21   36 1
@<TRIPOS>PROPERTY_DATA
  Total_Score	| 4.5349
  Crash		| -1.3090
  Polar		| 2.7182
  FragIndex	| 1
  FragRMSD	| 1.129

