@<TRIPOS>MOLECULE
BindingDB_50334363
 45 46 0 0 0
SMALL
NO_CHARGES


@<TRIPOS>ATOM
1    C        -3.8669    2.6180   15.9442  C     
2    C        -3.2620    3.7565   15.3864  C     
3    C        -4.0473    4.8695   14.9921  C     
4    C        -5.4509    4.8220   15.2299  C     
5    C        -6.0508    3.6814   15.7866  C     
6    C        -5.2600    2.5773   16.1499  C     
7    S        -5.9989    1.1901   16.8853  S     
8    N        -7.6476    1.3427   17.1093  N     
9    O        -5.8316   -0.0088   15.8554  O     
10   O        -5.2355    0.7441   18.2072  O     
11   N        -3.3581    5.9047   14.4213  N     
12   C        -3.7994    6.9064   13.6728  C     
13   N        -3.0181    7.8017   13.0983  N     
14   O        -4.9760    7.0308   13.3738  O     
15   C        -1.6662    7.8923   13.1769  C     
16   C        -1.0539    8.5607   14.2581  C     
17   C         0.3480    8.6586   14.3130  C     
18   C         1.1562    8.1116   13.2762  C     
19   C         0.5177    7.5244   12.1565  C     
20   C        -0.8798    7.3999   12.1126  C     
21   C         2.6462    8.0645   13.3741  C     
22   C         3.2543    6.7873   12.7123  C     
23   C         4.3893    6.0697   13.5012  C     
24   C         4.6640    4.6535   12.9446  C     
25   H        -3.2843    1.8280   16.2203  H     
26   H        -2.2386    3.7578   15.2575  H     
27   H        -6.0561    5.6161   15.0267  H     
28   H        -7.0665    3.6764   15.9461  H     
29   H        -8.2552    0.8392   16.5386  H     
30   H        -7.9738    2.1442   17.5420  H     
31   H        -2.3916    5.8582   14.5312  H     
32   H        -3.4677    8.3961   12.4650  H     
33   H        -1.6237    8.9771   14.9999  H     
34   H         0.7546    9.1344   15.1177  H     
35   H         1.0729    7.1138   11.3989  H     
36   H        -1.3175    6.9230   11.3280  H     
37   H         3.0320    8.9601   12.8868  H     
38   H         2.9584    8.1145   14.4172  H     
39   H         2.4614    6.0416   12.5318  H     
40   H         3.6517    7.0744   11.7399  H     
41   H         5.3133    6.6532   13.4654  H     
42   H         4.0864    5.9834   14.5608  H     
43   H         3.7279    4.0923   12.8775  H     
44   H         5.3485    4.1137   13.5935  H     
45   H         5.1176    4.7116   11.9524  H     
@<TRIPOS>BOND
     1    1    2 2
     2    1    6 1
     3    2    3 1
     4    3    4 2
     5    3   11 1
     6    4    5 1
     7    5    6 2
     8    6    7 1
     9    7    8 am
    10    7    9 2
    11    7   10 2
    12   11   12 am
    13   12   13 am
    14   12   14 2
    15   13   15 1
    16   15   16 2
    17   15   20 1
    18   16   17 1
    19   17   18 2
    20   18   19 1
    21   18   21 1
    22   19   20 2
    23   21   22 1
    24   22   23 1
    25   23   24 1
    26    1   25 1
    27    2   26 1
    28    4   27 1
    29    5   28 1
    30    8   29 1
    31    8   30 1
    32   11   31 1
    33   13   32 1
    34   16   33 1
    35   17   34 1
    36   19   35 1
    37   20   36 1
    38   21   37 1
    39   21   38 1
    40   22   39 1
    41   22   40 1
    42   23   41 1
    43   23   42 1
    44   24   43 1
    45   24   44 1
    46   24   45 1
@<TRIPOS>PROPERTY_DATA
  Total_Score	| 5.6058
  Crash		| -2.2004
  Polar		| 2.6923
  FragIndex	| 1
  FragRMSD	| 1.310

