@<TRIPOS>MOLECULE
BindingDB_50334352
 36 37 0 0 0
SMALL
NO_CHARGES


@<TRIPOS>ATOM
1    C        -5.3358    2.5880   16.1764  C     
2    N        -7.8610    1.4883   17.0839  N     
3    O        -6.0656    0.0466   15.9030  O     
4    S        -6.2066    1.2714   16.9049  S     
5    C        -3.9396    2.4856   16.0222  C     
6    O        -5.4987    0.8091   18.2508  O     
7    C        -3.2050    3.5627   15.4985  C     
8    C        -3.8477    4.7628   15.1050  C     
9    C        -5.2466    4.8571   15.2777  C     
10   C        -5.9878    3.7802   15.7998  C     
11   N        -3.2013    5.8702   14.6164  N     
12   C        -2.0436    5.9412   13.9663  C     
13   O        -1.4373    4.9405   13.6204  O     
14   N        -1.4830    7.0720   13.5724  N     
15   C        -1.9668    8.4101   13.7527  C     
16   C        -1.9255    8.8939   15.2188  C     
17   C        -0.4502    9.2640   15.4651  C     
18   C         0.1214    9.6566   14.0825  C     
19   C        -1.0138    9.4114   13.0632  C     
20   H        -8.4615    0.8656   16.6470  H     
21   H        -8.1915    2.3701   17.3153  H     
22   H        -3.4435    1.6388   16.3134  H     
23   H        -2.1902    3.4668   15.4467  H     
24   H        -5.7403    5.7156   15.0184  H     
25   H        -6.9991    3.8823   15.9164  H     
26   H        -3.6729    6.7109   14.7279  H     
27   H        -0.6499    6.9807   13.0822  H     
28   H        -2.9731    8.4918   13.3332  H     
29   H        -2.5524    9.7841   15.3249  H     
30   H        -2.2743    8.1377   15.9243  H     
31   H        -0.3594   10.0807   16.1862  H     
32   H         0.0775    8.3929   15.8580  H     
33   H         0.4282   10.7063   14.0692  H     
34   H         0.9896    9.0352   13.8400  H     
35   H        -0.6326    9.0375   12.1078  H     
36   H        -1.5453   10.3495   12.8748  H     
@<TRIPOS>BOND
     1    1    4 1
     2    1    5 2
     3    1   10 1
     4    2    4 am
     5    3    4 2
     6    4    6 2
     7    5    7 1
     8    7    8 2
     9    8    9 1
    10    8   11 1
    11    9   10 2
    12   11   12 am
    13   12   13 2
    14   12   14 am
    15   14   15 1
    16   15   16 1
    17   15   19 1
    18   16   17 1
    19   17   18 1
    20   18   19 1
    21    2   20 1
    22    2   21 1
    23    5   22 1
    24    7   23 1
    25    9   24 1
    26   10   25 1
    27   11   26 1
    28   14   27 1
    29   15   28 1
    30   16   29 1
    31   16   30 1
    32   17   31 1
    33   17   32 1
    34   18   33 1
    35   18   34 1
    36   19   35 1
    37   19   36 1
@<TRIPOS>PROPERTY_DATA
  Total_Score	| 4.8970
  Crash		| -1.5183
  Polar		| 2.6620
  FragIndex	| 1
  FragRMSD	| 1.317

