@<TRIPOS>MOLECULE
BindingDB_50334344
 46 48 0 0 0
SMALL
NO_CHARGES


@<TRIPOS>ATOM
1    C        -3.8503    2.4013   16.0486  C     
2    C        -3.1165    3.4693   15.5022  C     
3    C        -3.7529    4.6683   15.1136  C     
4    C        -5.1563    4.7575   15.2770  C     
5    C        -5.8959    3.6866   15.8174  C     
6    C        -5.2422    2.5047   16.2135  C     
7    S        -6.1100    1.1778   16.9387  S     
8    N        -7.7321    1.4621   17.2480  N     
9    O        -6.0418   -0.0123   15.8908  O     
10   O        -5.3458    0.7398   18.2637  O     
11   N        -2.9096    5.6447   14.6222  N     
12   C        -3.1528    6.8692   14.1694  C     
13   N        -2.2087    7.6986   13.7398  N     
14   O        -4.2880    7.3136   14.0778  O     
15   C        -0.7793    7.4932   13.6932  C     
16   C        -0.4462    7.0581   12.3065  C     
17   C        -0.0165    8.6914   14.1796  C     
18   C         1.1706    9.1512   13.5416  C     
19   C         1.9065   10.2350   14.0594  C     
20   C         1.4838   10.8711   15.2395  C     
21   C         0.3324   10.4072   15.9029  C     
22   C        -0.4013    9.3261   15.3820  C     
23   C        -0.7716    7.8730   11.1942  C     
24   C        -0.3932    7.5018    9.8911  C     
25   C         0.3000    6.2960    9.6790  C     
26   C         0.6416    5.4825   10.7701  C     
27   C         0.2596    5.8493   12.0745  C     
28   H        -3.3482    1.5546   16.3395  H     
29   H        -2.1009    3.3658   15.4047  H     
30   H        -5.6716    5.6017   15.0186  H     
31   H        -6.9083    3.7833   15.9325  H     
32   H        -8.2913    0.7429   17.5733  H     
33   H        -8.0780    2.3670   17.2249  H     
34   H        -1.9781    5.3818   14.6096  H     
35   H        -2.5254    8.5474   13.3831  H     
36   H        -0.5330    6.6889   14.3910  H     
37   H         1.5400    8.6811   12.7115  H     
38   H         2.7701   10.5372   13.6086  H     
39   H         2.0307   11.6425   15.6365  H     
40   H         0.0549   10.8383   16.7856  H     
41   H        -1.2095    8.9944   15.9048  H     
42   H        -1.2628    8.7596   11.3298  H     
43   H        -0.6113    8.1145    9.1028  H     
44   H         0.5765    6.0271    8.7331  H     
45   H         1.1812    4.6244   10.6219  H     
46   H         0.5322    5.2510   12.8513  H     
@<TRIPOS>BOND
     1    1    2 2
     2    1    6 1
     3    2    3 1
     4    3    4 2
     5    3   11 1
     6    4    5 1
     7    5    6 2
     8    6    7 1
     9    7    8 am
    10    7    9 2
    11    7   10 2
    12   11   12 am
    13   12   13 am
    14   12   14 2
    15   13   15 1
    16   15   16 1
    17   15   17 1
    18   16   23 2
    19   16   27 1
    20   17   18 2
    21   17   22 1
    22   18   19 1
    23   19   20 2
    24   20   21 1
    25   21   22 2
    26   23   24 1
    27   24   25 2
    28   25   26 1
    29   26   27 2
    30    1   28 1
    31    2   29 1
    32    4   30 1
    33    5   31 1
    34    8   32 1
    35    8   33 1
    36   11   34 1
    37   13   35 1
    38   15   36 1
    39   18   37 1
    40   19   38 1
    41   20   39 1
    42   21   40 1
    43   22   41 1
    44   23   42 1
    45   24   43 1
    46   25   44 1
    47   26   45 1
    48   27   46 1
@<TRIPOS>PROPERTY_DATA
  Total_Score	| 4.2949
  Crash		| -2.2073
  Polar		| 2.7006
  FragIndex	| 1
  FragRMSD	| 1.415

