@<TRIPOS>MOLECULE
BindingDB_50334353
 39 40 0 0 0
SMALL
NO_CHARGES


@<TRIPOS>ATOM
1    C        -3.8221    2.3302   16.0175  C     
2    C        -3.1427    3.4164   15.4436  C     
3    C        -3.8369    4.5901   15.0815  C     
4    C        -5.2421    4.6342   15.2530  C     
5    C        -5.9266    3.5456   15.8286  C     
6    C        -5.2143    2.3924   16.2216  C     
7    S        -6.0194    1.0467   16.9667  S     
8    N        -7.6267    1.2047   17.4135  N     
9    O        -5.9407   -0.1980   15.9844  O     
10   O        -5.1966    0.5689   18.2411  O     
11   N        -3.0858    5.6071   14.5600  N     
12   C        -3.2015    6.9084   14.7947  C     
13   N        -2.3344    7.8473   14.4457  N     
14   O        -4.1380    7.3379   15.4546  O     
15   C        -1.0924    7.8579   13.8566  C     
16   C        -0.5723    6.9338   12.9165  C     
17   C         0.7307    7.0699   12.3868  C     
18   C         1.5514    8.1192   12.8535  C     
19   C         1.0782    9.0374   13.8148  C     
20   C        -0.2443    8.9050   14.2891  C     
21   C         1.2157    6.1023   11.3717  C     
22   C         1.9702   10.1071   14.3167  C     
23   H        -3.2887    1.4999   16.2959  H     
24   H        -2.1282    3.3560   15.3194  H     
25   H        -5.7825    5.4495   14.9591  H     
26   H        -6.9427    3.5940   15.9561  H     
27   H        -8.3247    1.0947   16.7459  H     
28   H        -7.8393    1.5529   18.2932  H     
29   H        -2.3153    5.3226   14.0625  H     
30   H        -2.6312    8.7332   14.7177  H     
31   H        -1.1232    6.1402   12.6028  H     
32   H         2.5077    8.2105   12.4991  H     
33   H        -0.5895    9.5790   14.9815  H     
34   H         1.2070    5.0963   11.7894  H     
35   H         2.2325    6.3276   11.0424  H     
36   H         0.5605    6.1294   10.4998  H     
37   H         2.8522    9.6651   14.7788  H     
38   H         1.4793   10.7405   15.0578  H     
39   H         2.2880   10.7381   13.4850  H     
@<TRIPOS>BOND
     1    1    2 2
     2    1    6 1
     3    2    3 1
     4    3    4 2
     5    3   11 1
     6    4    5 1
     7    5    6 2
     8    6    7 1
     9    7    8 am
    10    7    9 2
    11    7   10 2
    12   11   12 am
    13   12   13 am
    14   12   14 2
    15   13   15 1
    16   15   16 2
    17   15   20 1
    18   16   17 1
    19   17   18 2
    20   17   21 1
    21   18   19 1
    22   19   20 2
    23   19   22 1
    24    1   23 1
    25    2   24 1
    26    4   25 1
    27    5   26 1
    28    8   27 1
    29    8   28 1
    30   11   29 1
    31   13   30 1
    32   16   31 1
    33   18   32 1
    34   20   33 1
    35   21   34 1
    36   21   35 1
    37   21   36 1
    38   22   37 1
    39   22   38 1
    40   22   39 1
@<TRIPOS>PROPERTY_DATA
  Total_Score	| 4.4922
  Crash		| -1.4189
  Polar		| 2.5553
  FragIndex	| 1
  FragRMSD	| 1.242

