@<TRIPOS>MOLECULE
BindingDB_16654
 33 34 0 0 0
SMALL
NO_CHARGES


@<TRIPOS>ATOM
1    C        -5.2810    2.5175   16.1280  C     
2    C        -3.8927    2.4655   15.8861  C     
3    C        -3.2049    3.6220   15.4712  C     
4    C        -3.8811    4.8590   15.3157  C     
5    C        -5.2851    4.8758   15.5100  C     
6    C        -5.9810    3.7241   15.9142  C     
7    S        -6.0944    1.1405   16.8140  S     
8    O        -5.9455   -0.0849   15.8155  O     
9    O        -5.3828    0.6874   18.1622  O     
10   N        -7.7515    1.3084   17.0108  N     
11   N        -3.1101    5.9236   14.9039  N     
12   O        -4.1826    7.6532   15.8407  O     
13   C        -3.2998    7.2282   15.1066  C     
14   N        -2.5616    8.1832   14.5726  N     
15   C        -1.4660    8.0461   13.7920  C     
16   C        -0.1850    8.2827   14.3333  C     
17   C        -1.6176    7.8581   12.4041  C     
18   C        -0.4888    7.8695   11.5651  C     
19   C         0.7893    8.1013   12.1098  C     
20   C         0.9398    8.3185   13.4901  C     
21   H        -3.3713    1.5956   16.0228  H     
22   H        -2.1964    3.5609   15.3010  H     
23   H        -5.8359    5.7172   15.3568  H     
24   H        -6.9932    3.7837   16.0707  H     
25   H        -8.3396    0.7748   16.4571  H     
26   H        -8.0909    2.1354   17.3808  H     
27   H        -2.3086    5.6887   14.4180  H     
28   H        -2.8601    9.0922   14.7235  H     
29   H        -0.0744    8.4757   15.3306  H     
30   H        -2.5467    7.7272   11.9970  H     
31   H        -0.6002    7.7230   10.5604  H     
32   H         1.6079    8.1194   11.4953  H     
33   H         1.8667    8.5060   13.8764  H     
@<TRIPOS>BOND
     1    1    2 1
     2    1    6 2
     3    1    7 1
     4    2    3 2
     5    3    4 1
     6    4    5 2
     7    4   11 1
     8    5    6 1
     9    7    8 2
    10    7    9 2
    11    7   10 am
    12   11   13 am
    13   12   13 2
    14   13   14 am
    15   14   15 1
    16   15   16 1
    17   15   17 2
    18   16   20 2
    19   17   18 1
    20   18   19 2
    21   19   20 1
    22    2   21 1
    23    3   22 1
    24    5   23 1
    25    6   24 1
    26   10   25 1
    27   10   26 1
    28   11   27 1
    29   14   28 1
    30   16   29 1
    31   17   30 1
    32   18   31 1
    33   19   32 1
    34   20   33 1
@<TRIPOS>PROPERTY_DATA
  Total_Score	| 5.0509
  Crash		| -1.1082
  Polar		| 2.5100
  FragIndex	| 1
  FragRMSD	| 1.458

