@<TRIPOS>MOLECULE
BindingDB_54376
 33 34 0 0 0
SMALL
NO_CHARGES


@<TRIPOS>ATOM
1    Cl        0.6818   11.4640   15.7932  Cl    
2    S        -6.0833    1.1064   16.9510  S     
3    O        -5.2109    0.6811   18.2117  O     
4    O        -5.9719   -0.1395   15.9780  O     
5    O        -3.7032    5.5907   12.6614  O     
6    N        -3.5059    5.9999   14.8313  N     
7    N        -2.6755    7.4105   13.1492  N     
8    N        -7.6755    1.2064   17.4673  N     
9    C        -5.3614    2.5183   16.2510  C     
10   C        -4.1162    4.8625   15.2673  C     
11   C        -3.9791    2.5284   15.9843  C     
12   C        -6.1291    3.6708   15.9850  C     
13   C        -3.3606    3.6904   15.4871  C     
14   C        -5.5056    4.8419   15.5069  C     
15   C        -1.9713    8.3472   13.8497  C     
16   C        -3.2927    6.3161   13.5593  C     
17   C        -1.2251    8.0338   15.0036  C     
18   C        -1.9097    9.6628   13.3281  C     
19   C        -0.4221    9.0155   15.6262  C     
20   C        -1.1017   10.6394   13.9446  C     
21   C        -0.3415   10.3154   15.0822  C     
22   H        -3.3040    6.6684   15.5022  H     
23   H        -2.7270    7.5755   12.1923  H     
24   H        -8.4023    1.0917   16.8321  H     
25   H        -7.8680    1.3633   18.4065  H     
26   H        -3.4087    1.6984   16.1645  H     
27   H        -7.1380    3.6816   16.1595  H     
28   H        -2.3508    3.6875   15.3143  H     
29   H        -6.0724    5.6744   15.3351  H     
30   H        -1.2095    7.0824   15.3726  H     
31   H        -2.4354    9.9066   12.4860  H     
32   H         0.1326    8.7736   16.4484  H     
33   H        -1.0465   11.5725   13.5316  H     
@<TRIPOS>BOND
     1    1   21 1
     2    2    3 2
     3    2    4 2
     4    2    8 am
     5    2    9 1
     6    5   16 2
     7    6   10 1
     8    6   16 am
     9    7   15 1
    10    7   16 am
    11    9   11 2
    12    9   12 1
    13   10   13 2
    14   10   14 1
    15   11   13 1
    16   12   14 2
    17   15   17 2
    18   15   18 1
    19   17   19 1
    20   18   20 2
    21   19   21 2
    22   20   21 1
    23    6   22 1
    24    7   23 1
    25    8   24 1
    26    8   25 1
    27   11   26 1
    28   12   27 1
    29   13   28 1
    30   14   29 1
    31   17   30 1
    32   18   31 1
    33   19   32 1
    34   20   33 1
@<TRIPOS>PROPERTY_DATA
  Total_Score	| 5.1509
  Crash		| -1.5778
  Polar		| 2.7743
  FragIndex	| 1
  FragRMSD	| 1.358

