@<TRIPOS>MOLECULE
BindingDB_50334356
 33 34 0 0 0
SMALL
NO_CHARGES


@<TRIPOS>ATOM
1    C        -3.9142    2.4846   16.0515  C     
2    C        -3.2129    3.5967   15.5601  C     
3    C        -3.8899    4.7919   15.2368  C     
4    C        -5.2998    4.8236   15.3556  C     
5    C        -6.0086    3.7101   15.8352  C     
6    C        -5.3138    2.5430   16.2011  C     
7    S        -6.1444    1.1826   16.8943  S     
8    N        -7.8140    1.3018   17.0407  N     
9    O        -5.9632    0.0161   15.8223  O     
10   O        -5.3979    0.6539   18.1988  O     
11   N        -3.1406    5.8551   14.8238  N     
12   C        -3.3370    7.1514   15.0366  C     
13   N        -2.4799    8.0944   14.6704  N     
14   O        -4.2520    7.5494   15.7357  O     
15   C        -1.3370    7.9515   13.9373  C     
16   C        -1.2951    7.2542   12.7067  C     
17   C        -0.0911    7.1420   11.9910  C     
18   C         1.0821    7.7281   12.4939  C     
19   C         1.0477    8.4469   13.6997  C     
20   C        -0.1611    8.5687   14.4125  C     
21   I         2.8657    7.5052   11.4937  I     
22   H        -3.3965    1.6446   16.3263  H     
23   H        -2.1919    3.5389   15.4764  H     
24   H        -5.8248    5.6582   15.0818  H     
25   H        -7.0266    3.7780   15.9416  H     
26   H        -8.3613    0.6717   16.5388  H     
27   H        -8.2024    2.1293   17.3305  H     
28   H        -2.2783    5.6198   14.4277  H     
29   H        -2.6331    8.9751   15.0492  H     
30   H        -2.1507    6.8449   12.3185  H     
31   H        -0.0700    6.6197   11.1110  H     
32   H         1.9057    8.8633   14.0691  H     
33   H        -0.1696    9.0902   15.2942  H     
@<TRIPOS>BOND
     1    1    2 2
     2    1    6 1
     3    2    3 1
     4    3    4 2
     5    3   11 1
     6    4    5 1
     7    5    6 2
     8    6    7 1
     9    7    8 am
    10    7    9 2
    11    7   10 2
    12   11   12 am
    13   12   13 am
    14   12   14 2
    15   13   15 1
    16   15   16 2
    17   15   20 1
    18   16   17 1
    19   17   18 2
    20   18   19 1
    21   18   21 1
    22   19   20 2
    23    1   22 1
    24    2   23 1
    25    4   24 1
    26    5   25 1
    27    8   26 1
    28    8   27 1
    29   11   28 1
    30   13   29 1
    31   16   30 1
    32   17   31 1
    33   19   32 1
    34   20   33 1
@<TRIPOS>PROPERTY_DATA
  Total_Score	| 5.0478
  Crash		| -1.3158
  Polar		| 2.5704
  FragIndex	| 1
  FragRMSD	| 1.343

