@<TRIPOS>MOLECULE
BindingDB_50334355
 33 34 0 0 0
SMALL
NO_CHARGES


@<TRIPOS>ATOM
1    C        -3.9070    2.4387   15.9797  C     
2    C        -3.2020    3.5570   15.4992  C     
3    C        -3.8696    4.7754   15.2384  C     
4    C        -5.2725    4.8225   15.4224  C     
5    C        -5.9811    3.7092   15.9008  C     
6    C        -5.2961    2.5122   16.1960  C     
7    S        -6.1213    1.1438   16.8861  S     
8    N        -7.7923    1.2640   17.0091  N     
9    O        -5.9404   -0.0176   15.8162  O     
10   O        -5.3710    0.6175   18.1893  O     
11   N        -3.1144    5.8336   14.8137  N     
12   C        -3.3333    7.1367   14.9684  C     
13   N        -2.4941    8.0841   14.5794  N     
14   O        -4.2746    7.5531   15.6261  O     
15   C        -1.3035    7.9413   13.9348  C     
16   C        -0.1877    8.6426   14.4494  C     
17   C         1.0660    8.5455   13.8168  C     
18   C         1.2086    7.7582   12.6604  C     
19   C         0.1044    7.0681   12.1361  C     
20   C        -1.1445    7.1566   12.7736  C     
21   Br        2.8670    7.6170   11.8249  Br    
22   H        -3.3965    1.5716   16.1857  H     
23   H        -2.1924    3.4753   15.3665  H     
24   H        -5.8049    5.6652   15.2011  H     
25   H        -6.9933    3.7800   16.0420  H     
26   H        -8.3448    0.6419   16.5017  H     
27   H        -8.1948    2.0560   17.3899  H     
28   H        -2.2483    5.5952   14.4387  H     
29   H        -2.7109    8.9887   14.8656  H     
30   H        -0.2805    9.2173   15.2961  H     
31   H         1.8751    9.0333   14.2077  H     
32   H         0.2056    6.4982   11.2978  H     
33   H        -1.9516    6.6714   12.3793  H     
@<TRIPOS>BOND
     1    1    2 2
     2    1    6 1
     3    2    3 1
     4    3    4 2
     5    3   11 1
     6    4    5 1
     7    5    6 2
     8    6    7 1
     9    7    8 am
    10    7    9 2
    11    7   10 2
    12   11   12 am
    13   12   13 am
    14   12   14 2
    15   13   15 1
    16   15   16 2
    17   15   20 1
    18   16   17 1
    19   17   18 2
    20   18   19 1
    21   18   21 1
    22   19   20 2
    23    1   22 1
    24    2   23 1
    25    4   24 1
    26    5   25 1
    27    8   26 1
    28    8   27 1
    29   11   28 1
    30   13   29 1
    31   16   30 1
    32   17   31 1
    33   19   32 1
    34   20   33 1
@<TRIPOS>PROPERTY_DATA
  Total_Score	| 4.8106
  Crash		| -1.3932
  Polar		| 2.5234
  FragIndex	| 1
  FragRMSD	| 1.325

