@<TRIPOS>MOLECULE
BindingDB_50334362
 42 43 0 0 0
SMALL
NO_CHARGES


@<TRIPOS>ATOM
1    C        -3.7832    2.4254   15.9265  C     
2    C        -3.0540    3.5041   15.3879  C     
3    C        -3.6845    4.7279   15.0511  C     
4    C        -5.0920    4.8197   15.2828  C     
5    C        -5.8173    3.7436   15.8226  C     
6    C        -5.1761    2.5336   16.1448  C     
7    S        -6.0240    1.2104   16.8835  S     
8    N        -7.6054    1.5277   17.3305  N     
9    O        -5.9901   -0.0163   15.8793  O     
10   O        -5.1876    0.8096   18.1737  O     
11   N        -2.8570    5.7136   14.5481  N     
12   C        -3.1149    6.9548   14.1186  C     
13   N        -2.1871    7.8201   13.7292  N     
14   O        -4.2400    7.4199   14.0866  O     
15   C        -0.8637    7.6165   13.5125  C     
16   C         0.0420    8.6411   13.8892  C     
17   C         1.4159    8.5113   13.6057  C     
18   C         1.9397    7.3870   12.9064  C     
19   C         0.9865    6.4327   12.4323  C     
20   C        -0.3793    6.5367   12.7526  C     
21   C         3.4029    7.1573   12.6284  C     
22   C         4.3823    8.2871   13.0983  C     
23   C         3.9173    5.7960   13.2118  C     
24   H        -3.2991    1.5541   16.1534  H     
25   H        -2.0467    3.3960   15.2458  H     
26   H        -5.6066    5.6787   15.1176  H     
27   H        -6.8272    3.8545   15.9656  H     
28   H        -8.0637    0.9056   17.9132  H     
29   H        -8.0083    2.3877   17.1139  H     
30   H        -1.9206    5.4771   14.5194  H     
31   H        -2.4890    8.7273   13.5641  H     
32   H        -0.3088    9.4649   14.3948  H     
33   H         2.0241    9.2683   13.9319  H     
34   H         1.2829    5.6490   11.8507  H     
35   H        -1.0438    5.8384   12.3952  H     
36   H         3.5159    7.1093   11.5352  H     
37   H         4.1066    9.2397   12.6336  H     
38   H         5.4045    8.0875   12.8018  H     
39   H         4.3412    8.3991   14.1920  H     
40   H         3.8074    5.7497   14.3069  H     
41   H         4.9666    5.6340   12.9500  H     
42   H         3.3570    4.9687   12.7728  H     
@<TRIPOS>BOND
     1    1    2 2
     2    1    6 1
     3    2    3 1
     4    3    4 2
     5    3   11 1
     6    4    5 1
     7    5    6 2
     8    6    7 1
     9    7    8 am
    10    7    9 2
    11    7   10 2
    12   11   12 am
    13   12   13 am
    14   12   14 2
    15   13   15 1
    16   15   16 2
    17   15   20 1
    18   16   17 1
    19   17   18 2
    20   18   19 1
    21   18   21 1
    22   19   20 2
    23   21   22 1
    24   21   23 1
    25    1   24 1
    26    2   25 1
    27    4   26 1
    28    5   27 1
    29    8   28 1
    30    8   29 1
    31   11   30 1
    32   13   31 1
    33   16   32 1
    34   17   33 1
    35   19   34 1
    36   20   35 1
    37   21   36 1
    38   22   37 1
    39   22   38 1
    40   22   39 1
    41   23   40 1
    42   23   41 1
    43   23   42 1
@<TRIPOS>PROPERTY_DATA
  Total_Score	| 4.1581
  Crash		| -2.1092
  Polar		| 2.9242
  FragIndex	| 1
  FragRMSD	| 1.450

