@<TRIPOS>MOLECULE
BindingDB_50334354
 33 34 0 0 0
SMALL
NO_CHARGES


@<TRIPOS>ATOM
1    C        -5.2844    2.5658   16.1410  C     
2    N        -7.7695    1.4356   17.1020  N     
3    O        -6.0328    0.0370   15.7753  O     
4    S        -6.1296    1.2063   16.8416  S     
5    C        -3.8886    2.4996   15.9924  C     
6    O        -5.3757    0.7176   18.1514  O     
7    C        -3.1659    3.6115   15.5164  C     
8    C        -3.8305    4.8218   15.2195  C     
9    C        -5.2371    4.8628   15.3352  C     
10   C        -5.9607    3.7449   15.7913  C     
11   N        -3.0842    5.8923   14.8057  N     
12   C        -3.2572    7.1691   15.1323  C     
13   O        -4.0989    7.5000   15.9551  O     
14   N        -2.5344    8.1667   14.6453  N     
15   C        -1.5725    8.0791   13.6952  C     
16   C        -1.9229    8.0936   12.3286  C     
17   C        -0.9233    8.0803   11.3376  C     
18   C         0.4358    8.0640   11.7076  C     
19   F         1.3596    8.0527   10.7860  F     
20   C         0.7931    8.0671   13.0716  C     
21   C        -0.2086    8.0793   14.0600  C     
22   H        -8.3909    0.7410   16.8281  H     
23   H        -8.1068    2.3410   17.1974  H     
24   H        -3.3682    1.6510   16.2572  H     
25   H        -2.1466    3.5491   15.4185  H     
26   H        -5.7618    5.6982   15.0819  H     
27   H        -6.9760    3.8107   15.8910  H     
28   H        -2.2981    5.6877   14.2656  H     
29   H        -2.7547    9.0592   14.9559  H     
30   H        -2.9100    8.1205   12.0551  H     
31   H        -1.1901    8.0929   10.3504  H     
32   H         1.7775    8.0670   13.3385  H     
33   H         0.0576    8.0920   15.0463  H     
@<TRIPOS>BOND
     1    1    4 1
     2    1    5 1
     3    1   10 2
     4    2    4 am
     5    3    4 2
     6    4    6 2
     7    5    7 2
     8    7    8 1
     9    8    9 2
    10    8   11 1
    11    9   10 1
    12   11   12 am
    13   12   13 2
    14   12   14 am
    15   14   15 1
    16   15   16 2
    17   15   21 1
    18   16   17 1
    19   17   18 2
    20   18   19 1
    21   18   20 1
    22   20   21 2
    23    2   22 1
    24    2   23 1
    25    5   24 1
    26    7   25 1
    27    9   26 1
    28   10   27 1
    29   11   28 1
    30   14   29 1
    31   16   30 1
    32   17   31 1
    33   20   32 1
    34   21   33 1
@<TRIPOS>PROPERTY_DATA
  Total_Score	| 5.1420
  Crash		| -0.9778
  Polar		| 2.6923
  FragIndex	| 1
  FragRMSD	| 1.375

