@<TRIPOS>MOLECULE
BindingDB_16656
 39 40 0 0 0
SMALL
NO_CHARGES


@<TRIPOS>ATOM
1    C         0.2591   11.5190   15.3013  C     
2    C         0.9977   10.3390   15.0672  C     
3    C         0.4741    9.3253   14.2454  C     
4    C        -0.7978    9.4606   13.6426  C     
5    C        -1.5401   10.6442   13.8853  C     
6    C        -1.0125   11.6666   14.7026  C     
7    S         0.9528   12.7818   16.2770  S     
8    O         1.7781   12.0882   17.4471  O     
9    O         1.9726   13.5941   15.3670  O     
10   N        -0.1037   13.8724   17.0022  N     
11   C        -1.2896    8.3802   12.7519  C     
12   N        -2.2855    6.3241   13.8832  N     
13   C        -1.1086    6.9520   13.3385  C     
14   C        -3.0949    6.8118   14.8074  C     
15   N        -4.0913    6.1311   15.3491  N     
16   O        -3.0278    7.9856   15.1324  O     
17   C        -4.3594    4.7954   15.3605  C     
18   C        -3.3654    3.7888   15.3865  C     
19   C        -5.7159    4.4002   15.4903  C     
20   C        -6.0712    3.0485   15.6425  C     
21   C        -5.0743    2.0597   15.6733  C     
22   C        -3.7134    2.4277   15.5572  C     
23   H         1.9224   10.2136   15.4778  H     
24   H         1.0206    8.4692   14.0908  H     
25   H        -2.4642   10.7717   13.4524  H     
26   H        -1.5662   12.5114   14.8588  H     
27   H         0.2473   14.4879   17.6639  H     
28   H        -1.0490   13.8884   16.7839  H     
29   H        -2.3421    8.5366   12.4792  H     
30   H        -0.7168    8.4475   11.8171  H     
31   H        -2.4655    5.4213   13.5660  H     
32   H        -0.7601    6.2926   12.5381  H     
33   H        -0.3241    6.9729   14.1183  H     
34   H        -4.7340    6.6673   15.8370  H     
35   H        -2.3767    4.0319   15.3182  H     
36   H        -6.4555    5.1007   15.4828  H     
37   H        -7.0569    2.7775   15.7365  H     
38   H        -5.3265    1.0710   15.7986  H     
39   H        -2.9918    1.7099   15.5976  H     
@<TRIPOS>BOND
     1    1    2 1
     2    1    6 2
     3    1    7 1
     4    2    3 2
     5    3    4 1
     6    4    5 2
     7    4   11 1
     8    5    6 1
     9    7    8 2
    10    7    9 2
    11    7   10 am
    12   11   13 1
    13   12   13 1
    14   12   14 am
    15   14   15 am
    16   14   16 2
    17   15   17 1
    18   17   18 1
    19   17   19 2
    20   18   22 2
    21   19   20 1
    22   20   21 2
    23   21   22 1
    24    2   23 1
    25    3   24 1
    26    5   25 1
    27    6   26 1
    28   10   27 1
    29   10   28 1
    30   11   29 1
    31   11   30 1
    32   12   31 1
    33   13   32 1
    34   13   33 1
    35   15   34 1
    36   18   35 1
    37   19   36 1
    38   20   37 1
    39   21   38 1
    40   22   39 1
@<TRIPOS>PROPERTY_DATA
  Total_Score	| 2.6318
  Crash		| -1.1178
  Polar		| 0.8833
  FragIndex	| 1
  FragRMSD	| 1.102

