@<TRIPOS>MOLECULE
BindingDB_50334346
 34 35 0 0 0
SMALL
NO_CHARGES


@<TRIPOS>ATOM
1    C        -3.9773    2.1973   16.1983  C     
2    C        -3.1233    3.1261   15.5732  C     
3    C        -3.6375    4.3312   15.0503  C     
4    C        -5.0291    4.5741   15.1301  C     
5    C        -5.8850    3.6367   15.7390  C     
6    C        -5.3585    2.4458   16.2791  C     
7    S        -6.3823    1.2966   17.0881  S     
8    N        -8.0293    1.6265   17.0461  N     
9    O        -6.2167   -0.0632   16.2759  O     
10   O        -5.8626    1.0106   18.5639  O     
11   N        -2.7486    5.1748   14.4508  N     
12   C        -2.6281    6.4794   14.6010  C     
13   N        -1.6617    7.0488   13.9075  N     
14   O        -3.3208    7.1258   15.3826  O     
15   C        -1.2382    8.3363   14.0001  C     
16   C        -0.6486    8.7526   15.2208  C     
17   C        -0.1126   10.0457   15.3440  C     
18   C        -0.1715   10.9381   14.2575  C     
19   C        -0.7677   10.5362   13.0460  C     
20   C        -1.2921    9.2316   12.9083  C     
21   C        -1.8371    8.8707   11.7795  C     
22   N        -2.3134    8.5373   10.7841  N     
23   H        -3.5717    1.3478   16.6007  H     
24   H        -2.1210    2.9315   15.5355  H     
25   H        -5.4298    5.4250   14.7330  H     
26   H        -6.8872    3.8372   15.7880  H     
27   H        -8.6310    0.9644   16.6773  H     
28   H        -8.3224    2.5454   17.1227  H     
29   H        -2.0469    4.7436   13.9336  H     
30   H        -1.1980    6.4891   13.2553  H     
31   H        -0.5847    8.1079   16.0113  H     
32   H         0.3253   10.3349   16.2212  H     
33   H         0.2177   11.8766   14.3518  H     
34   H        -0.8126   11.2102   12.2758  H     
@<TRIPOS>BOND
     1    1    2 2
     2    1    6 1
     3    2    3 1
     4    3    4 2
     5    3   11 1
     6    4    5 1
     7    5    6 2
     8    6    7 1
     9    7    8 am
    10    7    9 2
    11    7   10 2
    12   11   12 am
    13   12   13 am
    14   12   14 2
    15   13   15 1
    16   15   16 2
    17   15   20 1
    18   16   17 1
    19   17   18 2
    20   18   19 1
    21   19   20 2
    22   20   21 1
    23   21   22 3
    24    1   23 1
    25    2   24 1
    26    4   25 1
    27    5   26 1
    28    8   27 1
    29    8   28 1
    30   11   29 1
    31   13   30 1
    32   16   31 1
    33   17   32 1
    34   18   33 1
    35   19   34 1
@<TRIPOS>PROPERTY_DATA
  Total_Score	| 4.5182
  Crash		| -1.4632
  Polar		| 2.3075
  FragIndex	| 1
  FragRMSD	| 1.110

