@<TRIPOS>MOLECULE
BindingDB_50334365
 57 58 0 0 0
SMALL
NO_CHARGES


@<TRIPOS>ATOM
1    C        -3.8792    2.4536   15.9578  C     
2    C        -3.1669    3.5749   15.4893  C     
3    C        -3.8399    4.7819   15.1932  C     
4    C        -5.2541    4.8055   15.2813  C     
5    C        -5.9686    3.6898   15.7444  C     
6    C        -5.2826    2.5170   16.1199  C     
7    S        -6.1154    1.1711   16.8557  S     
8    N        -7.7737    1.3288   17.0458  N     
9    O        -5.8900   -0.0754   15.9003  O     
10   O        -5.4157    0.7913   18.2283  O     
11   N        -3.0785    5.8533   14.8179  N     
12   C        -3.2788    7.1452   15.0799  C     
13   N        -2.4305    8.1011   14.7573  N     
14   O        -4.2142    7.5236   15.7710  O     
15   C        -1.2803    7.9918   14.0350  C     
16   C        -1.2044    7.2572   12.8305  C     
17   C         0.0039    7.1772   12.1215  C     
18   C         1.1746    7.8008   12.6139  C     
19   C         1.0832    8.5596   13.8038  C     
20   C        -0.1387    8.6804   14.4903  C     
21   C         2.4809    7.5652   11.9419  C     
22   C         3.1375    6.1970   12.2952  C     
23   C         2.2732    4.9304   12.0471  C     
24   C         2.0461    4.5706   10.5431  C     
25   C         0.8134    3.6820   10.1632  C     
26   C        -0.0953    3.1352   11.2983  C     
27   C        -0.8241    1.8140   10.9577  C     
28   C        -1.8699    1.9227    9.8266  C     
29   H        -3.3619    1.6038   16.2071  H     
30   H        -2.1465    3.5191   15.4085  H     
31   H        -5.7831    5.6366   15.0048  H     
32   H        -6.9861    3.7440   15.8205  H     
33   H        -8.3578    0.5947   16.7806  H     
34   H        -8.1510    2.2101   17.2145  H     
35   H        -2.2287    5.6313   14.4174  H     
36   H        -2.6014    8.9700   15.1546  H     
37   H        -2.0321    6.7803   12.4690  H     
38   H         0.0309    6.6219   11.2650  H     
39   H         1.9095    9.0254   14.1829  H     
40   H        -0.1810    9.2377   15.3497  H     
41   H         2.3597    7.6408   10.8543  H     
42   H         3.1762    8.3637   12.2193  H     
43   H         4.0687    6.1025   11.7247  H     
44   H         3.4138    6.2192   13.3563  H     
45   H         2.7664    4.0788   12.5252  H     
46   H         1.3208    5.0479   12.5636  H     
47   H         1.9718    5.4985    9.9702  H     
48   H         2.9582    4.0696   10.1930  H     
49   H         0.1833    4.2510    9.4782  H     
50   H         1.2055    2.8316    9.5974  H     
51   H         0.5109    2.9751   12.1895  H     
52   H        -0.8427    3.8979   11.5472  H     
53   H        -0.0834    1.0423   10.6960  H     
54   H        -1.3406    1.4661   11.8570  H     
55   H        -2.5749    2.7357   10.0333  H     
56   H        -2.4258    0.9907    9.7533  H     
57   H        -1.3864    2.1122    8.8652  H     
@<TRIPOS>BOND
     1    1    2 2
     2    1    6 1
     3    2    3 1
     4    3    4 2
     5    3   11 1
     6    4    5 1
     7    5    6 2
     8    6    7 1
     9    7    8 am
    10    7    9 2
    11    7   10 2
    12   11   12 am
    13   12   13 am
    14   12   14 2
    15   13   15 1
    16   15   16 2
    17   15   20 1
    18   16   17 1
    19   17   18 2
    20   18   19 1
    21   18   21 1
    22   19   20 2
    23   21   22 1
    24   22   23 1
    25   23   24 1
    26   24   25 1
    27   25   26 1
    28   26   27 1
    29   27   28 1
    30    1   29 1
    31    2   30 1
    32    4   31 1
    33    5   32 1
    34    8   33 1
    35    8   34 1
    36   11   35 1
    37   13   36 1
    38   16   37 1
    39   17   38 1
    40   19   39 1
    41   20   40 1
    42   21   41 1
    43   21   42 1
    44   22   43 1
    45   22   44 1
    46   23   45 1
    47   23   46 1
    48   24   47 1
    49   24   48 1
    50   25   49 1
    51   25   50 1
    52   26   51 1
    53   26   52 1
    54   27   53 1
    55   27   54 1
    56   28   55 1
    57   28   56 1
    58   28   57 1
@<TRIPOS>PROPERTY_DATA
  Total_Score	| 6.8324
  Crash		| -1.5914
  Polar		| 2.5254
  FragIndex	| 1
  FragRMSD	| 1.354

