@<TRIPOS>MOLECULE
BindingDB_50343346
 46 48 0 0 0
SMALL
NO_CHARGES


@<TRIPOS>ATOM
1    N         7.0988   32.4647   -4.9702  N     
2    O         8.3641   32.7547   -4.9806  O     
3    C         8.6856   33.3214   -3.7968  C     
4    N         7.5655   33.4098   -3.0617  N     
5    C         6.5833   32.8585   -3.7960  C     
6    C         5.2292   32.7279   -3.4346  C     
7    C         4.5411   33.3749   -2.4012  C     
8    C         3.1869   33.0118   -2.2752  C     
9    C         2.7568   32.0604   -3.2039  C     
10   S         4.0974   31.6780   -4.2045  S     
11   C        10.0171   33.9002   -3.4894  C     
12   C        10.2467   34.2365   -1.9808  C     
13   C        10.6077   32.9780   -1.1470  C     
14   N        11.7605   32.2913   -1.7326  N     
15   C        11.5309   31.8391   -3.1020  C     
16   C        11.2194   33.0513   -4.0103  C     
17   C        12.9321   32.1225   -1.0672  C     
18   O        13.0943   32.6930    0.0125  O     
19   C        14.0485   31.3088   -1.5523  C     
20   C        15.2033   30.9788   -0.5521  C     
21   C        16.1762   29.8440   -1.0297  C     
22   C        17.2265   30.3684   -2.0413  C     
23   C        16.8806   29.1424    0.1679  C     
24   H         4.9774   34.0585   -1.7794  H     
25   H         2.5675   33.4000   -1.5610  H     
26   H         1.8172   31.6537   -3.2739  H     
27   H        10.0423   34.8537   -4.0330  H     
28   H        11.0928   34.9308   -1.8966  H     
29   H         9.3741   34.7398   -1.5533  H     
30   H        10.7676   33.3110   -0.1181  H     
31   H         9.7418   32.3069   -1.1237  H     
32   H        12.3732   31.3058   -3.5369  H     
33   H        10.6796   31.1538   -3.1299  H     
34   H        11.0386   32.6994   -5.0272  H     
35   H        12.1144   33.6831   -4.0376  H     
36   H        13.6415   30.3577   -1.8749  H     
37   H        14.4792   31.8104   -2.4154  H     
38   H        15.7876   31.8931   -0.3716  H     
39   H        14.7623   30.6944    0.4132  H     
40   H        15.5980   29.0773   -1.5467  H     
41   H        16.7359   30.8076   -2.9140  H     
42   H        17.8609   29.5542   -2.3988  H     
43   H        17.8673   31.1320   -1.5845  H     
44   H        17.4491   29.8629    0.7647  H     
45   H        17.5643   28.3657   -0.1815  H     
46   H        16.1350   28.6673    0.8096  H     
@<TRIPOS>BOND
     1    1    2 1
     2    1    5 2
     3    2    3 1
     4    3    4 2
     5    3   11 1
     6    4    5 1
     7    5    6 1
     8    6    7 2
     9    6   10 1
    10    7    8 1
    11    8    9 2
    12    9   10 1
    13   11   12 1
    14   11   16 1
    15   12   13 1
    16   13   14 1
    17   14   15 1
    18   14   17 am
    19   15   16 1
    20   17   18 2
    21   17   19 1
    22   19   20 1
    23   20   21 1
    24   21   22 1
    25   21   23 1
    26    7   24 1
    27    8   25 1
    28    9   26 1
    29   11   27 1
    30   12   28 1
    31   12   29 1
    32   13   30 1
    33   13   31 1
    34   15   32 1
    35   15   33 1
    36   16   34 1
    37   16   35 1
    38   19   36 1
    39   19   37 1
    40   20   38 1
    41   20   39 1
    42   21   40 1
    43   22   41 1
    44   22   42 1
    45   22   43 1
    46   23   44 1
    47   23   45 1
    48   23   46 1
@<TRIPOS>PROPERTY_DATA
  Total_Score	| 7.9596
  Crash		| -2.1084
  Polar		| 1.0485
  FragIndex	| 1
  FragRMSD	| 1.027

