@<TRIPOS>MOLECULE
BindingDB_50343349
 50 53 0 0 0
SMALL
NO_CHARGES


@<TRIPOS>ATOM
1    N         7.1816   32.4764   -4.8618  N     
2    O         8.4556   32.7237   -4.8720  O     
3    C         8.7679   33.3656   -3.7224  C     
4    N         7.6379   33.5405   -3.0109  N     
5    C         6.6572   32.9646   -3.7244  C     
6    C         5.3075   32.8599   -3.3660  C     
7    C         4.6443   33.4918   -2.3018  C     
8    C         3.2861   33.1619   -2.1758  C     
9    C         2.8208   32.2508   -3.1256  C     
10   S         4.1420   31.8652   -4.1531  S     
11   C        10.1158   33.9045   -3.4045  C     
12   C        10.3607   34.1209   -1.8736  C     
13   C        10.7232   32.8076   -1.1285  C     
14   N        11.8466   32.1520   -1.7902  N     
15   C        11.5360   31.7630   -3.1649  C     
16   C        11.2757   33.0432   -4.0045  C     
17   C        13.0709   32.0651   -1.2259  C     
18   O        13.2538   32.5894   -0.1244  O     
19   C        14.2375   31.3793   -1.7964  C     
20   C        15.6954   31.7679   -1.3368  C     
21   C        16.0827   31.4650    0.1524  C     
22   C        16.3935   29.9716    0.4406  C     
23   C        17.4460   29.3854   -0.5307  C     
24   C        17.0349   29.6316   -1.9990  C     
25   C        16.7782   31.1371   -2.2734  C     
26   H         5.1113   34.1392   -1.6639  H     
27   H         2.6832   33.5468   -1.4449  H     
28   H         1.8751   31.8715   -3.1976  H     
29   H        10.1596   34.8866   -3.8865  H     
30   H        11.1971   34.8157   -1.7501  H     
31   H         9.4901   34.5906   -1.4034  H     
32   H        10.9190   33.0670   -0.0873  H     
33   H         9.8558   32.1435   -1.1246  H     
34   H        12.3185   31.1581   -3.6329  H     
35   H        10.6276   31.1486   -3.1835  H     
36   H        11.0624   32.7606   -5.0375  H     
37   H        12.1969   33.6335   -4.0150  H     
38   H        14.0868   30.3099   -1.6400  H     
39   H        14.1890   31.5652   -2.8777  H     
40   H        15.7691   32.8526   -1.4748  H     
41   H        16.9716   32.0489    0.4061  H     
42   H        15.2974   31.7949    0.8323  H     
43   H        16.7539   29.8656    1.4692  H     
44   H        15.4681   29.4040    0.3551  H     
45   H        18.4201   29.8418   -0.3382  H     
46   H        17.5339   28.3132   -0.3494  H     
47   H        17.8303   29.2756   -2.6539  H     
48   H        16.1358   29.0535   -2.2181  H     
49   H        16.4915   31.2616   -3.3220  H     
50   H        17.7210   31.6780   -2.1387  H     
@<TRIPOS>BOND
     1    1    2 1
     2    1    5 2
     3    2    3 1
     4    3    4 2
     5    3   11 1
     6    4    5 1
     7    5    6 1
     8    6    7 2
     9    6   10 1
    10    7    8 1
    11    8    9 2
    12    9   10 1
    13   11   12 1
    14   11   16 1
    15   12   13 1
    16   13   14 1
    17   14   15 1
    18   14   17 am
    19   15   16 1
    20   17   18 2
    21   17   19 1
    22   19   20 1
    23   20   21 1
    24   20   25 1
    25   21   22 1
    26   22   23 1
    27   23   24 1
    28   24   25 1
    29    7   26 1
    30    8   27 1
    31    9   28 1
    32   11   29 1
    33   12   30 1
    34   12   31 1
    35   13   32 1
    36   13   33 1
    37   15   34 1
    38   15   35 1
    39   16   36 1
    40   16   37 1
    41   19   38 1
    42   19   39 1
    43   20   40 1
    44   21   41 1
    45   21   42 1
    46   22   43 1
    47   22   44 1
    48   23   45 1
    49   23   46 1
    50   24   47 1
    51   24   48 1
    52   25   49 1
    53   25   50 1
@<TRIPOS>PROPERTY_DATA
  Total_Score	| 8.4400
  Crash		| -2.6972
  Polar		| 1.0248
  FragIndex	| 1
  FragRMSD	| 1.187

