@<TRIPOS>MOLECULE
BindingDB_50343347
 41 44 0 0 0
SMALL
NO_CHARGES


@<TRIPOS>ATOM
1    N         6.8207   33.1684   -5.1540  N     
2    O         8.1109   33.2741   -5.0214  O     
3    C         8.4132   33.1707   -3.7066  C     
4    N         7.2722   33.0013   -3.0207  N     
5    C         6.2866   33.0008   -3.9337  C     
6    C         4.9112   32.9052   -3.6670  C     
7    C         3.8558   33.0246   -4.5831  C     
8    C         2.5709   32.9238   -4.0215  C     
9    C         2.5617   32.7190   -2.6404  C     
10   S         4.1983   32.6656   -2.1187  S     
11   C         9.7906   33.3341   -3.1843  C     
12   C         9.9390   33.2136   -1.6395  C     
13   C        11.4172   33.4450   -1.2079  C     
14   N        12.3675   32.5931   -1.9223  N     
15   C        12.2202   32.5876   -3.3757  C     
16   C        10.7681   32.3310   -3.8538  C     
17   C        13.4056   31.9980   -1.2863  C     
18   O        13.6338   32.2892   -0.1172  O     
19   C        14.3239   31.0434   -1.9237  C     
20   C        15.5030   30.3275   -1.2027  C     
21   C        16.6911   31.1757   -0.7173  C     
22   C        15.8346   30.4015    0.2957  C     
23   H         4.0008   33.1831   -5.5818  H     
24   H         1.7145   32.9979   -4.5753  H     
25   H         1.7381   32.6206   -2.0452  H     
26   H        10.0932   34.3477   -3.4708  H     
27   H         9.3025   33.9545   -1.1458  H     
28   H         9.6202   32.2195   -1.3096  H     
29   H        11.6813   34.4882   -1.3982  H     
30   H        11.4513   33.3046   -0.1241  H     
31   H        12.5384   33.5663   -3.7475  H     
32   H        12.8388   31.8497   -3.8833  H     
33   H        10.4802   31.3049   -3.6071  H     
34   H        10.7337   32.4368   -4.9427  H     
35   H        13.7029   30.2330   -2.3090  H     
36   H        14.7833   31.5469   -2.7759  H     
37   H        15.8291   29.3960   -1.6732  H     
38   H        17.6847   30.7629   -0.8953  H     
39   H        16.5671   32.2588   -0.6973  H     
40   H        15.1619   30.9859    0.9218  H     
41   H        16.2943   29.5031    0.7155  H     
@<TRIPOS>BOND
     1    1    2 1
     2    1    5 2
     3    2    3 1
     4    3    4 2
     5    3   11 1
     6    4    5 1
     7    5    6 1
     8    6    7 2
     9    6   10 1
    10    7    8 1
    11    8    9 2
    12    9   10 1
    13   11   12 1
    14   11   16 1
    15   12   13 1
    16   13   14 1
    17   14   15 1
    18   14   17 am
    19   15   16 1
    20   17   18 2
    21   17   19 1
    22   19   20 1
    23   20   21 1
    24   20   22 1
    25   21   22 1
    26    7   23 1
    27    8   24 1
    28    9   25 1
    29   11   26 1
    30   12   27 1
    31   12   28 1
    32   13   29 1
    33   13   30 1
    34   15   31 1
    35   15   32 1
    36   16   33 1
    37   16   34 1
    38   19   35 1
    39   19   36 1
    40   20   37 1
    41   21   38 1
    42   21   39 1
    43   22   40 1
    44   22   41 1
@<TRIPOS>PROPERTY_DATA
  Total_Score	| 7.0609
  Crash		| -0.5805
  Polar		| 0.7335
  FragIndex	| 1
  FragRMSD	| 0.513

