@<TRIPOS>MOLECULE
BindingDB_50343348
 47 50 0 0 0
SMALL
NO_CHARGES


@<TRIPOS>ATOM
1    N         6.8867   32.5851   -4.9464  N     
2    O         8.1608   32.8384   -5.0040  O     
3    C         8.5400   33.3898   -3.8265  C     
4    N         7.4504   33.5015   -3.0471  N     
5    C         6.4282   32.9813   -3.7453  C     
6    C         5.1035   32.8722   -3.3106  C     
7    C         4.4981   33.5090   -2.2182  C     
8    C         3.1430   33.1922   -2.0349  C     
9    C         2.6337   32.2701   -2.9521  C     
10   S         3.9072   31.8738   -4.0398  S     
11   C         9.9135   33.8794   -3.5235  C     
12   C        10.1762   34.1096   -2.0002  C     
13   C        10.4958   32.7972   -1.2243  C     
14   N        11.5744   32.0870   -1.8892  N     
15   C        11.2351   31.6823   -3.2498  C     
16   C        11.0216   32.9502   -4.1157  C     
17   C        12.7919   31.9166   -1.3216  C     
18   O        12.9712   32.2679   -0.1557  O     
19   C        13.9764   31.4437   -2.0472  C     
20   C        15.3668   31.4419   -1.3349  C     
21   C        15.7884   30.0850   -0.7294  C     
22   C        17.3110   30.2059   -0.5008  C     
23   C        17.7925   31.3149   -1.4714  C     
24   C        16.5532   31.7659   -2.2689  C     
25   H         4.9944   34.1631   -1.6149  H     
26   H         2.5766   33.5866   -1.2807  H     
27   H         1.6832   31.8983   -2.9763  H     
28   H         9.9931   34.8480   -4.0277  H     
29   H        11.0471   34.7601   -1.8991  H     
30   H         9.3311   34.6263   -1.5286  H     
31   H        10.7238   33.0774   -0.1902  H     
32   H         9.6034   32.1660   -1.1907  H     
33   H        11.9836   31.0505   -3.7329  H     
34   H        10.2967   31.1095   -3.2467  H     
35   H        10.7772   32.6403   -5.1349  H     
36   H        11.9643   33.5116   -4.1634  H     
37   H        13.7617   30.4237   -2.4006  H     
38   H        14.0587   32.0712   -2.9552  H     
39   H        15.3723   32.2056   -0.5440  H     
40   H        15.2626   29.8933    0.2069  H     
41   H        15.5863   29.2837   -1.4368  H     
42   H        17.5187   30.4919    0.5381  H     
43   H        17.8091   29.2532   -0.7104  H     
44   H        18.1860   32.1595   -0.8953  H     
45   H        18.5727   30.9519   -2.1433  H     
46   H        16.4788   31.1967   -3.1981  H     
47   H        16.6057   32.8367   -2.5035  H     
@<TRIPOS>BOND
     1    1    2 1
     2    1    5 2
     3    2    3 1
     4    3    4 2
     5    3   11 1
     6    4    5 1
     7    5    6 1
     8    6    7 2
     9    6   10 1
    10    7    8 1
    11    8    9 2
    12    9   10 1
    13   11   12 1
    14   11   16 1
    15   12   13 1
    16   13   14 1
    17   14   15 1
    18   14   17 am
    19   15   16 1
    20   17   18 2
    21   17   19 1
    22   19   20 1
    23   20   21 1
    24   20   24 1
    25   21   22 1
    26   22   23 1
    27   23   24 1
    28    7   25 1
    29    8   26 1
    30    9   27 1
    31   11   28 1
    32   12   29 1
    33   12   30 1
    34   13   31 1
    35   13   32 1
    36   15   33 1
    37   15   34 1
    38   16   35 1
    39   16   36 1
    40   19   37 1
    41   19   38 1
    42   20   39 1
    43   21   40 1
    44   21   41 1
    45   22   42 1
    46   22   43 1
    47   23   44 1
    48   23   45 1
    49   24   46 1
    50   24   47 1
@<TRIPOS>PROPERTY_DATA
  Total_Score	| 7.5452
  Crash		| -2.5409
  Polar		| 0.3849
  FragIndex	| 1
  FragRMSD	| 1.144

