@<TRIPOS>MOLECULE
BindingDB_50343350
 40 42 0 0 0
SMALL
NO_CHARGES


@<TRIPOS>ATOM
1    N         6.7292   32.8694   -5.0190  N     
2    O         8.0217   32.9509   -4.9258  O     
3    C         8.3492   33.0773   -3.6214  C     
4    N         7.2152   33.0915   -2.9016  N     
5    C         6.2100   32.9524   -3.7812  C     
6    C         4.8408   32.9349   -3.4873  C     
7    C         4.2075   33.2022   -2.2601  C     
8    C         2.8018   33.1604   -2.2966  C     
9    C         2.2676   32.8488   -3.5482  C     
10   S         3.5850   32.6354   -4.6274  S     
11   C         9.7412   33.2658   -3.1422  C     
12   C         9.9109   33.1789   -1.5974  C     
13   C        11.3936   33.3887   -1.1818  C     
14   N        12.3195   32.5080   -1.8864  N     
15   C        12.1745   32.5144   -3.3382  C     
16   C        10.7187   32.2400   -3.7927  C     
17   C        13.3238   31.8689   -1.2464  C     
18   O        13.3782   31.9054   -0.0227  O     
19   C        14.4151   31.1510   -1.9160  C     
20   C        15.4872   30.3833   -1.0805  C     
21   C        16.9000   31.0330   -0.9439  C     
22   F        17.8279   30.0710   -0.5945  F     
23   F        17.3199   31.6180   -2.1259  F     
24   F        16.9170   31.9802    0.0648  F     
25   H         4.7172   33.4349   -1.4074  H     
26   H         2.2169   33.3527   -1.4814  H     
27   H         1.2842   32.7723   -3.7882  H     
28   H        10.0320   34.2634   -3.4772  H     
29   H         9.2919   33.9354   -1.1136  H     
30   H         9.5814   32.1932   -1.2480  H     
31   H        11.6803   34.4207   -1.4011  H     
32   H        11.4410   33.2729   -0.1007  H     
33   H        12.4896   33.4969   -3.7134  H     
34   H        12.7989   31.7750   -3.8465  H     
35   H        10.4271   31.2266   -3.5022  H     
36   H        10.6713   32.3003   -4.8827  H     
37   H        13.9613   30.4270   -2.6035  H     
38   H        14.9676   31.8753   -2.5218  H     
39   H        15.0845   30.1680   -0.0775  H     
40   H        15.6206   29.4083   -1.5835  H     
@<TRIPOS>BOND
     1    1    2 1
     2    1    5 2
     3    2    3 1
     4    3    4 2
     5    3   11 1
     6    4    5 1
     7    5    6 1
     8    6    7 2
     9    6   10 1
    10    7    8 1
    11    8    9 2
    12    9   10 1
    13   11   12 1
    14   11   16 1
    15   12   13 1
    16   13   14 1
    17   14   15 1
    18   14   17 am
    19   15   16 1
    20   17   18 2
    21   17   19 1
    22   19   20 1
    23   20   21 1
    24   21   22 1
    25   21   23 1
    26   21   24 1
    27    7   25 1
    28    8   26 1
    29    9   27 1
    30   11   28 1
    31   12   29 1
    32   12   30 1
    33   13   31 1
    34   13   32 1
    35   15   33 1
    36   15   34 1
    37   16   35 1
    38   16   36 1
    39   19   37 1
    40   19   38 1
    41   20   39 1
    42   20   40 1
@<TRIPOS>PROPERTY_DATA
  Total_Score	| 6.6217
  Crash		| -0.6207
  Polar		| 0.0934
  FragIndex	| 1
  FragRMSD	| 1.020

