@<TRIPOS>MOLECULE
BindingDB_50343344
 41 44 0 0 0
SMALL
NO_CHARGES


@<TRIPOS>ATOM
1    C        15.9071   29.7796   -1.5883  C     
2    C        17.2171   29.3632   -1.3330  C     
3    C        17.9034   30.1272   -0.3851  C     
4    S        16.8281   31.3601    0.1393  S     
5    C        15.4884   30.9119   -0.8637  C     
6    C        14.1760   31.6024   -0.8942  C     
7    C        13.4937   31.7543   -2.1824  C     
8    O        13.9256   31.0676   -3.1061  O     
9    N        12.4366   32.5799   -2.4099  N     
10   C        11.7634   33.3479   -1.3701  C     
11   C        10.2258   33.1503   -1.3904  C     
12   C        11.9257   32.7979   -3.7581  C     
13   C        10.4204   32.4726   -3.8366  C     
14   C         9.6287   33.3396   -2.8159  C     
15   C         8.1912   32.9920   -2.8559  C     
16   N         7.2029   33.6956   -3.4218  N     
17   O         7.6752   31.8596   -2.3444  O     
18   N         6.4014   31.8537   -2.5734  N     
19   C         6.0842   32.9765   -3.2359  C     
20   C         4.7848   33.2673   -3.6706  C     
21   C         4.3762   34.2737   -4.5514  C     
22   C         3.0021   34.2785   -4.8382  C     
23   C         2.2666   33.2906   -4.1787  C     
24   S         3.3748   32.3767   -3.2356  S     
25   H        15.2986   29.3072   -2.2559  H     
26   H        17.6400   28.5512   -1.7939  H     
27   H        18.8607   29.9783   -0.0602  H     
28   H        13.5153   31.0528   -0.2217  H     
29   H        14.3306   32.5983   -0.4740  H     
30   H        12.1030   33.1100   -0.3543  H     
31   H        11.9882   34.4025   -1.5311  H     
32   H        10.0059   32.1462   -1.0123  H     
33   H         9.7664   33.8748   -0.6970  H     
34   H        12.0830   33.8390   -4.0203  H     
35   H        12.4289   32.2143   -4.5308  H     
36   H        10.0594   32.6720   -4.8453  H     
37   H        10.2681   31.4085   -3.6361  H     
38   H         9.7412   34.3895   -3.0949  H     
39   H         5.0244   34.9441   -4.9721  H     
40   H         2.5726   34.9439   -5.4858  H     
41   H         1.2620   33.1227   -4.2591  H     
@<TRIPOS>BOND
     1    1    2 1
     2    1    5 2
     3    2    3 2
     4    3    4 1
     5    4    5 1
     6    5    6 1
     7    6    7 1
     8    7    8 2
     9    7    9 am
    10    9   10 1
    11    9   12 1
    12   10   11 1
    13   11   14 1
    14   12   13 1
    15   13   14 1
    16   14   15 1
    17   15   16 2
    18   15   17 1
    19   16   19 1
    20   17   18 1
    21   18   19 2
    22   19   20 1
    23   20   21 2
    24   20   24 1
    25   21   22 1
    26   22   23 2
    27   23   24 1
    28    1   25 1
    29    2   26 1
    30    3   27 1
    31    6   28 1
    32    6   29 1
    33   10   30 1
    34   10   31 1
    35   11   32 1
    36   11   33 1
    37   12   34 1
    38   12   35 1
    39   13   36 1
    40   13   37 1
    41   14   38 1
    42   21   39 1
    43   22   40 1
    44   23   41 1
@<TRIPOS>PROPERTY_DATA
  Total_Score	| 6.4918
  Crash		| -1.7250
  Polar		| 0.0000
  FragIndex	| 1
  FragRMSD	| 1.472

