@<TRIPOS>MOLECULE
BindingDB_50343351
 37 39 0 0 0
SMALL
NO_CHARGES


@<TRIPOS>ATOM
1    N         6.7436   33.9092   -4.9314  N     
2    O         8.0379   33.9946   -4.9337  O     
3    C         8.4936   33.3803   -3.8194  C     
4    N         7.4519   32.8849   -3.1318  N     
5    C         6.3609   33.2392   -3.8325  C     
6    C         5.0262   32.9796   -3.5141  C     
7    C         4.5220   32.1423   -2.5106  C     
8    C         3.1163   32.1144   -2.4211  C     
9    C         2.4618   32.9429   -3.3374  C     
10   S         3.6719   33.7037   -4.2910  S     
11   C         9.9382   33.2352   -3.5573  C     
12   C        10.5173   31.9856   -4.2327  C     
13   C        11.8714   31.8155   -3.5291  C     
14   N        11.6919   32.3706   -2.2137  N     
15   C        10.4399   33.0833   -2.1007  C     
16   C        12.6139   32.2843   -1.2291  C     
17   C        13.8811   31.5465   -1.3732  C     
18   O        12.4050   32.8532   -0.1629  O     
19   C        14.9303   31.5408   -0.1994  C     
20   C        16.4117   31.4494   -0.6746  C     
21   F        17.2711   31.5214    0.3984  F     
22   F        16.6503   30.2628   -1.3412  F     
23   F        16.7111   32.4934   -1.5234  F     
24   H         5.1231   31.5890   -1.8944  H     
25   H         2.6178   31.5471   -1.7323  H     
26   H         1.4565   33.0847   -3.4271  H     
27   H        10.4319   34.1118   -3.9910  H     
28   H         9.8765   31.1132   -4.0322  H     
29   H        10.6295   32.1127   -5.3124  H     
30   H        12.1380   30.7529   -3.5106  H     
31   H        12.6481   32.3766   -4.0644  H     
32   H        10.5670   34.0688   -1.6431  H     
33   H         9.7463   32.4949   -1.5005  H     
34   H        13.6465   30.4975   -1.5729  H     
35   H        14.3635   31.9332   -2.2744  H     
36   H        14.8209   32.4384    0.4223  H     
37   H        14.7346   30.6783    0.4527  H     
@<TRIPOS>BOND
     1    1    2 1
     2    1    5 2
     3    2    3 1
     4    3    4 2
     5    3   11 1
     6    4    5 1
     7    5    6 1
     8    6    7 2
     9    6   10 1
    10    7    8 1
    11    8    9 2
    12    9   10 1
    13   11   12 1
    14   11   15 1
    15   12   13 1
    16   13   14 1
    17   14   15 1
    18   14   16 am
    19   16   17 1
    20   16   18 2
    21   17   19 1
    22   19   20 1
    23   20   21 1
    24   20   22 1
    25   20   23 1
    26    7   24 1
    27    8   25 1
    28    9   26 1
    29   11   27 1
    30   12   28 1
    31   12   29 1
    32   13   30 1
    33   13   31 1
    34   15   32 1
    35   15   33 1
    36   17   34 1
    37   17   35 1
    38   19   36 1
    39   19   37 1
@<TRIPOS>PROPERTY_DATA
  Total_Score	| 6.0218
  Crash		| -0.6379
  Polar		| 0.4357
  FragIndex	| 1
  FragRMSD	| 1.488

