@<TRIPOS>MOLECULE
BindingDB_50343345
 44 47 0 0 0
SMALL
NO_CHARGES


@<TRIPOS>ATOM
1    N         6.2752   31.8527   -2.7041  N     
2    O         7.5528   31.8633   -2.4540  O     
3    C         8.0493   33.0439   -2.8773  C     
4    N         7.0524   33.7686   -3.4100  N     
5    C         5.9530   33.0138   -3.2930  C     
6    C         4.6579   33.3262   -3.7317  C     
7    C         4.2604   34.4237   -4.5020  C     
8    C         2.8958   34.4412   -4.8416  C     
9    C         2.1610   33.3684   -4.3276  C     
10   S         3.2518   32.3691   -3.4541  S     
11   C         9.4706   33.4194   -2.7795  C     
12   C         9.9917   33.3149   -1.3155  C     
13   C        11.5178   33.5788   -1.2418  C     
14   N        12.2610   32.7026   -2.1617  N     
15   C        11.8329   32.8191   -3.5512  C     
16   C        10.3213   32.5249   -3.7181  C     
17   C        13.2564   31.9090   -1.7043  C     
18   O        13.4448   31.8254   -0.4918  O     
19   C        14.1293   31.0448   -2.5277  C     
20   C        15.5042   30.8124   -2.0006  C     
21   C        16.0042   29.5084   -1.7757  C     
22   C        17.3225   29.3180   -1.3249  C     
23   C        18.1629   30.4215   -1.1119  C     
24   C        17.6836   31.7197   -1.3564  C     
25   C        16.3684   31.9143   -1.7995  C     
26   H         4.9105   35.1517   -4.8103  H     
27   H         2.4803   35.1687   -5.4227  H     
28   H         1.1650   33.1964   -4.4640  H     
29   H         9.5816   34.4592   -3.1153  H     
30   H         9.4660   34.0378   -0.6848  H     
31   H         9.8047   32.3166   -0.9218  H     
32   H        11.7132   34.6220   -1.5161  H     
33   H        11.8135   33.4894   -0.1922  H     
34   H        12.0461   33.8357   -3.8979  H     
35   H        12.3133   32.1617   -4.2566  H     
36   H        10.1490   31.4635   -3.4997  H     
37   H        10.0408   32.6996   -4.7523  H     
38   H        13.5907   30.1019   -2.6930  H     
39   H        14.3261   31.4725   -3.4973  H     
40   H        15.4202   28.6938   -1.9560  H     
41   H        17.6755   28.3714   -1.1808  H     
42   H        19.1270   30.2765   -0.8068  H     
43   H        18.3026   32.5175   -1.2489  H     
44   H        16.0419   32.8712   -1.9837  H     
@<TRIPOS>BOND
     1    1    2 1
     2    1    5 2
     3    2    3 1
     4    3    4 2
     5    3   11 1
     6    4    5 1
     7    5    6 1
     8    6    7 2
     9    6   10 1
    10    7    8 1
    11    8    9 2
    12    9   10 1
    13   11   12 1
    14   11   16 1
    15   12   13 1
    16   13   14 1
    17   14   15 1
    18   14   17 am
    19   15   16 1
    20   17   18 2
    21   17   19 1
    22   19   20 1
    23   20   21 2
    24   20   25 1
    25   21   22 1
    26   22   23 2
    27   23   24 1
    28   24   25 2
    29    7   26 1
    30    8   27 1
    31    9   28 1
    32   11   29 1
    33   12   30 1
    34   12   31 1
    35   13   32 1
    36   13   33 1
    37   15   34 1
    38   15   35 1
    39   16   36 1
    40   16   37 1
    41   19   38 1
    42   19   39 1
    43   21   40 1
    44   22   41 1
    45   23   42 1
    46   24   43 1
    47   25   44 1
@<TRIPOS>PROPERTY_DATA
  Total_Score	| 7.4606
  Crash		| -2.2374
  Polar		| 0.0670
  FragIndex	| 1
  FragRMSD	| 1.316

