@<TRIPOS>MOLECULE
BindingDB_17142
 31 33 0 0 0
SMALL
NO_CHARGES


@<TRIPOS>ATOM
1    C        35.3785   19.1381    3.3578  C     
2    C        36.5986   20.9769    3.3651  C     
3    C        36.1002   18.9278    2.2315  C     
4    O        34.4824   18.4193    3.7776  O     
5    N        35.6355   20.2688    3.9637  N     
6    N        37.0475   22.1607    3.8094  N     
7    S        37.2105   20.2087    1.9410  S     
8    C        35.9937   17.8206    1.4644  C     
9    C        36.5732   17.5992    0.2146  C     
10   C        36.3585   16.4432   -0.5430  C     
11   C        37.0302   16.6121   -1.7337  C     
12   C        37.6542   17.8741   -1.7373  C     
13   O        37.3645   18.4299   -0.5154  O     
14   C        38.4558   18.4557   -2.7898  C     
15   C        40.1047   19.2406   -5.0078  C     
16   C        38.9898   18.4326   -5.2188  C     
17   C        38.2055   18.0344   -4.1279  C     
18   C        39.5348   19.4009   -2.5999  C     
19   C        40.3733   19.7042   -3.7151  C     
20   N        39.8287   20.0916   -1.4447  N     
21   O        40.8378   20.7308   -1.2767  O     
22   O        38.9406   20.3310   -0.5178  O     
23   H        35.1599   20.5653    4.7563  H     
24   H        37.7509   22.6258    3.3332  H     
25   H        35.4091   17.0892    1.8020  H     
26   H        35.8001   15.6301   -0.2894  H     
27   H        37.0460   15.8982   -2.4640  H     
28   H        40.6980   19.5213   -5.7967  H     
29   H        38.7542   18.1095   -6.1613  H     
30   H        37.4339   17.4171   -4.3694  H     
31   H        41.1747   20.3352   -3.6125  H     
@<TRIPOS>BOND
     1    1    3 1
     2    1    4 2
     3    1    5 1
     4    2    5 1
     5    2    6 2
     6    2    7 1
     7    3    7 1
     8    3    8 2
     9    8    9 1
    10    9   10 2
    11    9   13 1
    12   10   11 1
    13   11   12 2
    14   12   13 1
    15   12   14 1
    16   14   17 1
    17   14   18 2
    18   15   16 1
    19   15   19 2
    20   16   17 2
    21   18   19 1
    22   18   20 am
    23   20   21 2
    24   20   22 1
    25    5   23 1
    26    6   24 1
    27    8   25 1
    28   10   26 1
    29   11   27 1
    30   15   28 1
    31   16   29 1
    32   17   30 1
    33   19   31 1
@<TRIPOS>PROPERTY_DATA
  Total_Score	| 3.6129
  Crash		| -1.2639
  Polar		| 0.0287
  FragIndex	| 1
  FragRMSD	| 0.681

