@<TRIPOS>MOLECULE
BindingDB_17152
 33 35 0 0 0
SMALL
NO_CHARGES


@<TRIPOS>ATOM
1    C        35.2280   19.1302    3.2841  C     
2    C        36.5180   20.8953    3.2801  C     
3    C        35.8833   18.9228    2.1245  C     
4    O        34.3445   18.4305    3.7537  O     
5    N        35.5669   20.2391    3.8948  N     
6    S        37.0161   20.1708    1.8249  S     
7    C        35.7104   17.8257    1.3554  C     
8    C        36.3231   17.5384    0.1423  C     
9    C        36.3115   16.2804   -0.4574  C     
10   C        36.9749   16.3883   -1.6646  C     
11   C        37.3852   17.7125   -1.8035  C     
12   O        36.9722   18.3869   -0.6975  O     
13   C        38.0698   18.3033   -2.9000  C     
14   C        39.3157   19.5328   -5.1568  C     
15   C        38.8036   20.3184   -4.1043  C     
16   C        38.1962   19.7113   -2.9910  C     
17   C        38.6115   17.5237   -3.9536  C     
18   C        39.2299   18.1294   -5.0658  C     
19   S        39.9987   20.3001   -6.5612  S     
20   O        39.1285   21.5824   -6.9316  O     
21   O        41.4890   20.7284   -6.1931  O     
22   N        40.0437   19.2687   -7.8902  N     
23   O        36.9922   21.9386    3.7083  O     
24   H        35.1516   20.5274    4.7206  H     
25   H        35.0724   17.1314    1.6879  H     
26   H        35.8788   15.4317   -0.0901  H     
27   H        37.1138   15.6211   -2.3235  H     
28   H        38.8554   21.3414   -4.1410  H     
29   H        37.8250   20.3133   -2.2524  H     
30   H        38.5579   16.5040   -3.9313  H     
31   H        39.6007   17.5291   -5.8035  H     
32   H        40.4730   19.5633   -8.7133  H     
33   H        39.4854   18.4686   -7.9013  H     
@<TRIPOS>BOND
     1    1    3 1
     2    1    4 2
     3    1    5 1
     4    2    5 1
     5    2    6 1
     6    2   23 2
     7    3    6 1
     8    3    7 2
     9    7    8 1
    10    8    9 2
    11    8   12 1
    12    9   10 1
    13   10   11 2
    14   11   12 1
    15   11   13 1
    16   13   16 1
    17   13   17 2
    18   14   15 1
    19   14   18 2
    20   14   19 1
    21   15   16 2
    22   17   18 1
    23   19   20 2
    24   19   21 2
    25   19   22 am
    26    5   24 1
    27    7   25 1
    28    9   26 1
    29   10   27 1
    30   15   28 1
    31   16   29 1
    32   17   30 1
    33   18   31 1
    34   22   32 1
    35   22   33 1
@<TRIPOS>PROPERTY_DATA
  Total_Score	| 6.3710
  Crash		| -0.8435
  Polar		| 1.5894
  FragIndex	| 1
  FragRMSD	| 0.895

