@<TRIPOS>MOLECULE
BindingDB_17150
 34 36 0 0 0
SMALL
NO_CHARGES


@<TRIPOS>ATOM
1    C        35.3367   19.2818    3.3007  C     
2    C        36.6245   21.0724    3.1808  C     
3    C        35.9827   19.0206    2.1361  C     
4    O        34.4839   18.5869    3.8237  O     
5    N        35.6718   20.4140    3.8551  N     
6    N        37.1694   22.2269    3.5809  N     
7    S        37.0812   20.2731    1.7229  S     
8    C        35.8254   17.8784    1.4357  C     
9    C        36.3735   17.5670    0.2032  C     
10   C        36.2968   16.3152   -0.3972  C     
11   C        36.9249   16.3939   -1.6251  C     
12   C        37.3889   17.7048   -1.7816  C     
13   O        37.0364   18.3862   -0.6592  O     
14   C        38.0835   18.2627   -2.8890  C     
15   C        39.3722   19.4450   -5.1561  C     
16   C        39.1390   18.0546   -5.0960  C     
17   C        38.5116   17.4739   -3.9812  C     
18   C        38.3645   19.6470   -2.9276  C     
19   C        39.0120   20.2411   -4.0350  C     
20   S        40.0350   20.1223   -6.6240  S     
21   O        39.1369   21.3636   -7.0571  O     
22   O        41.5230   20.6213   -6.3313  O     
23   N        40.0700   19.0714   -7.9419  N     
24   Cl       39.3476   21.8976   -3.9333  Cl    
25   H        35.2667   20.7466    4.6710  H     
26   H        37.8603   22.6477    3.0431  H     
27   H        35.2484   17.1724    1.8403  H     
28   H        35.8565   15.4762   -0.0083  H     
29   H        37.0200   15.6219   -2.2867  H     
30   H        39.4154   17.4436   -5.8696  H     
31   H        38.3659   16.4621   -3.9956  H     
32   H        38.0857   20.2369   -2.1437  H     
33   H        40.4422   19.3881   -8.7848  H     
34   H        39.4708   18.3079   -7.9540  H     
@<TRIPOS>BOND
     1    1    3 1
     2    1    4 2
     3    1    5 1
     4    2    5 1
     5    2    6 2
     6    2    7 1
     7    3    7 1
     8    3    8 2
     9    8    9 1
    10    9   10 2
    11    9   13 1
    12   10   11 1
    13   11   12 2
    14   12   13 1
    15   12   14 1
    16   14   17 1
    17   14   18 2
    18   15   16 1
    19   15   19 2
    20   15   20 1
    21   16   17 2
    22   18   19 1
    23   19   24 1
    24   20   21 2
    25   20   22 2
    26   20   23 am
    27    5   25 1
    28    6   26 1
    29    8   27 1
    30   10   28 1
    31   11   29 1
    32   16   30 1
    33   17   31 1
    34   18   32 1
    35   23   33 1
    36   23   34 1
@<TRIPOS>PROPERTY_DATA
  Total_Score	| 6.0739
  Crash		| -1.1861
  Polar		| 1.8208
  FragIndex	| 1
  FragRMSD	| 0.590

