@<TRIPOS>MOLECULE
BindingDB_17146
 47 50 0 0 0
SMALL
NO_CHARGES


@<TRIPOS>ATOM
1    C        35.2997   19.1296    3.1481  C     
2    C        36.5463   20.9484    3.1268  C     
3    C        35.9517   18.9381    1.9749  C     
4    O        34.4659   18.3853    3.6413  O     
5    N        35.6258   20.2314    3.7747  N     
6    N        37.0640   22.0926    3.6027  N     
7    S        37.0083   20.2444    1.6157  S     
8    C        35.8370   17.8181    1.2313  C     
9    C        36.4208   17.5542    0.0027  C     
10   C        36.4575   16.3007   -0.6010  C     
11   C        37.1068   16.4313   -1.8185  C     
12   C        37.4451   17.7794   -1.9717  C     
13   O        37.0185   18.4236   -0.8529  O     
14   C        38.0783   18.4170   -3.0764  C     
15   C        39.3513   19.7712   -5.2477  C     
16   C        38.7800   20.4969   -4.1905  C     
17   C        38.1756   19.8270   -3.1136  C     
18   C        38.6257   17.6938   -4.1634  C     
19   C        39.2609   18.3628   -5.2346  C     
20   O        40.4678   19.6947   -7.7853  O     
21   O        39.0623   21.6232   -7.1546  O     
22   S        40.1458   20.6328   -6.5413  S     
23   C        43.9054   22.1009   -6.3281  C     
24   C        42.8133   21.0044   -6.3088  C     
25   C        41.3138   22.5545   -5.0669  C     
26   C        42.4201   23.6358   -5.1015  C     
27   N        41.4978   21.5583   -6.0960  N     
28   N        43.7559   23.0070   -5.1690  N     
29   H        35.2259   20.4973    4.6221  H     
30   H        37.7362   22.5786    3.0959  H     
31   H        35.2609   17.0916    1.5969  H     
32   H        36.0773   15.4309   -0.2249  H     
33   H        37.2764   15.6722   -2.4780  H     
34   H        38.8150   21.5214   -4.1958  H     
35   H        37.7927   20.3878   -2.3534  H     
36   H        38.5839   16.6713   -4.1884  H     
37   H        39.6573   17.8173   -6.0019  H     
38   H        44.8974   21.6412   -6.2889  H     
39   H        43.8387   22.6802   -7.2551  H     
40   H        42.8750   20.4677   -7.2591  H     
41   H        43.0311   20.2971   -5.5090  H     
42   H        41.3349   22.0604   -4.0880  H     
43   H        40.3520   23.0640   -5.1749  H     
44   H        42.2775   24.2900   -5.9671  H     
45   H        42.3692   24.2476   -4.1990  H     
46   H        43.8980   22.4636   -4.3175  H     
47   H        44.4725   23.7380   -5.2123  H     
@<TRIPOS>BOND
     1    1    3 1
     2    1    4 2
     3    1    5 1
     4    2    5 1
     5    2    6 2
     6    2    7 1
     7    3    7 1
     8    3    8 2
     9    8    9 1
    10    9   10 2
    11    9   13 1
    12   10   11 1
    13   11   12 2
    14   12   13 1
    15   12   14 1
    16   14   17 1
    17   14   18 2
    18   15   16 1
    19   15   19 2
    20   15   22 1
    21   16   17 2
    22   18   19 1
    23   20   22 2
    24   21   22 2
    25   22   27 1
    26   23   24 1
    27   23   28 1
    28   24   27 1
    29   25   26 1
    30   25   27 1
    31   26   28 1
    32    5   29 1
    33    6   30 1
    34    8   31 1
    35   10   32 1
    36   11   33 1
    37   16   34 1
    38   17   35 1
    39   18   36 1
    40   19   37 1
    41   23   38 1
    42   23   39 1
    43   24   40 1
    44   24   41 1
    45   25   42 1
    46   25   43 1
    47   26   44 1
    48   26   45 1
    49   28   46 1
    50   28   47 1
@<TRIPOS>PROPERTY_DATA
  Total_Score	| 6.3341
  Crash		| -0.9910
  Polar		| 1.6910
  FragIndex	| 1
  FragRMSD	| 0.397

