@<TRIPOS>MOLECULE
BindingDB_17147
 45 48 0 0 0
SMALL
NO_CHARGES


@<TRIPOS>ATOM
1    C        35.3161   19.2077    3.2994  C     
2    C        36.6168   20.9871    3.2100  C     
3    C        35.9739   18.9476    2.1431  C     
4    O        34.4435   18.5076    3.8026  O     
5    N        35.6610   20.3318    3.8736  N     
6    N        37.1516   22.1477    3.6094  N     
7    S        37.1075   20.1876    1.7625  S     
8    C        35.7808   17.8307    1.4084  C     
9    C        36.3479   17.5382    0.1782  C     
10   C        36.3000   16.3043   -0.4648  C     
11   C        36.9768   16.4316   -1.6666  C     
12   C        37.4231   17.7493   -1.7586  C     
13   O        37.0226   18.3901   -0.6307  O     
14   C        38.1399   18.3843   -2.8048  C     
15   C        39.5111   19.7244   -4.9080  C     
16   C        38.9594   20.4544   -3.8355  C     
17   C        38.2935   19.7900   -2.7926  C     
18   C        38.7056   17.6597   -3.8815  C     
19   C        39.3949   18.3161   -4.9192  C     
20   O        39.1092   21.3978   -6.9620  O     
21   O        41.1520   21.7951   -5.6700  O     
22   S        40.2613   20.5957   -6.2140  S     
23   C        41.1563   17.4680   -8.2756  C     
24   C        40.5389   18.8826   -8.3110  C     
25   C        42.6174   19.7673   -7.2855  C     
26   C        43.1887   18.3247   -7.2882  C     
27   N        41.1803   19.7028   -7.3177  N     
28   O        42.5991   17.5279   -8.3380  O     
29   H        35.2420   20.6554    4.6881  H     
30   H        36.8515   22.5694    4.4290  H     
31   H        35.1627   17.1383    1.7730  H     
32   H        35.8568   15.4537   -0.1159  H     
33   H        37.1059   15.6824   -2.3505  H     
34   H        39.0277   21.4743   -3.8086  H     
35   H        37.9049   20.3537   -2.0319  H     
36   H        38.6271   16.6438   -3.9222  H     
37   H        39.7980   17.7499   -5.6777  H     
38   H        40.8330   16.9792   -7.3546  H     
39   H        40.7930   16.8789   -9.1220  H     
40   H        40.6881   19.3193   -9.2961  H     
41   H        39.4679   18.7865   -8.1428  H     
42   H        43.0017   20.2903   -6.3990  H     
43   H        42.9719   20.3021   -8.1755  H     
44   H        44.2692   18.3588   -7.4444  H     
45   H        43.0060   17.8530   -6.3176  H     
@<TRIPOS>BOND
     1    1    3 1
     2    1    4 2
     3    1    5 1
     4    2    5 1
     5    2    6 2
     6    2    7 1
     7    3    7 1
     8    3    8 2
     9    8    9 1
    10    9   10 2
    11    9   13 1
    12   10   11 1
    13   11   12 2
    14   12   13 1
    15   12   14 1
    16   14   17 1
    17   14   18 2
    18   15   16 1
    19   15   19 2
    20   15   22 1
    21   16   17 2
    22   18   19 1
    23   20   22 2
    24   21   22 2
    25   22   27 1
    26   23   24 1
    27   23   28 1
    28   24   27 1
    29   25   26 1
    30   25   27 1
    31   26   28 1
    32    5   29 1
    33    6   30 1
    34    8   31 1
    35   10   32 1
    36   11   33 1
    37   16   34 1
    38   17   35 1
    39   18   36 1
    40   19   37 1
    41   23   38 1
    42   23   39 1
    43   24   40 1
    44   24   41 1
    45   25   42 1
    46   25   43 1
    47   26   44 1
    48   26   45 1
@<TRIPOS>PROPERTY_DATA
  Total_Score	| 5.8747
  Crash		| -1.5902
  Polar		| 0.9471
  FragIndex	| 1
  FragRMSD	| 1.299

