@<TRIPOS>MOLECULE
BindingDB_17151
 37 39 0 0 0
SMALL
NO_CHARGES


@<TRIPOS>ATOM
1    C        36.3524   20.5777    3.3995  C     
2    C        37.7309   22.0880    2.5801  C     
3    C        36.6748   19.9321    2.2315  C     
4    O        35.6395   20.1882    4.3138  O     
5    N        36.9021   21.7512    3.5592  N     
6    N        38.4116   23.2414    2.5684  N     
7    S        37.8420   20.8708    1.3703  S     
8    C        36.2156   18.7224    1.7892  C     
9    C        36.5661   18.1760    0.5300  C     
10   C        36.4998   16.8514    0.0766  C     
11   C        36.9977   16.8078   -1.2165  C     
12   C        37.3630   18.1067   -1.5686  C     
13   O        37.0784   18.8953   -0.5033  O     
14   C        37.9796   18.5787   -2.7604  C     
15   C        39.2453   19.5657   -5.1177  C     
16   C        39.0147   20.4205   -4.0197  C     
17   C        38.3912   19.9307   -2.8553  C     
18   C        38.2143   17.7335   -3.8712  C     
19   C        38.8340   18.2224   -5.0362  C     
20   S        39.9951   20.1801   -6.5654  S     
21   O        39.1029   21.3960   -7.0629  O     
22   O        41.4421   20.7073   -6.1693  O     
23   N        40.1265   19.0570   -7.8117  N     
24   C        35.3091   17.9444    2.6454  C     
25   H        36.7392   22.3218    4.3246  H     
26   H        39.0142   23.4410    1.8326  H     
27   H        36.1810   16.0275    0.5938  H     
28   H        37.1058   15.9598   -1.7786  H     
29   H        39.2967   21.4048   -4.0583  H     
30   H        38.2472   20.5760   -2.0735  H     
31   H        37.9376   16.7521   -3.8565  H     
32   H        38.9738   17.5869   -5.8224  H     
33   H        40.5872   19.3137   -8.6272  H     
34   H        39.5219   18.2945   -7.8338  H     
35   H        35.8172   17.7016    3.5839  H     
36   H        34.9603   17.0055    2.2148  H     
37   H        34.4092   18.5313    2.8563  H     
@<TRIPOS>BOND
     1    1    3 1
     2    1    4 2
     3    1    5 1
     4    2    5 1
     5    2    6 2
     6    2    7 1
     7    3    7 1
     8    3    8 2
     9    8    9 1
    10    8   24 1
    11    9   10 2
    12    9   13 1
    13   10   11 1
    14   11   12 2
    15   12   13 1
    16   12   14 1
    17   14   17 1
    18   14   18 2
    19   15   16 1
    20   15   19 2
    21   15   20 1
    22   16   17 2
    23   18   19 1
    24   20   21 2
    25   20   22 2
    26   20   23 am
    27    5   25 1
    28    6   26 1
    29   10   27 1
    30   11   28 1
    31   16   29 1
    32   17   30 1
    33   18   31 1
    34   19   32 1
    35   23   33 1
    36   23   34 1
    37   24   35 1
    38   24   36 1
    39   24   37 1
@<TRIPOS>PROPERTY_DATA
  Total_Score	| 5.7655
  Crash		| -1.7071
  Polar		| 2.6169
  FragIndex	| 1
  FragRMSD	| 1.303

