@<TRIPOS>MOLECULE
BindingDB_17141
 34 36 0 0 0
SMALL
NO_CHARGES


@<TRIPOS>ATOM
1    C        35.3290   19.1951    3.2854  C     
2    C        36.5996   20.9945    3.2257  C     
3    C        35.9804   18.9710    2.1174  C     
4    O        34.4840   18.4679    3.7886  O     
5    N        35.6618   20.3089    3.8833  N     
6    N        37.1217   22.1471    3.6688  N     
7    S        37.0765   20.2410    1.7451  S     
8    C        35.8156   17.8558    1.3758  C     
9    C        36.3834   17.5672    0.1438  C     
10   C        36.3317   16.3173   -0.4663  C     
11   C        36.9843   16.4161   -1.6810  C     
12   C        37.4214   17.7342   -1.8186  C     
13   O        37.0388   18.4068   -0.6997  O     
14   C        38.1003   18.3174   -2.9237  C     
15   C        39.3363   19.5326   -5.1883  C     
16   C        38.8686   20.3229   -4.1181  C     
17   C        38.2653   19.7212   -2.9970  C     
18   C        38.6008   17.5343   -3.9926  C     
19   C        39.2144   18.1313   -5.1076  C     
20   S        40.0101   20.2876   -6.6079  S     
21   O        39.1059   21.5376   -6.9919  O     
22   O        41.4861   20.7582   -6.2535  O     
23   N        40.0851   19.2518   -7.9295  N     
24   H        35.2535   20.6012    4.7151  H     
25   H        37.8038   22.6037    3.1515  H     
26   H        35.2160   17.1499    1.7439  H     
27   H        35.8954   15.4733   -0.0934  H     
28   H        37.0914   15.6507   -2.3481  H     
29   H        38.9480   21.3425   -4.1534  H     
30   H        37.9245   20.3256   -2.2451  H     
31   H        38.5213   16.5167   -3.9801  H     
32   H        39.5546   17.5319   -5.8630  H     
33   H        40.5690   19.5265   -8.7245  H     
34   H        39.4938   18.4807   -7.9706  H     
@<TRIPOS>BOND
     1    1    3 1
     2    1    4 2
     3    1    5 1
     4    2    5 1
     5    2    6 2
     6    2    7 1
     7    3    7 1
     8    3    8 2
     9    8    9 1
    10    9   10 2
    11    9   13 1
    12   10   11 1
    13   11   12 2
    14   12   13 1
    15   12   14 1
    16   14   17 1
    17   14   18 2
    18   15   16 1
    19   15   19 2
    20   15   20 1
    21   16   17 2
    22   18   19 1
    23   20   21 2
    24   20   22 2
    25   20   23 am
    26    5   24 1
    27    6   25 1
    28    8   26 1
    29   10   27 1
    30   11   28 1
    31   16   29 1
    32   17   30 1
    33   18   31 1
    34   19   32 1
    35   23   33 1
    36   23   34 1
@<TRIPOS>PROPERTY_DATA
  Total_Score	| 6.0814
  Crash		| -0.9010
  Polar		| 1.5618
  FragIndex	| 1
  FragRMSD	| 0.864

