@<TRIPOS>MOLECULE
BindingDB_17149
 37 39 0 0 0
SMALL
NO_CHARGES


@<TRIPOS>ATOM
1    C        35.2921   19.2128    3.3139  C     
2    C        36.5943   20.9877    3.2478  C     
3    C        35.9523   18.9618    2.1568  C     
4    O        34.4206   18.5122    3.8092  O     
5    N        35.6452   20.3232    3.9070  N     
6    N        37.1066   22.1488    3.6710  N     
7    S        37.0731   20.2093    1.7810  S     
8    C        35.7686   17.8446    1.4219  C     
9    C        36.3499   17.5302    0.2033  C     
10   C        36.2552   16.2875   -0.4160  C     
11   C        36.9427   16.3622   -1.6134  C     
12   C        37.4480   17.6577   -1.7295  C     
13   O        37.0703   18.3388   -0.6152  O     
14   C        38.1859   18.2242   -2.8059  C     
15   C        39.5283   19.4474   -5.0121  C     
16   C        39.1568   18.0859   -5.0460  C     
17   C        38.5098   17.4821   -3.9603  C     
18   C        38.5959   19.5753   -2.7561  C     
19   C        39.2797   20.2098   -3.8285  C     
20   S        40.1749   20.1034   -6.5060  S     
21   O        39.1535   21.1566   -7.1176  O     
22   O        41.5423   20.8941   -6.3223  O     
23   N        40.4399   18.9892   -7.7369  N     
24   C        39.7271   21.6316   -3.6690  C     
25   F        39.3671   22.2419   -2.4890  F     
26   F        41.0974   21.6961   -3.7076  F     
27   F        39.2058   22.4293   -4.6531  F     
28   H        35.2299   20.6355    4.7280  H     
29   H        37.7883   22.5991    3.1492  H     
30   H        35.1435   17.1593    1.7846  H     
31   H        35.7717   15.4631   -0.0583  H     
32   H        37.0387   15.5941   -2.2785  H     
33   H        39.3315   17.5106   -5.8730  H     
34   H        38.2584   16.4964   -4.0417  H     
35   H        38.3833   20.1093   -1.9109  H     
36   H        41.3488   18.7368   -7.9679  H     
37   H        39.6970   18.4456   -8.0528  H     
@<TRIPOS>BOND
     1    1    3 1
     2    1    4 2
     3    1    5 1
     4    2    5 1
     5    2    6 2
     6    2    7 1
     7    3    7 1
     8    3    8 2
     9    8    9 1
    10    9   10 2
    11    9   13 1
    12   10   11 1
    13   11   12 2
    14   12   13 1
    15   12   14 1
    16   14   17 1
    17   14   18 2
    18   15   16 1
    19   15   19 2
    20   15   20 1
    21   16   17 2
    22   18   19 1
    23   19   24 1
    24   20   21 2
    25   20   22 2
    26   20   23 am
    27   24   25 1
    28   24   26 1
    29   24   27 1
    30    5   28 1
    31    6   29 1
    32    8   30 1
    33   10   31 1
    34   11   32 1
    35   16   33 1
    36   17   34 1
    37   18   35 1
    38   23   36 1
    39   23   37 1
@<TRIPOS>PROPERTY_DATA
  Total_Score	| 5.7405
  Crash		| -1.2490
  Polar		| 1.6067
  FragIndex	| 1
  FragRMSD	| 1.143

