@<TRIPOS>MOLECULE
BindingDB_17145
 49 51 0 0 0
SMALL
NO_CHARGES


@<TRIPOS>ATOM
1    C        35.3509   19.1658    3.1557  C     
2    C        36.6055   20.9744    3.0600  C     
3    C        36.0146   18.9164    2.0062  C     
4    O        34.4825   18.4593    3.6542  O     
5    N        35.6692   20.3006    3.7287  N     
6    N        37.1345   22.1366    3.4694  N     
7    S        37.0801   20.1970    1.5979  S     
8    C        35.8678   17.7810    1.2872  C     
9    C        36.4159   17.4988    0.0437  C     
10   C        36.3741   16.2638   -0.5990  C     
11   C        37.0027   16.4087   -1.8262  C     
12   C        37.4167   17.7351   -1.9318  C     
13   O        37.0438   18.3664   -0.7888  O     
14   C        38.0767   18.3884   -3.0078  C     
15   C        39.3534   19.7684   -5.1579  C     
16   C        39.2609   18.3607   -5.1659  C     
17   C        38.6227   17.6821   -4.1081  C     
18   C        38.1922   19.7984   -3.0026  C     
19   C        38.8084   20.4781   -4.0686  C     
20   S        40.0939   20.6416   -6.4758  S     
21   O        40.4472   19.6868   -7.7001  O     
22   O        39.0025   21.6417   -7.0560  O     
23   N        41.4741   21.5230   -6.0619  N     
24   C        41.4447   22.8186   -5.4607  C     
25   C        41.0809   23.9416   -6.4659  C     
26   N        40.8584   25.2773   -5.8269  N     
27   C        42.0254   25.7661   -5.0341  C     
28   C        40.3913   26.3025   -6.8058  C     
29   H        35.2487   20.6152    4.5484  H     
30   H        36.8475   22.5386    4.3017  H     
31   H        35.2841   17.0643    1.6664  H     
32   H        35.9460   15.4076   -0.2409  H     
33   H        37.1102   15.6649   -2.5194  H     
34   H        39.6517   17.8185   -5.9371  H     
35   H        38.5696   16.6673   -4.1489  H     
36   H        37.8138   20.3500   -2.2387  H     
37   H        38.8472   21.4992   -4.0412  H     
38   H        42.3474   21.0944   -6.2035  H     
39   H        40.7306   22.8248   -4.6341  H     
40   H        42.4298   23.0011   -5.0421  H     
41   H        41.8691   24.0032   -7.2356  H     
42   H        40.1618   23.6384   -6.9702  H     
43   H        40.0892   25.1488   -5.1660  H     
44   H        42.2576   25.0726   -4.2240  H     
45   H        41.8001   26.7341   -4.5763  H     
46   H        42.9087   25.8759   -5.6679  H     
47   H        41.1476   26.4858   -7.5720  H     
48   H        40.1679   27.2405   -6.3011  H     
49   H        39.4740   25.9756   -7.2943  H     
@<TRIPOS>BOND
     1    1    3 1
     2    1    4 2
     3    1    5 1
     4    2    5 1
     5    2    6 2
     6    2    7 1
     7    3    7 1
     8    3    8 2
     9    8    9 1
    10    9   10 2
    11    9   13 1
    12   10   11 1
    13   11   12 2
    14   12   13 1
    15   12   14 1
    16   14   17 1
    17   14   18 2
    18   15   16 1
    19   15   19 2
    20   15   20 1
    21   16   17 2
    22   18   19 1
    23   20   21 2
    24   20   22 2
    25   20   23 1
    26   23   24 1
    27   24   25 1
    28   25   26 1
    29   26   27 1
    30   26   28 1
    31    5   29 1
    32    6   30 1
    33    8   31 1
    34   10   32 1
    35   11   33 1
    36   16   34 1
    37   17   35 1
    38   18   36 1
    39   19   37 1
    40   23   38 1
    41   24   39 1
    42   24   40 1
    43   25   41 1
    44   25   42 1
    45   26   43 1
    46   27   44 1
    47   27   45 1
    48   27   46 1
    49   28   47 1
    50   28   48 1
    51   28   49 1
@<TRIPOS>PROPERTY_DATA
  Total_Score	| 7.7344
  Crash		| -1.1684
  Polar		| 2.7617
  FragIndex	| 1
  FragRMSD	| 0.382

