@<TRIPOS>MOLECULE
BindingDB_17143
 31 33 0 0 0
SMALL
NO_CHARGES


@<TRIPOS>ATOM
1    C        35.4274   19.1492    3.1837  C     
2    C        36.5625   21.0363    3.1090  C     
3    C        36.0695   18.9775    2.0010  C     
4    O        34.6488   18.3618    3.7018  O     
5    N        35.6882   20.2832    3.7798  N     
6    N        37.0054   22.2232    3.5467  N     
7    S        37.0681   20.3224    1.6180  S     
8    C        35.9583   17.8630    1.2485  C     
9    C        36.5159   17.6221    0.0002  C     
10   C        36.4743   16.3913   -0.6477  C     
11   C        37.1047   16.5383   -1.8700  C     
12   C        37.5223   17.8648   -1.9708  C     
13   O        37.1432   18.4986   -0.8282  O     
14   C        38.1551   18.4863   -3.0820  C     
15   C        39.2558   19.7633   -5.4015  C     
16   C        39.3604   18.3655   -5.2226  C     
17   C        38.8026   17.7374   -4.0933  C     
18   C        38.1181   19.8912   -3.2294  C     
19   C        38.6321   20.5166   -4.3819  C     
20   C        39.7524   20.3862   -6.5729  C     
21   O        39.2962   21.5925   -6.9843  O     
22   O        40.7195   19.8089   -7.3214  O     
23   H        35.2690   20.5452    4.6167  H     
24   H        37.6421   22.7302    3.0189  H     
25   H        35.4124   17.1170    1.6215  H     
26   H        36.0548   15.5285   -0.2961  H     
27   H        37.2047   15.8008   -2.5705  H     
28   H        39.8110   17.7814   -5.9331  H     
29   H        38.8799   16.7207   -4.0203  H     
30   H        37.6863   20.4765   -2.5108  H     
31   H        38.5528   21.5345   -4.4635  H     
@<TRIPOS>BOND
     1    1    3 1
     2    1    4 2
     3    1    5 1
     4    2    5 1
     5    2    6 2
     6    2    7 1
     7    3    7 1
     8    3    8 2
     9    8    9 1
    10    9   10 2
    11    9   13 1
    12   10   11 1
    13   11   12 2
    14   12   13 1
    15   12   14 1
    16   14   17 1
    17   14   18 2
    18   15   16 1
    19   15   19 2
    20   15   20 1
    21   16   17 2
    22   18   19 1
    23   20   21 2
    24   20   22 1
    25    5   23 1
    26    6   24 1
    27    8   25 1
    28   10   26 1
    29   11   27 1
    30   16   28 1
    31   17   29 1
    32   18   30 1
    33   19   31 1
@<TRIPOS>PROPERTY_DATA
  Total_Score	| 4.6697
  Crash		| -0.9147
  Polar		| 1.1046
  FragIndex	| 1
  FragRMSD	| 0.310

