@<TRIPOS>MOLECULE
BindingDB_17148
 33 35 0 0 0
SMALL
NO_CHARGES


@<TRIPOS>ATOM
1    C        35.3879   19.2681    3.2978  C     
2    C        36.6259   21.0848    3.1805  C     
3    C        36.0399   19.0277    2.1345  C     
4    O        34.5306   18.5563    3.8043  O     
5    N        35.7056   20.4005    3.8668  N     
6    N        37.1452   22.2439    3.6047  N     
7    S        37.1170   20.2982    1.7214  S     
8    C        35.8940   17.8853    1.4241  C     
9    C        36.4380   17.5889    0.1845  C     
10   C        36.3408   16.3417   -0.4229  C     
11   C        36.9475   16.4287   -1.6606  C     
12   C        37.4014   17.7428   -1.8110  C     
13   O        37.0695   18.4230   -0.6803  O     
14   C        38.0522   18.3241   -2.9330  C     
15   C        39.2852   19.5551   -5.2193  C     
16   C        38.8950   20.3220   -4.0950  C     
17   C        38.2914   19.7178   -2.9759  C     
18   C        38.4673   17.5534   -4.0448  C     
19   C        39.0678   18.1551   -5.1652  C     
20   C        39.8549   20.1649   -6.3399  C     
21   O        40.2134   21.3334   -6.3244  O     
22   N        40.0353   19.5391   -7.4870  N     
23   H        35.2827   20.7053    4.6899  H     
24   H        37.8306   22.6893    3.0856  H     
25   H        35.3103   17.1820    1.8149  H     
26   H        35.9198   15.5031   -0.0218  H     
27   H        37.0145   15.6557   -2.3303  H     
28   H        39.0223   21.3335   -4.0807  H     
29   H        38.0136   20.3173   -2.1938  H     
30   H        38.3401   16.5398   -4.0510  H     
31   H        39.3417   17.5493   -5.9373  H     
32   H        40.4449   20.0076   -8.2344  H     
33   H        39.7419   18.6206   -7.6029  H     
@<TRIPOS>BOND
     1    1    3 1
     2    1    4 2
     3    1    5 1
     4    2    5 1
     5    2    6 2
     6    2    7 1
     7    3    7 1
     8    3    8 2
     9    8    9 1
    10    9   10 2
    11    9   13 1
    12   10   11 1
    13   11   12 2
    14   12   13 1
    15   12   14 1
    16   14   17 1
    17   14   18 2
    18   15   16 1
    19   15   19 2
    20   15   20 1
    21   16   17 2
    22   18   19 1
    23   20   21 2
    24   20   22 am
    25    5   23 1
    26    6   24 1
    27    8   25 1
    28   10   26 1
    29   11   27 1
    30   16   28 1
    31   17   29 1
    32   18   30 1
    33   19   31 1
    34   22   32 1
    35   22   33 1
@<TRIPOS>PROPERTY_DATA
  Total_Score	| 4.5980
  Crash		| -0.7231
  Polar		| 0.4451
  FragIndex	| 1
  FragRMSD	| 0.281

