@<TRIPOS>MOLECULE
BindingDB_17144
 37 39 0 0 0
SMALL
NO_CHARGES


@<TRIPOS>ATOM
1    C        35.3025   19.1001    3.2224  C     
2    C        36.5343   20.9223    3.1457  C     
3    C        35.9328   18.8950    2.0389  C     
4    O        34.4589   18.3661    3.7202  O     
5    N        35.6286   20.2169    3.8232  N     
6    N        37.0396   22.0835    3.5801  N     
7    S        36.9979   20.1877    1.6546  S     
8    C        35.7869   17.7774    1.2940  C     
9    C        36.3475   17.5296    0.0489  C     
10   C        36.3298   16.2952   -0.5965  C     
11   C        36.9988   16.4416   -1.7974  C     
12   C        37.3996   17.7727   -1.8878  C     
13   O        36.9893   18.4056   -0.7626  O     
14   C        38.1195   18.4014   -2.9381  C     
15   C        39.5331   19.7129   -5.0335  C     
16   C        39.4334   18.3101   -5.0079  C     
17   C        38.7232   17.6624   -3.9797  C     
18   C        38.2448   19.8061   -2.9588  C     
19   C        38.9292   20.4562   -3.9976  C     
20   S        40.3433   20.5635   -6.3159  S     
21   O        40.7412   19.5954   -7.5112  O     
22   O        39.2445   21.5778   -6.8622  O     
23   N        41.6901   21.3831   -5.7008  N     
24   C        42.0046   22.7063   -6.0886  C     
25   H        35.2340   20.4985    4.6660  H     
26   H        37.7028   22.5541    3.0511  H     
27   H        35.2182   17.0465    1.6623  H     
28   H        35.9141   15.4317   -0.2476  H     
29   H        37.1521   15.6928   -2.4768  H     
30   H        39.8578   17.7416   -5.7444  H     
31   H        38.6620   16.6438   -4.0045  H     
32   H        37.8245   20.3842   -2.2276  H     
33   H        38.9693   21.4762   -4.0052  H     
34   H        42.1564   21.0137   -4.9291  H     
35   H        41.9478   22.8222   -7.1728  H     
36   H        43.0220   22.9292   -5.7667  H     
37   H        41.3192   23.4085   -5.6128  H     
@<TRIPOS>BOND
     1    1    3 1
     2    1    4 2
     3    1    5 1
     4    2    5 1
     5    2    6 2
     6    2    7 1
     7    3    7 1
     8    3    8 2
     9    8    9 1
    10    9   10 2
    11    9   13 1
    12   10   11 1
    13   11   12 2
    14   12   13 1
    15   12   14 1
    16   14   17 1
    17   14   18 2
    18   15   16 1
    19   15   19 2
    20   15   20 1
    21   16   17 2
    22   18   19 1
    23   20   21 2
    24   20   22 2
    25   20   23 1
    26   23   24 1
    27    5   25 1
    28    6   26 1
    29    8   27 1
    30   10   28 1
    31   11   29 1
    32   16   30 1
    33   17   31 1
    34   18   32 1
    35   19   33 1
    36   23   34 1
    37   24   35 1
    38   24   36 1
    39   24   37 1
@<TRIPOS>PROPERTY_DATA
  Total_Score	| 5.3112
  Crash		| -0.7851
  Polar		| 1.3246
  FragIndex	| 1
  FragRMSD	| 0.830

