@<TRIPOS>MOLECULE
BindingDB_15811
 89 91 0 0 0
SMALL
NO_CHARGES


@<TRIPOS>ATOM
1    C        34.9338   28.0606   21.8493  C     
2    C        35.7475   28.3930   20.7281  C     
3    C        35.2960   29.3795   19.8199  C     
4    C        33.2840   29.7399   21.1168  C     
5    C        33.7206   28.7725   22.0411  C     
6    N        35.2480   27.0483   22.7580  N     
7    C        35.5903   27.3571   24.0266  C     
8    O        35.5866   26.4966   24.9013  O     
9    C        35.9306   28.6329   24.4557  C     
10   O        35.2014   29.2977   25.3748  O     
11   O        37.1247   29.1751   24.1181  O     
12   C        34.9827   25.7193   22.3619  C     
13   C        35.6009   23.3582   22.0310  C     
14   C        34.3665   23.0957   21.4192  C     
15   C        33.4309   24.1302   21.2832  C     
16   C        33.7258   25.4172   21.7578  C     
17   C        35.9194   24.6521   22.5029  C     
18   C        37.1965   24.8193   23.0713  C     
19   O        38.2495   24.9160   22.2229  O     
20   O        37.4564   24.1416   24.2047  O     
21   C        37.0472   27.7191   20.4252  C     
22   C        38.2890   28.5386   20.8476  C     
23   C        34.0624   30.0488   19.9818  C     
24   C        33.6437   31.0295   18.9332  C     
25   C        32.1755   31.5381   18.8608  C     
26   N        31.8340   32.3262   17.7055  N     
27   C        32.5679   32.7044   16.6683  C     
28   C        31.9210   33.4963   15.6400  C     
29   O        33.7579   32.4126   16.5617  O     
30   C        31.1944   30.4710   18.9232  C     
31   O        31.3706   29.4360   18.2879  O     
32   N        30.0453   30.6790   19.5578  N     
33   C        28.9527   29.7633   19.6540  C     
34   C        27.9054   30.2874   20.6663  C     
35   C        28.3799   30.2111   22.1503  C     
36   C        27.5485   31.0710   23.1452  C     
37   C        26.1089   30.9509   22.9843  C     
38   O        25.5157   30.0899   23.6337  O     
39   N        25.4703   31.7461   22.1494  N     
40   C        24.0650   31.7210   21.8191  C     
41   C        23.2123   32.1979   23.0404  C     
42   C        21.7887   31.7480   23.1788  C     
43   C        21.0390   31.1315   22.1473  C     
44   C        19.7060   30.7256   22.3624  C     
45   C        19.1094   30.9075   23.6220  C     
46   C        19.8372   31.5124   24.6581  C     
47   C        21.1583   31.9475   24.4359  C     
48   C        23.9094   32.4865   20.5966  C     
49   O        23.1956   33.4843   20.5262  O     
50   N        24.5705   32.1593   19.4972  N     
51   H        35.8767   29.5941   18.9965  H     
52   H        32.3943   30.2109   21.2692  H     
53   H        33.1185   28.5552   22.8427  H     
54   H        36.2696   22.5928   22.1127  H     
55   H        34.1586   22.1667   21.0620  H     
56   H        32.5325   23.9528   20.8288  H     
57   H        33.0042   26.1379   21.6565  H     
58   H        37.1148   26.7548   20.9209  H     
59   H        37.1029   27.5208   19.3503  H     
60   H        38.2645   29.5372   20.4102  H     
61   H        39.1982   28.0328   20.5098  H     
62   H        38.3272   28.6193   21.9399  H     
63   H        34.2969   31.8997   19.0410  H     
64   H        33.8517   30.5951   17.9500  H     
65   H        32.0401   32.2087   19.7157  H     
66   H        30.9024   32.5892   17.6665  H     
67   H        31.0547   32.9586   15.2420  H     
68   H        32.5961   33.7162   14.8132  H     
69   H        31.5818   34.4443   16.0665  H     
70   H        29.9320   31.5400   20.0023  H     
71   H        28.4805   29.6763   18.6759  H     
72   H        29.3019   28.7724   19.9658  H     
73   H        27.6521   31.3215   20.4118  H     
74   H        26.9935   29.6907   20.5637  H     
75   H        28.3709   29.1665   22.4829  H     
76   H        29.4181   30.5631   22.2145  H     
77   H        27.8111   30.7840   24.1691  H     
78   H        27.8513   32.1164   23.0231  H     
79   H        26.0168   32.3822   21.6532  H     
80   H        23.7749   30.6856   21.5998  H     
81   H        23.7314   31.8528   23.9416  H     
82   H        23.2139   33.2933   23.0727  H     
83   H        21.4419   30.9688   21.2240  H     
84   H        19.1766   30.2936   21.6026  H     
85   H        18.1456   30.6012   23.7859  H     
86   H        19.4138   31.6383   25.5803  H     
87   H        21.6660   32.3961   25.2061  H     
88   H        24.4648   32.6787   18.6868  H     
89   H        25.1871   31.4079   19.5145  H     
@<TRIPOS>BOND
     1    1    2 2
     2    1    5 1
     3    1    6 1
     4    2    3 1
     5    2   21 1
     6    3   23 2
     7    4    5 2
     8    4   23 1
     9    6    7 am
    10    6   12 1
    11    7    8 2
    12    7    9 1
    13    9   10 2
    14    9   11 1
    15   12   16 2
    16   12   17 1
    17   13   14 1
    18   13   17 2
    19   14   15 2
    20   15   16 1
    21   17   18 1
    22   18   19 2
    23   18   20 1
    24   21   22 1
    25   23   24 1
    26   24   25 1
    27   25   26 1
    28   25   30 1
    29   26   27 am
    30   27   28 1
    31   27   29 2
    32   30   31 2
    33   30   32 am
    34   32   33 1
    35   33   34 1
    36   34   35 1
    37   35   36 1
    38   36   37 1
    39   37   38 2
    40   37   39 am
    41   39   40 1
    42   40   41 1
    43   40   48 1
    44   41   42 1
    45   42   43 2
    46   42   47 1
    47   43   44 1
    48   44   45 2
    49   45   46 1
    50   46   47 2
    51   48   49 2
    52   48   50 am
    53    3   51 1
    54    4   52 1
    55    5   53 1
    56   13   54 1
    57   14   55 1
    58   15   56 1
    59   16   57 1
    60   21   58 1
    61   21   59 1
    62   22   60 1
    63   22   61 1
    64   22   62 1
    65   24   63 1
    66   24   64 1
    67   25   65 1
    68   26   66 1
    69   28   67 1
    70   28   68 1
    71   28   69 1
    72   32   70 1
    73   33   71 1
    74   33   72 1
    75   34   73 1
    76   34   74 1
    77   35   75 1
    78   35   76 1
    79   36   77 1
    80   36   78 1
    81   39   79 1
    82   40   80 1
    83   41   81 1
    84   41   82 1
    85   43   83 1
    86   44   84 1
    87   45   85 1
    88   46   86 1
    89   47   87 1
    90   50   88 1
    91   50   89 1
@<TRIPOS>PROPERTY_DATA
  Total_Score	| 17.4557
  Crash		| -2.6865
  Polar		| 14.7953
  FragIndex	| 1
  FragRMSD	| 0.798

