@<TRIPOS>MOLECULE
BindingDB_13967
 58 59 0 0 0
SMALL
NO_CHARGES


@<TRIPOS>ATOM
1    C        35.4941   27.4893   23.9664  C     
2    O        35.6369   26.5544   24.7461  O     
3    C        35.8260   28.7329   24.4630  C     
4    O        35.1022   29.3508   25.4287  O     
5    O        37.0589   29.2380   24.1880  O     
6    C        34.9076   26.0003   22.2058  C     
7    C        35.7439   23.7407   21.7022  C     
8    C        34.4503   23.3300   21.3319  C     
9    C        33.3902   24.2436   21.3775  C     
10   C        33.6134   25.5655   21.8088  C     
11   C        35.9986   25.0702   22.1357  C     
12   C        37.3368   25.4147   22.4867  C     
13   O        37.7609   26.7035   22.4785  O     
14   O        38.2672   24.4719   22.7608  O     
15   N        35.0405   27.2799   22.7059  N     
16   C        34.5334   28.3234   21.9444  C     
17   C        35.2218   28.8139   20.8073  C     
18   C        34.6711   29.8468   20.0248  C     
19   C        32.7409   29.9415   21.4992  C     
20   C        33.2876   28.9074   22.2757  C     
21   C        33.4180   30.4222   20.3555  C     
22   C        32.7733   31.4318   19.4718  C     
23   C        32.1565   30.7735   18.2041  C     
24   N        31.7107   31.7959   17.2417  N     
25   C        31.0566   29.8582   18.4924  C     
26   O        31.1470   28.7083   18.0721  O     
27   N        30.0160   30.2321   19.2330  N     
28   C        28.9291   29.4044   19.6631  C     
29   C        28.4131   29.7842   21.0785  C     
30   C        27.5988   31.1113   21.1806  C     
31   C        26.5753   31.1599   22.3444  C     
32   C        27.2232   31.1090   23.7473  C     
33   H        36.4955   23.0544   21.6339  H     
34   H        34.2880   22.3655   21.0324  H     
35   H        32.4481   23.9521   21.1008  H     
36   H        32.8121   26.1980   21.8531  H     
37   H        36.1194   28.4041   20.5338  H     
38   H        35.1791   30.1668   19.1935  H     
39   H        31.8275   30.3221   21.7559  H     
40   H        32.7611   28.5674   23.0805  H     
41   H        31.9930   31.9822   20.0050  H     
42   H        33.5199   32.1742   19.1705  H     
43   H        32.9633   30.2342   17.6917  H     
44   H        30.8403   32.2423   17.5519  H     
45   H        31.5538   31.3597   16.3321  H     
46   H        32.4409   32.5146   17.1396  H     
47   H        29.9822   31.1656   19.5002  H     
48   H        28.1178   29.4969   18.9328  H     
49   H        29.2128   28.3462   19.6698  H     
50   H        27.8056   28.9482   21.4437  H     
51   H        29.2744   29.8421   21.7642  H     
52   H        28.2921   31.9553   21.2998  H     
53   H        27.0568   31.2919   20.2501  H     
54   H        26.0041   32.0890   22.2762  H     
55   H        25.8703   30.3295   22.2378  H     
56   H        27.9234   30.2694   23.8280  H     
57   H        26.4501   30.9825   24.5138  H     
58   H        27.7694   32.0296   23.9583  H     
@<TRIPOS>BOND
     1    1    2 2
     2    1    3 1
     3    1   15 am
     4    3    4 2
     5    3    5 1
     6    6   10 2
     7    6   11 1
     8    6   15 1
     9    7    8 1
    10    7   11 2
    11    8    9 2
    12    9   10 1
    13   11   12 1
    14   12   13 1
    15   12   14 2
    16   15   16 1
    17   16   17 2
    18   16   20 1
    19   17   18 1
    20   18   21 2
    21   19   20 2
    22   19   21 1
    23   21   22 1
    24   22   23 1
    25   23   24 1
    26   23   25 1
    27   25   26 2
    28   25   27 am
    29   27   28 1
    30   28   29 1
    31   29   30 1
    32   30   31 1
    33   31   32 1
    34    7   33 1
    35    8   34 1
    36    9   35 1
    37   10   36 1
    38   17   37 1
    39   18   38 1
    40   19   39 1
    41   20   40 1
    42   22   41 1
    43   22   42 1
    44   23   43 1
    45   24   44 1
    46   24   45 1
    47   24   46 1
    48   27   47 1
    49   28   48 1
    50   28   49 1
    51   29   50 1
    52   29   51 1
    53   30   52 1
    54   30   53 1
    55   31   54 1
    56   31   55 1
    57   32   56 1
    58   32   57 1
    59   32   58 1
@<TRIPOS>PROPERTY_DATA
  Total_Score	| 15.6536
  Crash		| -1.7326
  Polar		| 13.4765
  FragIndex	| 1
  FragRMSD	| 0.922

