@<TRIPOS>MOLECULE
BindingDB_13971
 68 69 0 0 0
SMALL
NO_CHARGES


@<TRIPOS>ATOM
1    C        35.5282   27.4590   24.0139  C     
2    O        35.4772   26.5977   24.8821  O     
3    C        35.8471   28.7248   24.4729  C     
4    O        37.0411   29.2711   24.1508  O     
5    O        35.1158   29.3534   25.4156  O     
6    C        35.0999   25.8261   22.3399  C     
7    C        35.7124   23.4602   22.0796  C     
8    C        34.4201   23.1541   21.6296  C     
9    C        33.4640   24.1690   21.5187  C     
10   C        33.7996   25.4856   21.8725  C     
11   C        36.0802   24.7837   22.4471  C     
12   C        37.4216   24.9936   22.8813  C     
13   O        38.3981   24.0835   22.6579  O     
14   O        37.8593   26.1324   23.4688  O     
15   N        35.3345   27.1449   22.7132  N     
16   C        35.0280   28.1367   21.7776  C     
17   C        33.3939   29.8292   21.0404  C     
18   C        33.8252   28.8677   21.9646  C     
19   C        34.1352   30.0787   19.8710  C     
20   C        33.6944   31.0230   18.7917  C     
21   C        32.2087   31.4940   18.7285  C     
22   N        31.8025   32.2981   17.6046  N     
23   C        31.2628   30.3837   18.7886  C     
24   O        31.4600   29.3916   18.0970  O     
25   N        30.1962   30.4719   19.5732  N     
26   C        29.1882   29.4728   19.7180  C     
27   C        28.4205   29.6216   21.0521  C     
28   C        27.5872   30.9323   21.1553  C     
29   C        26.5918   30.9748   22.3437  C     
30   C        27.2564   31.0290   23.7386  C     
31   C        31.7531   33.6053   15.6200  C     
32   C        32.4659   32.7591   16.5543  C     
33   O        33.6443   32.5146   16.3432  O     
34   C        35.3653   29.4046   19.7080  C     
35   C        35.8282   28.4358   20.6307  C     
36   C        37.1440   27.8013   20.3321  C     
37   C        38.3355   28.6155   20.8780  C     
38   H        36.3795   22.6896   22.1343  H     
39   H        34.1804   22.1905   21.3772  H     
40   H        32.5225   23.9494   21.1723  H     
41   H        33.0735   26.1997   21.7811  H     
42   H        32.5357   30.3371   21.2392  H     
43   H        33.2376   28.6777   22.7866  H     
44   H        34.3270   31.9053   18.8784  H     
45   H        33.9167   30.5431   17.8387  H     
46   H        32.0553   32.1499   19.5932  H     
47   H        30.8675   32.5450   17.6253  H     
48   H        30.0969   31.2790   20.1016  H     
49   H        28.4853   29.5338   18.8836  H     
50   H        29.6595   28.4844   19.6969  H     
51   H        27.7483   28.7609   21.1578  H     
52   H        29.1393   29.5788   21.8769  H     
53   H        28.2602   31.7900   21.2273  H     
54   H        27.0121   31.0475   20.2344  H     
55   H        25.9654   31.8681   22.2405  H     
56   H        25.9275   30.1044   22.2982  H     
57   H        27.8635   30.1408   23.9070  H     
58   H        26.4907   31.0718   24.5155  H     
59   H        27.8878   31.9160   23.8196  H     
60   H        30.8788   33.0755   15.2249  H     
61   H        32.3842   33.8992   14.7746  H     
62   H        31.4167   34.5149   16.1309  H     
63   H        35.9304   29.6129   18.8783  H     
64   H        37.1918   26.7914   20.7311  H     
65   H        37.2658   27.6861   19.2502  H     
66   H        38.3563   29.6162   20.4381  H     
67   H        39.2731   28.1085   20.6345  H     
68   H        38.2696   28.7113   21.9674  H     
@<TRIPOS>BOND
     1    1    2 2
     2    1    3 1
     3    1   15 am
     4    3    4 2
     5    3    5 1
     6    6   10 2
     7    6   11 1
     8    6   15 1
     9    7    8 1
    10    7   11 2
    11    8    9 2
    12    9   10 1
    13   11   12 1
    14   12   13 1
    15   12   14 2
    16   15   16 1
    17   16   18 1
    18   16   35 2
    19   17   18 2
    20   17   19 1
    21   19   20 1
    22   19   34 2
    23   20   21 1
    24   21   22 1
    25   21   23 1
    26   22   32 am
    27   23   24 2
    28   23   25 am
    29   25   26 1
    30   26   27 1
    31   27   28 1
    32   28   29 1
    33   29   30 1
    34   31   32 1
    35   32   33 2
    36   34   35 1
    37   35   36 1
    38   36   37 1
    39    7   38 1
    40    8   39 1
    41    9   40 1
    42   10   41 1
    43   17   42 1
    44   18   43 1
    45   20   44 1
    46   20   45 1
    47   21   46 1
    48   22   47 1
    49   25   48 1
    50   26   49 1
    51   26   50 1
    52   27   51 1
    53   27   52 1
    54   28   53 1
    55   28   54 1
    56   29   55 1
    57   29   56 1
    58   30   57 1
    59   30   58 1
    60   30   59 1
    61   31   60 1
    62   31   61 1
    63   31   62 1
    64   34   63 1
    65   36   64 1
    66   36   65 1
    67   37   66 1
    68   37   67 1
    69   37   68 1
@<TRIPOS>PROPERTY_DATA
  Total_Score	| 15.7579
  Crash		| -2.1938
  Polar		| 12.9571
  FragIndex	| 1
  FragRMSD	| 0.510

