@<TRIPOS>MOLECULE
BindingDB_50149232
 87 91 0 0 0
SMALL
NO_CHARGES


@<TRIPOS>ATOM
1    C        35.6909   23.5089   21.7790  C     
2    C        34.4045   23.1966   21.3272  C     
3    C        33.4000   24.1718   21.3810  C     
4    C        33.6926   25.4535   21.8691  C     
5    C        35.0082   25.8165   22.2950  C     
6    C        36.0169   24.8007   22.2794  C     
7    C        37.3605   24.9255   22.7196  C     
8    O        38.3815   24.4874   21.9503  O     
9    O        37.7044   25.5008   23.9020  O     
10   N        35.2166   27.1522   22.6816  N     
11   C        34.8058   28.1687   21.8121  C     
12   C        35.4944   27.5085   23.9449  C     
13   C        35.8045   28.7775   24.3767  C     
14   O        35.6427   26.6505   24.8163  O     
15   O        35.0624   29.3665   25.3492  O     
16   O        37.0365   29.2866   24.1165  O     
17   C        33.8454   30.3547   20.2046  C     
18   C        33.0499   29.7708   21.2160  C     
19   C        33.5130   28.7015   21.9881  C     
20   C        35.1592   29.8230   19.9930  C     
21   C        35.6446   28.7462   20.8155  C     
22   C        36.9681   28.3165   20.6367  C     
23   C        37.7716   28.9120   19.7335  C     
24   C        37.3064   29.8961   18.9229  C     
25   C        33.2451   31.5135   19.4576  C     
26   C        32.1707   31.0922   18.3982  C     
27   C        30.9540   30.6169   19.0372  C     
28   N        31.8157   32.1829   17.5348  N     
29   C        36.0381   30.3333   19.0149  C     
30   C        32.5962   32.7705   16.6307  C     
31   C        32.0477   33.8458   15.8435  C     
32   O        33.7585   32.4142   16.4470  O     
33   O        30.3213   31.4169   19.7075  O     
34   N        30.5840   29.3318   18.9689  N     
35   C        29.5408   28.7047   19.7185  C     
36   C        28.1377   29.3950   19.6069  C     
37   C        27.7681   30.4288   20.7185  C     
38   C        27.2670   29.8267   22.0683  C     
39   C        25.8659   29.1724   21.9734  C     
40   O        25.6067   28.5459   23.2501  O     
41   C        24.3290   28.5478   23.6686  C     
42   C        23.8330   29.7129   24.1470  C     
43   C        22.3632   27.3862   24.3298  C     
44   C        23.6105   27.3670   23.7865  C     
45   C        21.7875   28.5815   24.7768  C     
46   C        22.5542   29.7800   24.6984  C     
47   C        22.0072   30.9962   25.1699  C     
48   C        20.7064   31.0239   25.7141  C     
49   C        19.9480   29.8435   25.7853  C     
50   C        20.4772   28.6312   25.3110  C     
51   C        24.1497   26.1494   23.4055  C     
52   O        24.4740   25.8856   22.1200  O     
53   O        24.6847   25.3430   24.3490  O     
54   H        36.4008   22.7646   21.7373  H     
55   H        34.1997   22.2607   20.9571  H     
56   H        32.4573   23.9445   21.0599  H     
57   H        32.9303   26.1317   21.8947  H     
58   H        32.1147   30.1288   21.4173  H     
59   H        32.8897   28.3231   22.7114  H     
60   H        37.3480   27.5965   21.2000  H     
61   H        38.7197   28.6102   19.6406  H     
62   H        37.9097   30.2969   18.2356  H     
63   H        32.7989   32.2165   20.1760  H     
64   H        34.0210   32.1038   18.9739  H     
65   H        32.5948   30.2850   17.7846  H     
66   H        30.8934   32.4865   17.5787  H     
67   H        35.7456   31.0165   18.3578  H     
68   H        31.1345   33.5111   15.3356  H     
69   H        32.7589   34.1859   15.0823  H     
70   H        31.8018   34.6967   16.4922  H     
71   H        31.1509   28.7476   18.4433  H     
72   H        29.4437   27.6975   19.3042  H     
73   H        29.8511   28.5846   20.7523  H     
74   H        28.0651   29.8890   18.6340  H     
75   H        27.3678   28.6289   19.6035  H     
76   H        28.6270   31.0602   20.9388  H     
77   H        27.0113   31.1120   20.3176  H     
78   H        27.9806   29.1041   22.4540  H     
79   H        27.1969   30.6509   22.7926  H     
80   H        25.1321   29.9399   21.7064  H     
81   H        25.8559   28.3986   21.2018  H     
82   H        24.3882   30.5359   24.0995  H     
83   H        21.8399   26.5401   24.4141  H     
84   H        22.5425   31.8666   25.1207  H     
85   H        20.3144   31.9042   26.0569  H     
86   H        19.0022   29.8725   26.1741  H     
87   H        19.9073   27.7845   25.3593  H     
@<TRIPOS>BOND
     1    1    2 2
     2    1    6 1
     3    2    3 1
     4    3    4 2
     5    4    5 1
     6    5    6 2
     7    5   10 1
     8    6    7 1
     9    7    8 1
    10    7    9 2
    11   10   11 1
    12   10   12 am
    13   11   19 1
    14   11   21 2
    15   12   13 1
    16   12   14 2
    17   13   15 2
    18   13   16 1
    19   17   18 1
    20   17   20 2
    21   17   25 1
    22   18   19 2
    23   20   21 1
    24   20   29 1
    25   21   22 1
    26   22   23 2
    27   23   24 1
    28   24   29 2
    29   25   26 1
    30   26   27 1
    31   26   28 1
    32   27   33 2
    33   27   34 am
    34   28   30 am
    35   30   31 1
    36   30   32 2
    37   34   35 1
    38   35   36 1
    39   36   37 1
    40   37   38 1
    41   38   39 1
    42   39   40 1
    43   40   41 1
    44   41   42 2
    45   41   44 1
    46   42   46 1
    47   43   44 2
    48   43   45 1
    49   44   51 1
    50   45   46 1
    51   45   50 2
    52   46   47 2
    53   47   48 1
    54   48   49 2
    55   49   50 1
    56   51   52 1
    57   51   53 2
    58    1   54 1
    59    2   55 1
    60    3   56 1
    61    4   57 1
    62   18   58 1
    63   19   59 1
    64   22   60 1
    65   23   61 1
    66   24   62 1
    67   25   63 1
    68   25   64 1
    69   26   65 1
    70   28   66 1
    71   29   67 1
    72   31   68 1
    73   31   69 1
    74   31   70 1
    75   34   71 1
    76   35   72 1
    77   35   73 1
    78   36   74 1
    79   36   75 1
    80   37   76 1
    81   37   77 1
    82   38   78 1
    83   38   79 1
    84   39   80 1
    85   39   81 1
    86   42   82 1
    87   43   83 1
    88   47   84 1
    89   48   85 1
    90   49   86 1
    91   50   87 1
@<TRIPOS>PROPERTY_DATA
  Total_Score	| 19.5396
  Crash		| -2.9104
  Polar		| 15.8064
  FragIndex	| 1
  FragRMSD	| 0.724

