@<TRIPOS>MOLECULE
BindingDB_15812
 87 89 0 0 0
SMALL
NO_CHARGES


@<TRIPOS>ATOM
1    C        34.9638   28.1748   21.8378  C     
2    C        35.8793   28.6529   20.8587  C     
3    C        35.4482   29.6994   20.0001  C     
4    C        33.2726   29.7664   21.0543  C     
5    C        33.6799   28.7588   21.9373  C     
6    N        35.2802   27.1651   22.7491  N     
7    C        35.4766   27.4722   24.0482  C     
8    O        35.4138   26.6100   24.9150  O     
9    C        35.8370   28.7400   24.4886  C     
10   O        35.0980   29.4049   25.3952  O     
11   O        37.0225   29.2615   24.1271  O     
12   C        35.0728   25.8443   22.3571  C     
13   C        35.7368   23.5043   22.0528  C     
14   C        34.4545   23.1812   21.5876  C     
15   C        33.4693   24.1715   21.5124  C     
16   C        33.7773   25.4861   21.9008  C     
17   C        36.0768   24.8290   22.4438  C     
18   C        37.4156   25.0413   22.9045  C     
19   O        38.3998   24.1583   22.6377  O     
20   O        37.8356   26.1375   23.5752  O     
21   C        37.2547   28.0693   20.7471  C     
22   C        38.3439   28.8099   19.9242  C     
23   C        34.1426   30.2399   20.0521  C     
24   C        33.7117   31.1329   18.9230  C     
25   C        32.1846   31.4322   18.7544  C     
26   N        31.8155   32.2779   17.6442  N     
27   C        32.4921   32.7688   16.6095  C     
28   C        31.7882   33.6421   15.6994  C     
29   O        33.6632   32.5115   16.3676  O     
30   C        31.3164   30.2575   18.7430  C     
31   O        31.6948   29.2023   18.2267  O     
32   N        30.1798   30.3111   19.4331  N     
33   C        29.2782   29.2445   19.7243  C     
34   C        28.0780   29.7711   20.5600  C     
35   C        28.3841   30.0544   22.0659  C     
36   C        27.2792   30.8264   22.8455  C     
37   C        25.9459   30.2636   22.6740  C     
38   O        25.4967   30.1709   21.5385  O     
39   N        25.3182   29.7099   23.7083  N     
40   C        24.1634   28.8450   23.6547  C     
41   C        22.8112   29.5999   23.4092  C     
42   C        22.3840   30.5560   24.4711  C     
43   C        22.3992   30.1658   25.8306  C     
44   C        21.9500   31.0380   26.8420  C     
45   C        21.4600   32.3157   26.5071  C     
46   C        21.4000   32.7049   25.1556  C     
47   C        21.8655   31.8378   24.1443  C     
48   C        24.3809   27.7223   22.7004  C     
49   O        25.6369   27.2519   22.4837  O     
50   O        23.3925   27.2868   21.8747  O     
51   H        36.0894   30.0752   19.3058  H     
52   H        32.3435   30.1707   21.1835  H     
53   H        33.0268   28.4423   22.6567  H     
54   H        36.4148   22.7412   22.1094  H     
55   H        34.2332   22.2211   21.3028  H     
56   H        32.5287   23.9404   21.1830  H     
57   H        33.0269   26.1729   21.8657  H     
58   H        37.6596   27.9870   21.7600  H     
59   H        37.1537   27.0572   20.3340  H     
60   H        38.0570   28.8499   18.8771  H     
61   H        39.2913   28.2638   19.9973  H     
62   H        38.4911   29.8144   20.3166  H     
63   H        34.2504   32.0722   19.0356  H     
64   H        34.0427   30.6445   18.0001  H     
65   H        31.9135   32.0245   19.6300  H     
66   H        30.8789   32.5484   17.6588  H     
67   H        30.8845   33.1603   15.3326  H     
68   H        32.4049   33.9091   14.8431  H     
69   H        31.5200   34.5612   16.2177  H     
70   H        29.9017   31.1939   19.7289  H     
71   H        28.9055   28.8726   18.7708  H     
72   H        29.7620   28.4084   20.2452  H     
73   H        27.6860   30.6814   20.0878  H     
74   H        27.2937   29.0124   20.5120  H     
75   H        28.5643   29.0975   22.5730  H     
76   H        29.3004   30.6446   22.1372  H     
77   H        27.5377   30.8345   23.9084  H     
78   H        27.2668   31.8751   22.5171  H     
79   H        25.6995   29.8809   24.5866  H     
80   H        24.0994   28.3883   24.6512  H     
81   H        22.8623   30.1158   22.4425  H     
82   H        22.0123   28.8583   23.3023  H     
83   H        22.7270   29.2310   26.0945  H     
84   H        21.9593   30.7384   27.8178  H     
85   H        21.1426   32.9506   27.2419  H     
86   H        21.0106   33.6173   24.9106  H     
87   H        21.8051   32.1446   23.1717  H     
@<TRIPOS>BOND
     1    1    2 2
     2    1    5 1
     3    1    6 1
     4    2    3 1
     5    2   21 1
     6    3   23 2
     7    4    5 2
     8    4   23 1
     9    6    7 am
    10    6   12 1
    11    7    8 2
    12    7    9 1
    13    9   10 2
    14    9   11 1
    15   12   16 2
    16   12   17 1
    17   13   14 1
    18   13   17 2
    19   14   15 2
    20   15   16 1
    21   17   18 1
    22   18   19 2
    23   18   20 1
    24   21   22 1
    25   23   24 1
    26   24   25 1
    27   25   26 1
    28   25   30 1
    29   26   27 am
    30   27   28 1
    31   27   29 2
    32   30   31 2
    33   30   32 am
    34   32   33 1
    35   33   34 1
    36   34   35 1
    37   35   36 1
    38   36   37 1
    39   37   38 2
    40   37   39 am
    41   39   40 1
    42   40   41 1
    43   40   48 1
    44   41   42 1
    45   42   43 2
    46   42   47 1
    47   43   44 1
    48   44   45 2
    49   45   46 1
    50   46   47 2
    51   48   49 2
    52   48   50 1
    53    3   51 1
    54    4   52 1
    55    5   53 1
    56   13   54 1
    57   14   55 1
    58   15   56 1
    59   16   57 1
    60   21   58 1
    61   21   59 1
    62   22   60 1
    63   22   61 1
    64   22   62 1
    65   24   63 1
    66   24   64 1
    67   25   65 1
    68   26   66 1
    69   28   67 1
    70   28   68 1
    71   28   69 1
    72   32   70 1
    73   33   71 1
    74   33   72 1
    75   34   73 1
    76   34   74 1
    77   35   75 1
    78   35   76 1
    79   36   77 1
    80   36   78 1
    81   39   79 1
    82   40   80 1
    83   41   81 1
    84   41   82 1
    85   43   83 1
    86   44   84 1
    87   45   85 1
    88   46   86 1
    89   47   87 1
@<TRIPOS>PROPERTY_DATA
  Total_Score	| 17.8522
  Crash		| -3.0186
  Polar		| 14.4649
  FragIndex	| 1
  FragRMSD	| 0.811

