@<TRIPOS>MOLECULE
BindingDB_15810
 85 87 0 0 0
SMALL
NO_CHARGES


@<TRIPOS>ATOM
1    C        35.0318   28.1398   21.7563  C     
2    C        35.7783   28.3691   20.5617  C     
3    C        35.3096   29.3273   19.6293  C     
4    C        33.4345   29.8767   21.0455  C     
5    C        33.8737   28.9254   21.9784  C     
6    N        35.3314   27.1501   22.6969  N     
7    C        35.5376   27.4475   23.9986  C     
8    O        35.4965   26.5833   24.8669  O     
9    C        35.8602   28.7152   24.4627  C     
10   O        37.0187   29.3011   24.0856  O     
11   O        35.0867   29.3741   25.3580  O     
12   C        35.0903   25.8242   22.3330  C     
13   C        35.6711   23.4551   22.0822  C     
14   C        34.3801   23.1672   21.6105  C     
15   C        33.4324   24.1935   21.5011  C     
16   C        33.7864   25.5022   21.8649  C     
17   C        36.0583   24.7717   22.4475  C     
18   C        37.4009   24.9652   22.8983  C     
19   O        37.8424   26.0989   23.4912  O     
20   O        38.3728   24.0617   22.6396  O     
21   C        37.0463   27.6569   20.2119  C     
22   C        38.2370   28.6135   19.9546  C     
23   C        34.1269   30.0747   19.8334  C     
24   C        33.6951   31.0405   18.7711  C     
25   C        32.2098   31.5256   18.7371  C     
26   N        31.7765   32.2901   17.5985  N     
27   C        32.4198   32.7196   16.5192  C     
28   C        31.6557   33.4770   15.5475  C     
29   O        33.6088   32.4960   16.3274  O     
30   C        31.2387   30.4521   18.8589  C     
31   O        31.4091   29.3977   18.2448  O     
32   N        30.1238   30.6592   19.5462  N     
33   C        28.9893   29.7902   19.6062  C     
34   C        27.9710   30.2921   20.6547  C     
35   C        28.4544   30.1711   22.1309  C     
36   C        27.6022   30.9609   23.1624  C     
37   C        26.1711   30.8927   22.9032  C     
38   O        25.5373   29.9568   23.3697  O     
39   N        25.6355   31.7224   22.0154  N     
40   C        24.3314   31.6615   21.4334  C     
41   C        23.5075   32.9416   21.7385  C     
42   C        22.7694   33.0497   23.0304  C     
43   C        21.9520   34.1945   23.2365  C     
44   C        21.2160   34.3566   24.4215  C     
45   C        21.2690   33.3702   25.4268  C     
46   C        22.0798   32.2334   25.2449  C     
47   C        22.8151   32.0708   24.0575  C     
48   H        35.8345   29.4769   18.7613  H     
49   H        32.6002   30.4171   21.2633  H     
50   H        33.3196   28.7910   22.8292  H     
51   H        36.3256   22.6693   22.1570  H     
52   H        34.1292   22.2114   21.3519  H     
53   H        32.4917   23.9863   21.1609  H     
54   H        33.0663   26.2238   21.7968  H     
55   H        37.3571   26.9876   21.0087  H     
56   H        36.8849   27.0292   19.3290  H     
57   H        38.0504   29.2476   19.0784  H     
58   H        39.1401   28.0245   19.7704  H     
59   H        38.4128   29.2526   20.8265  H     
60   H        34.3475   31.9096   18.8585  H     
61   H        33.8919   30.5801   17.7964  H     
62   H        32.1007   32.2162   19.5840  H     
63   H        30.8367   32.5265   17.6315  H     
64   H        30.8288   32.8677   15.1707  H     
65   H        32.2716   33.7871   14.6977  H     
66   H        31.2428   34.3709   16.0231  H     
67   H        30.0347   31.5134   20.0054  H     
68   H        28.5020   29.7779   18.6252  H     
69   H        29.3032   28.7671   19.8504  H     
70   H        27.7188   31.3379   20.4323  H     
71   H        27.0485   29.7095   20.5491  H     
72   H        28.4667   29.1094   22.4094  H     
73   H        29.4841   30.5323   22.2046  H     
74   H        27.7922   30.5765   24.1670  H     
75   H        27.9367   32.0042   23.1506  H     
76   H        26.2261   32.3906   21.6343  H     
77   H        24.4752   31.5988   20.3510  H     
78   H        23.7644   30.7741   21.7395  H     
79   H        24.1795   33.8015   21.6597  H     
80   H        22.7725   33.0408   20.9366  H     
81   H        21.9004   34.9257   22.5197  H     
82   H        20.6382   35.1902   24.5585  H     
83   H        20.7308   33.4805   26.2893  H     
84   H        22.1249   31.5225   25.9798  H     
85   H        23.3873   31.2298   23.9527  H     
@<TRIPOS>BOND
     1    1    2 2
     2    1    5 1
     3    1    6 1
     4    2    3 1
     5    2   21 1
     6    3   23 2
     7    4    5 2
     8    4   23 1
     9    6    7 am
    10    6   12 1
    11    7    8 2
    12    7    9 1
    13    9   10 2
    14    9   11 1
    15   12   16 2
    16   12   17 1
    17   13   14 1
    18   13   17 2
    19   14   15 2
    20   15   16 1
    21   17   18 1
    22   18   19 2
    23   18   20 1
    24   21   22 1
    25   23   24 1
    26   24   25 1
    27   25   26 1
    28   25   30 1
    29   26   27 am
    30   27   28 1
    31   27   29 2
    32   30   31 2
    33   30   32 am
    34   32   33 1
    35   33   34 1
    36   34   35 1
    37   35   36 1
    38   36   37 1
    39   37   38 2
    40   37   39 am
    41   39   40 1
    42   40   41 1
    43   41   42 1
    44   42   43 2
    45   42   47 1
    46   43   44 1
    47   44   45 2
    48   45   46 1
    49   46   47 2
    50    3   48 1
    51    4   49 1
    52    5   50 1
    53   13   51 1
    54   14   52 1
    55   15   53 1
    56   16   54 1
    57   21   55 1
    58   21   56 1
    59   22   57 1
    60   22   58 1
    61   22   59 1
    62   24   60 1
    63   24   61 1
    64   25   62 1
    65   26   63 1
    66   28   64 1
    67   28   65 1
    68   28   66 1
    69   32   67 1
    70   33   68 1
    71   33   69 1
    72   34   70 1
    73   34   71 1
    74   35   72 1
    75   35   73 1
    76   36   74 1
    77   36   75 1
    78   39   76 1
    79   40   77 1
    80   40   78 1
    81   41   79 1
    82   41   80 1
    83   43   81 1
    84   44   82 1
    85   45   83 1
    86   46   84 1
    87   47   85 1
@<TRIPOS>PROPERTY_DATA
  Total_Score	| 18.1696
  Crash		| -2.5198
  Polar		| 14.1591
  FragIndex	| 1
  FragRMSD	| 0.536

