@<TRIPOS>MOLECULE
BindingDB_13954
 87 91 0 0 0
SMALL
NO_CHARGES


@<TRIPOS>ATOM
1    C        34.7420   28.2797   21.8976  C     
2    C        33.6178   30.3744   20.2877  C     
3    C        32.9151   29.8447   21.3908  C     
4    C        33.4685   28.8299   22.1836  C     
5    N        35.1932   27.2409   22.7132  N     
6    C        35.4984   27.4825   24.0043  C     
7    O        35.5452   26.5757   24.8258  O     
8    C        35.4777   28.8122   20.8054  C     
9    C        34.9297   29.8803   20.0181  C     
10   C        36.7647   28.3458   20.4800  C     
11   C        37.4720   28.8935   19.4770  C     
12   C        36.9746   29.9256   18.7499  C     
13   C        35.7452   30.4159   18.9966  C     
14   C        35.0193   25.9386   22.2499  C     
15   C        35.7490   23.6482   21.7322  C     
16   C        34.4574   23.3164   21.2875  C     
17   C        33.4336   24.2670   21.3424  C     
18   C        33.7180   25.5524   21.8296  C     
19   C        36.0511   24.9471   22.2381  C     
20   C        37.3844   25.1772   22.6964  C     
21   O        37.7847   26.3240   23.2920  O     
22   O        38.3370   24.2132   22.6545  O     
23   C        35.8561   28.7303   24.4857  C     
24   O        35.0854   29.3899   25.3892  O     
25   O        37.0403   29.2962   24.1393  O     
26   C        32.9298   31.4347   19.4655  C     
27   C        32.4886   30.9547   18.0443  C     
28   N        31.9072   32.0612   17.3294  N     
29   C        32.4466   32.7760   16.3467  C     
30   C        31.6903   33.8913   15.8182  C     
31   O        33.5539   32.5286   15.8886  O     
32   C        31.5615   29.8269   18.1113  C     
33   O        32.0341   28.6948   18.1800  O     
34   N        30.2433   30.0064   18.1906  N     
35   C        29.2261   29.0080   18.3076  C     
36   C        28.1546   29.4099   19.3556  C     
37   C        28.7611   29.7822   20.7400  C     
38   C        27.9251   29.3294   21.9547  C     
39   C        26.8180   30.2843   22.4682  C     
40   O        25.5116   29.8507   22.0205  O     
41   C        24.4934   30.0438   22.9226  C     
42   C        22.9797   29.2777   24.6758  C     
43   C        23.9941   28.9844   23.7278  C     
44   C        23.9544   31.3375   23.0424  C     
45   C        22.4728   30.5837   24.8341  C     
46   C        22.9567   31.6261   23.9964  C     
47   C        21.4997   30.8758   25.8206  C     
48   C        22.4424   32.9334   24.1439  C     
49   C        21.4853   33.2119   25.1343  C     
50   C        21.0168   32.1869   25.9738  C     
51   C        24.4775   27.6465   23.6387  C     
52   O        25.5514   27.3165   22.8919  O     
53   O        23.9985   26.6487   24.4218  O     
54   H        31.9792   30.1754   21.6189  H     
55   H        32.9171   28.4745   22.9635  H     
56   H        37.1744   27.6018   21.0011  H     
57   H        38.3881   28.5545   19.2808  H     
58   H        37.5406   30.3451   18.0449  H     
59   H        35.4434   31.1853   18.4421  H     
60   H        36.4571   22.9136   21.6939  H     
61   H        34.2554   22.3702   20.9446  H     
62   H        32.4853   24.0184   21.0563  H     
63   H        32.9404   26.2104   21.8950  H     
64   H        32.0417   31.8217   19.9764  H     
65   H        33.6029   32.2882   19.3672  H     
66   H        33.3765   30.6071   17.5032  H     
67   H        31.0174   32.3329   17.6016  H     
68   H        30.7155   33.5485   15.4676  H     
69   H        32.2097   34.3728   14.9878  H     
70   H        31.5400   34.6312   16.6076  H     
71   H        29.9255   30.9188   18.1607  H     
72   H        28.7405   28.9053   17.3323  H     
73   H        29.6348   28.0282   18.5829  H     
74   H        27.5778   30.2618   18.9803  H     
75   H        27.4676   28.5711   19.4666  H     
76   H        29.7473   29.3092   20.8372  H     
77   H        28.9189   30.8638   20.7836  H     
78   H        27.4770   28.3686   21.7001  H     
79   H        28.6234   29.1537   22.7636  H     
80   H        26.8775   30.2773   23.5679  H     
81   H        27.0124   31.3020   22.1325  H     
82   H        22.6051   28.5331   25.2765  H     
83   H        24.3126   32.0887   22.4471  H     
84   H        21.1426   30.1382   26.4394  H     
85   H        22.7731   33.6929   23.5460  H     
86   H        21.1281   34.1652   25.2483  H     
87   H        20.3220   32.3914   26.6937  H     
@<TRIPOS>BOND
     1    1    4 1
     2    1    5 1
     3    1    8 2
     4    2    3 1
     5    2    9 2
     6    2   26 1
     7    3    4 2
     8    5    6 am
     9    5   14 1
    10    6    7 2
    11    6   23 1
    12    8    9 1
    13    8   10 1
    14    9   13 1
    15   10   11 2
    16   11   12 1
    17   12   13 2
    18   14   18 2
    19   14   19 1
    20   15   16 1
    21   15   19 2
    22   16   17 2
    23   17   18 1
    24   19   20 1
    25   20   21 2
    26   20   22 1
    27   23   24 2
    28   23   25 1
    29   26   27 1
    30   27   28 1
    31   27   32 1
    32   28   29 am
    33   29   30 1
    34   29   31 2
    35   32   33 2
    36   32   34 am
    37   34   35 1
    38   35   36 1
    39   36   37 1
    40   37   38 1
    41   38   39 1
    42   39   40 1
    43   40   41 1
    44   41   43 1
    45   41   44 2
    46   42   43 2
    47   42   45 1
    48   43   51 1
    49   44   46 1
    50   45   46 2
    51   45   47 1
    52   46   48 1
    53   47   50 2
    54   48   49 2
    55   49   50 1
    56   51   52 2
    57   51   53 1
    58    3   54 1
    59    4   55 1
    60   10   56 1
    61   11   57 1
    62   12   58 1
    63   13   59 1
    64   15   60 1
    65   16   61 1
    66   17   62 1
    67   18   63 1
    68   26   64 1
    69   26   65 1
    70   27   66 1
    71   28   67 1
    72   30   68 1
    73   30   69 1
    74   30   70 1
    75   34   71 1
    76   35   72 1
    77   35   73 1
    78   36   74 1
    79   36   75 1
    80   37   76 1
    81   37   77 1
    82   38   78 1
    83   38   79 1
    84   39   80 1
    85   39   81 1
    86   42   82 1
    87   44   83 1
    88   47   84 1
    89   48   85 1
    90   49   86 1
    91   50   87 1
@<TRIPOS>PROPERTY_DATA
  Total_Score	| 19.3257
  Crash		| -2.9158
  Polar		| 16.0538
  FragIndex	| 1
  FragRMSD	| 0.708

