@<TRIPOS>MOLECULE
BindingDB_15814
 86 87 0 0 0
SMALL
NO_CHARGES


@<TRIPOS>ATOM
1    C        35.0672   28.1132   21.7374  C     
2    C        35.8358   28.3553   20.5576  C     
3    C        35.3868   29.3291   19.6266  C     
4    C        33.5095   29.8873   21.0309  C     
5    C        33.9179   28.9088   21.9498  C     
6    N        35.3597   27.1258   22.6848  N     
7    C        35.5692   27.4413   23.9867  C     
8    O        35.5483   26.5752   24.8622  O     
9    C        35.8664   28.7055   24.4641  C     
10   O        35.0467   29.3586   25.3237  O     
11   O        37.0159   29.3251   24.1049  O     
12   C        35.1172   25.8014   22.3374  C     
13   C        35.6901   23.4198   22.2039  C     
14   C        34.4045   23.1163   21.7310  C     
15   C        33.4685   24.1431   21.5569  C     
16   C        33.8209   25.4679   21.8636  C     
17   C        36.0820   24.7483   22.5056  C     
18   C        37.4281   24.9558   22.9470  C     
19   O        38.4104   24.0810   22.6499  O     
20   O        37.8828   26.0988   23.5126  O     
21   C        37.1059   27.6488   20.2374  C     
22   C        38.2637   28.6319   19.9416  C     
23   C        34.2168   30.0900   19.8249  C     
24   C        33.7791   31.0200   18.7405  C     
25   C        32.3007   31.5550   18.7583  C     
26   N        31.8476   32.2941   17.6104  N     
27   C        32.4632   32.7067   16.5103  C     
28   C        31.6746   33.4129   15.5179  C     
29   O        33.6529   32.5084   16.2889  O     
30   C        31.2949   30.5334   19.0365  C     
31   O        31.5083   29.3487   18.7810  O     
32   N        30.1539   30.8999   19.6080  N     
33   C        29.0831   30.0505   20.0193  C     
34   C        28.5145   30.4761   21.3987  C     
35   C        27.3536   29.5673   21.8804  C     
36   C        25.9615   30.2633   21.9868  C     
37   C        24.9468   29.3045   22.3608  C     
38   O        24.1820   28.8899   21.4989  O     
39   N        24.8422   28.8781   23.6145  N     
40   C        23.9907   27.8298   24.1031  C     
41   C        24.4470   26.5162   23.5328  C     
42   O        24.8698   26.4540   22.2331  O     
43   O        24.7310   25.4818   24.3422  O     
44   C        22.4376   28.1711   24.0360  C     
45   C        20.0118   27.1906   23.5612  C     
46   C        21.5353   26.9329   23.6607  C     
47   C        21.9401   28.8839   25.3265  C     
48   H        35.9312   29.4846   18.7764  H     
49   H        32.6825   30.4442   21.2465  H     
50   H        33.3456   28.7634   22.7874  H     
51   H        36.3400   22.6392   22.3212  H     
52   H        34.1519   22.1483   21.5258  H     
53   H        32.5304   23.9222   21.2197  H     
54   H        33.0996   26.1888   21.7601  H     
55   H        37.4315   27.0233   21.0545  H     
56   H        36.9550   26.9801   19.3811  H     
57   H        38.0866   29.1637   19.0034  H     
58   H        39.2053   28.0803   19.8563  H     
59   H        38.3589   29.3640   20.7522  H     
60   H        34.4555   31.8768   18.7621  H     
61   H        33.9292   30.4964   17.7926  H     
62   H        32.2764   32.2856   19.5732  H     
63   H        30.9041   32.5203   17.6458  H     
64   H        30.8419   32.7769   15.1884  H     
65   H        32.2758   33.6859   14.6415  H     
66   H        31.2647   34.3324   15.9534  H     
67   H        30.0331   31.8439   19.7699  H     
68   H        28.2939   30.1406   19.2603  H     
69   H        29.3888   28.9981   20.0422  H     
70   H        29.3307   30.4339   22.1260  H     
71   H        28.1632   31.5109   21.3527  H     
72   H        27.2880   28.7024   21.2097  H     
73   H        27.6157   29.2075   22.8754  H     
74   H        26.0129   31.0801   22.7283  H     
75   H        25.7091   30.7377   21.0280  H     
76   H        25.3920   29.3436   24.2629  H     
77   H        24.2621   27.7561   25.1615  H     
78   H        22.2760   28.8966   23.2460  H     
79   H        19.5818   27.3715   24.5551  H     
80   H        19.5317   26.3106   23.1245  H     
81   H        19.8202   28.0529   22.9155  H     
82   H        21.8628   26.5769   22.6734  H     
83   H        21.7163   26.1189   24.3800  H     
84   H        21.9117   28.1841   26.1707  H     
85   H        20.9441   29.3070   25.1737  H     
86   H        22.6150   29.7106   25.5702  H     
@<TRIPOS>BOND
     1    1    2 2
     2    1    5 1
     3    1    6 1
     4    2    3 1
     5    2   21 1
     6    3   23 2
     7    4    5 2
     8    4   23 1
     9    6    7 am
    10    6   12 1
    11    7    8 2
    12    7    9 1
    13    9   10 2
    14    9   11 1
    15   12   16 2
    16   12   17 1
    17   13   14 1
    18   13   17 2
    19   14   15 2
    20   15   16 1
    21   17   18 1
    22   18   19 2
    23   18   20 1
    24   21   22 1
    25   23   24 1
    26   24   25 1
    27   25   26 1
    28   25   30 1
    29   26   27 am
    30   27   28 1
    31   27   29 2
    32   30   31 2
    33   30   32 am
    34   32   33 1
    35   33   34 1
    36   34   35 1
    37   35   36 1
    38   36   37 1
    39   37   38 2
    40   37   39 am
    41   39   40 1
    42   40   41 1
    43   40   44 1
    44   41   42 2
    45   41   43 1
    46   44   46 1
    47   44   47 1
    48   45   46 1
    49    3   48 1
    50    4   49 1
    51    5   50 1
    52   13   51 1
    53   14   52 1
    54   15   53 1
    55   16   54 1
    56   21   55 1
    57   21   56 1
    58   22   57 1
    59   22   58 1
    60   22   59 1
    61   24   60 1
    62   24   61 1
    63   25   62 1
    64   26   63 1
    65   28   64 1
    66   28   65 1
    67   28   66 1
    68   32   67 1
    69   33   68 1
    70   33   69 1
    71   34   70 1
    72   34   71 1
    73   35   72 1
    74   35   73 1
    75   36   74 1
    76   36   75 1
    77   39   76 1
    78   40   77 1
    79   44   78 1
    80   45   79 1
    81   45   80 1
    82   45   81 1
    83   46   82 1
    84   46   83 1
    85   47   84 1
    86   47   85 1
    87   47   86 1
@<TRIPOS>PROPERTY_DATA
  Total_Score	| 17.7659
  Crash		| -2.7297
  Polar		| 15.1488
  FragIndex	| 1
  FragRMSD	| 1.145

