@<TRIPOS>MOLECULE
BindingDB_13968
 62 63 0 0 0
SMALL
NO_CHARGES


@<TRIPOS>ATOM
1    C        35.4854   27.4748   23.9685  C     
2    O        35.6400   26.5851   24.7937  O     
3    C        35.8054   28.7475   24.4055  C     
4    O        35.0927   29.3815   25.3735  O     
5    O        37.0487   29.2409   24.1409  O     
6    C        34.9171   25.9045   22.2646  C     
7    C        35.7159   23.6266   21.7996  C     
8    C        34.4295   23.2472   21.3933  C     
9    C        33.3851   24.1753   21.4187  C     
10   C        33.6228   25.4871   21.8644  C     
11   C        35.9930   24.9582   22.2159  C     
12   C        37.3364   25.2971   22.5478  C     
13   O        38.2707   24.3493   22.7876  O     
14   O        37.7867   26.5697   22.4723  O     
15   N        35.0746   27.2043   22.7118  N     
16   C        34.6089   28.2164   21.8892  C     
17   C        33.3920   28.8641   22.1951  C     
18   C        32.9118   29.9064   21.3903  C     
19   C        34.8430   29.6614   19.9284  C     
20   C        35.3307   28.6228   20.7424  C     
21   C        33.6308   30.3233   20.2488  C     
22   C        33.1153   31.4370   19.4051  C     
23   C        32.3108   30.9587   18.1547  C     
24   N        31.8494   32.1084   17.4248  N     
25   C        31.1539   30.1345   18.5035  C     
26   O        31.0469   29.0102   18.0281  O     
27   N        30.2543   30.6109   19.3458  N     
28   C        29.1286   29.9131   19.8926  C     
29   C        27.9900   30.9153   20.2483  C     
30   C        27.1059   30.5348   21.4616  C     
31   C        27.8934   30.3084   22.7832  C     
32   C        27.4066   31.1881   23.9588  C     
33   C        32.5200   32.8193   16.5289  C     
34   C        31.8694   33.9539   15.9142  C     
35   O        33.6726   32.5413   16.2144  O     
36   H        36.4587   22.9248   21.7628  H     
37   H        34.2617   22.2914   21.0671  H     
38   H        32.4459   23.9057   21.1116  H     
39   H        32.8352   26.1351   21.8974  H     
40   H        32.8527   28.5781   23.0192  H     
41   H        32.0343   30.3596   21.6550  H     
42   H        35.3829   29.9426   19.1104  H     
43   H        36.2178   28.1661   20.5049  H     
44   H        32.4890   32.1032   19.9984  H     
45   H        33.9646   32.0406   19.0697  H     
46   H        32.9822   30.3676   17.5223  H     
47   H        30.9417   32.4127   17.6131  H     
48   H        30.4126   31.4977   19.6940  H     
49   H        28.7394   29.1642   19.1828  H     
50   H        29.4618   29.3829   20.7839  H     
51   H        28.4290   31.9060   20.4610  H     
52   H        27.3559   31.0417   19.3688  H     
53   H        26.3765   31.3270   21.5943  H     
54   H        26.5439   29.6197   21.2144  H     
55   H        27.8252   29.2640   23.0720  H     
56   H        28.9482   30.5415   22.6291  H     
57   H        27.5869   32.2387   23.7439  H     
58   H        27.9571   30.9276   24.8720  H     
59   H        26.3370   31.0396   24.1435  H     
60   H        30.9284   33.6376   15.4576  H     
61   H        32.4924   34.4050   15.1386  H     
62   H        31.6585   34.7109   16.6704  H     
@<TRIPOS>BOND
     1    1    2 2
     2    1    3 1
     3    1   15 am
     4    3    4 2
     5    3    5 1
     6    6   10 2
     7    6   11 1
     8    6   15 1
     9    7    8 1
    10    7   11 2
    11    8    9 2
    12    9   10 1
    13   11   12 1
    14   12   13 1
    15   12   14 2
    16   15   16 1
    17   16   17 2
    18   16   20 1
    19   17   18 1
    20   18   21 2
    21   19   20 2
    22   19   21 1
    23   21   22 1
    24   22   23 1
    25   23   24 1
    26   23   25 1
    27   24   33 am
    28   25   26 2
    29   25   27 am
    30   27   28 1
    31   28   29 1
    32   29   30 1
    33   30   31 1
    34   31   32 1
    35   33   34 1
    36   33   35 2
    37    7   36 1
    38    8   37 1
    39    9   38 1
    40   10   39 1
    41   17   40 1
    42   18   41 1
    43   19   42 1
    44   20   43 1
    45   22   44 1
    46   22   45 1
    47   23   46 1
    48   24   47 1
    49   27   48 1
    50   28   49 1
    51   28   50 1
    52   29   51 1
    53   29   52 1
    54   30   53 1
    55   30   54 1
    56   31   55 1
    57   31   56 1
    58   32   57 1
    59   32   58 1
    60   32   59 1
    61   34   60 1
    62   34   61 1
    63   34   62 1
@<TRIPOS>PROPERTY_DATA
  Total_Score	| 16.8223
  Crash		| -2.0077
  Polar		| 13.0293
  FragIndex	| 1
  FragRMSD	| 0.673

