@<TRIPOS>MOLECULE
BindingDB_15809
 67 68 0 0 0
SMALL
NO_CHARGES


@<TRIPOS>ATOM
1    C        34.9849   28.0880   21.8054  C     
2    C        35.7654   28.4069   20.6536  C     
3    C        35.2937   29.3961   19.7598  C     
4    C        33.3421   29.7978   21.1300  C     
5    C        33.7838   28.8132   22.0240  C     
6    N        35.3156   27.1038   22.7402  N     
7    C        35.5359   27.4245   24.0358  C     
8    O        35.5002   26.5717   24.9170  O     
9    C        35.8792   28.6953   24.4701  C     
10   O        35.1144   29.3853   25.3472  O     
11   O        37.0388   29.2559   24.0735  O     
12   C        35.0918   25.7767   22.3843  C     
13   C        35.7154   23.4172   22.1493  C     
14   C        34.4280   23.1017   21.6911  C     
15   C        33.4674   24.1104   21.5686  C     
16   C        33.7932   25.4279   21.9221  C     
17   C        36.0799   24.7418   22.5055  C     
18   C        37.4242   24.9618   22.9403  C     
19   O        38.4125   24.0839   22.6536  O     
20   O        37.8691   26.1042   23.5059  O     
21   C        37.0813   27.7834   20.3203  C     
22   C        38.2810   28.6262   20.8091  C     
23   C        34.0768   30.0824   19.9605  C     
24   C        33.6627   31.0854   18.9320  C     
25   C        32.1728   31.5465   18.8410  C     
26   N        31.7906   32.2929   17.6715  N     
27   C        32.4817   32.7216   16.6233  C     
28   C        31.7930   33.5419   15.6477  C     
29   O        33.6742   32.4907   16.4691  O     
30   C        31.2188   30.4449   18.9503  C     
31   O        31.4969   29.3598   18.4423  O     
32   N        30.0418   30.6470   19.5290  N     
33   C        28.9975   29.6757   19.6673  C     
34   C        27.9053   30.1384   20.6640  C     
35   C        28.3225   30.0543   22.1638  C     
36   C        27.2962   30.6625   23.1574  C     
37   C        26.0254   29.9147   23.2468  C     
38   O        24.8575   30.5742   23.4166  O     
39   O        26.0135   28.5607   23.2495  O     
40   H        35.8501   29.6155   18.9253  H     
41   H        32.4780   30.2976   21.3425  H     
42   H        33.2018   28.6117   22.8404  H     
43   H        36.3859   22.6462   22.2222  H     
44   H        34.1950   22.1379   21.4430  H     
45   H        32.5280   23.8855   21.2342  H     
46   H        33.0595   26.1362   21.8484  H     
47   H        37.1708   26.7960   20.7494  H     
48   H        37.1575   27.6469   19.2387  H     
49   H        38.2670   29.6232   20.3674  H     
50   H        39.2186   28.1402   20.5254  H     
51   H        38.2610   28.7210   21.8952  H     
52   H        34.2809   31.9737   19.1043  H     
53   H        33.9228   30.6930   17.9417  H     
54   H        32.0166   32.2404   19.6724  H     
55   H        30.8528   32.5417   17.6660  H     
56   H        30.9706   32.9735   15.2064  H     
57   H        32.4636   33.8637   14.8472  H     
58   H        31.3896   34.4321   16.1381  H     
59   H        29.8649   31.5379   19.8786  H     
60   H        28.5257   29.5188   18.6951  H     
61   H        29.4272   28.7247   20.0033  H     
62   H        27.6211   31.1699   20.4187  H     
63   H        27.0229   29.5042   20.5158  H     
64   H        28.4962   29.0045   22.4235  H     
65   H        29.2689   30.5843   22.2978  H     
66   H        27.7450   30.6785   24.1552  H     
67   H        27.0910   31.7007   22.8734  H     
@<TRIPOS>BOND
     1    1    2 2
     2    1    5 1
     3    1    6 1
     4    2    3 1
     5    2   21 1
     6    3   23 2
     7    4    5 2
     8    4   23 1
     9    6    7 am
    10    6   12 1
    11    7    8 2
    12    7    9 1
    13    9   10 2
    14    9   11 1
    15   12   16 2
    16   12   17 1
    17   13   14 1
    18   13   17 2
    19   14   15 2
    20   15   16 1
    21   17   18 1
    22   18   19 2
    23   18   20 1
    24   21   22 1
    25   23   24 1
    26   24   25 1
    27   25   26 1
    28   25   30 1
    29   26   27 am
    30   27   28 1
    31   27   29 2
    32   30   31 2
    33   30   32 am
    34   32   33 1
    35   33   34 1
    36   34   35 1
    37   35   36 1
    38   36   37 1
    39   37   38 2
    40   37   39 1
    41    3   40 1
    42    4   41 1
    43    5   42 1
    44   13   43 1
    45   14   44 1
    46   15   45 1
    47   16   46 1
    48   21   47 1
    49   21   48 1
    50   22   49 1
    51   22   50 1
    52   22   51 1
    53   24   52 1
    54   24   53 1
    55   25   54 1
    56   26   55 1
    57   28   56 1
    58   28   57 1
    59   28   58 1
    60   32   59 1
    61   33   60 1
    62   33   61 1
    63   34   62 1
    64   34   63 1
    65   35   64 1
    66   35   65 1
    67   36   66 1
    68   36   67 1
@<TRIPOS>PROPERTY_DATA
  Total_Score	| 16.6258
  Crash		| -2.1446
  Polar		| 14.2131
  FragIndex	| 1
  FragRMSD	| 0.866

