@<TRIPOS>MOLECULE
BindingDB_13972
 71 72 0 0 0
SMALL
NO_CHARGES


@<TRIPOS>ATOM
1    C        35.5081   27.4380   23.9918  C     
2    O        35.4659   26.5812   24.8713  O     
3    C        35.8448   28.7058   24.4428  C     
4    O        37.0168   29.2721   24.0604  O     
5    O        35.0840   29.3762   25.3362  O     
6    C        35.1360   25.7857   22.3219  C     
7    C        35.7497   23.4316   22.0073  C     
8    C        34.4511   23.1384   21.5671  C     
9    C        33.4843   24.1418   21.5202  C     
10   C        33.8221   25.4443   21.9021  C     
11   C        36.1249   24.7435   22.4005  C     
12   C        37.4716   24.9442   22.8441  C     
13   O        38.4327   24.0137   22.6752  O     
14   O        37.9008   26.0770   23.4594  O     
15   N        35.3749   27.1080   22.6890  N     
16   C        35.1287   28.0948   21.7255  C     
17   C        33.5719   29.8449   20.9544  C     
18   C        33.9099   28.8188   21.8473  C     
19   C        34.4202   30.1671   19.8788  C     
20   C        34.0217   31.2227   18.8944  C     
21   C        32.4989   31.2438   18.5021  C     
22   N        32.1585   32.3322   17.6278  N     
23   C        31.9125   29.9988   18.0120  C     
24   O        32.6050   28.9898   17.9112  O     
25   N        30.6084   29.9588   17.7598  N     
26   C        29.8155   28.8095   17.4217  C     
27   C        29.1802   28.1523   18.6775  C     
28   C        27.9812   28.8983   19.3335  C     
29   C        28.2939   30.0606   20.3149  C     
30   C        28.8048   29.6229   21.7055  C     
31   C        32.1580   33.7899   15.7507  C     
32   C        32.7408   32.7024   16.4992  C     
33   O        33.7889   32.1843   16.1038  O     
34   C        35.6288   29.4534   19.7499  C     
35   C        36.0102   28.4221   20.6475  C     
36   C        37.3484   27.7568   20.4445  C     
37   C        37.6135   27.3457   18.9625  C     
38   C        38.5154   28.6045   21.0168  C     
39   H        36.4268   22.6655   22.0352  H     
40   H        34.2140   22.1848   21.2945  H     
41   H        32.5409   23.9298   21.2116  H     
42   H        33.0957   26.1623   21.8588  H     
43   H        32.6941   30.3500   21.1008  H     
44   H        33.2502   28.6061   22.6026  H     
45   H        34.2630   32.1859   19.3456  H     
46   H        34.6250   31.1411   17.9890  H     
47   H        31.9738   31.4741   19.4367  H     
48   H        31.3597   32.8339   17.8708  H     
49   H        30.1386   30.8050   17.8301  H     
50   H        29.0380   29.1147   16.7227  H     
51   H        30.4209   28.0527   16.9152  H     
52   H        28.8019   27.1743   18.3707  H     
53   H        29.9561   27.9690   19.4236  H     
54   H        27.3489   29.2901   18.5313  H     
55   H        27.3828   28.1577   19.8778  H     
56   H        29.0223   30.7343   19.8522  H     
57   H        27.3730   30.6434   20.4583  H     
58   H        28.0671   28.9895   22.2082  H     
59   H        28.9853   30.5031   22.3230  H     
60   H        29.7399   29.0691   21.6188  H     
61   H        31.1756   33.4803   15.3599  H     
62   H        32.7821   34.0851   14.8964  H     
63   H        32.0211   34.6696   16.3985  H     
64   H        36.2624   29.7061   18.9802  H     
65   H        37.3785   26.8303   20.9999  H     
66   H        36.7571   26.7918   18.5614  H     
67   H        38.4920   26.6952   18.9024  H     
68   H        37.7911   28.2258   18.3378  H     
69   H        38.5625   29.5921   20.5515  H     
70   H        39.4741   28.0985   20.8559  H     
71   H        38.3861   28.7302   22.0959  H     
@<TRIPOS>BOND
     1    1    2 2
     2    1    3 1
     3    1   15 am
     4    3    4 2
     5    3    5 1
     6    6   10 2
     7    6   11 1
     8    6   15 1
     9    7    8 1
    10    7   11 2
    11    8    9 2
    12    9   10 1
    13   11   12 1
    14   12   13 1
    15   12   14 2
    16   15   16 1
    17   16   18 1
    18   16   35 2
    19   17   18 2
    20   17   19 1
    21   19   20 1
    22   19   34 2
    23   20   21 1
    24   21   22 1
    25   21   23 1
    26   22   32 am
    27   23   24 2
    28   23   25 am
    29   25   26 1
    30   26   27 1
    31   27   28 1
    32   28   29 1
    33   29   30 1
    34   31   32 1
    35   32   33 2
    36   34   35 1
    37   35   36 1
    38   36   37 1
    39   36   38 1
    40    7   39 1
    41    8   40 1
    42    9   41 1
    43   10   42 1
    44   17   43 1
    45   18   44 1
    46   20   45 1
    47   20   46 1
    48   21   47 1
    49   22   48 1
    50   25   49 1
    51   26   50 1
    52   26   51 1
    53   27   52 1
    54   27   53 1
    55   28   54 1
    56   28   55 1
    57   29   56 1
    58   29   57 1
    59   30   58 1
    60   30   59 1
    61   30   60 1
    62   31   61 1
    63   31   62 1
    64   31   63 1
    65   34   64 1
    66   36   65 1
    67   37   66 1
    68   37   67 1
    69   37   68 1
    70   38   69 1
    71   38   70 1
    72   38   71 1
@<TRIPOS>PROPERTY_DATA
  Total_Score	| 15.0323
  Crash		| -1.9429
  Polar		| 13.9833
  FragIndex	| 1
  FragRMSD	| 1.307

