@<TRIPOS>MOLECULE
BindingDB_13953
 68 70 0 0 0
SMALL
NO_CHARGES


@<TRIPOS>ATOM
1    C        34.9820   28.1356   21.8386  C     
2    C        34.1055   30.1224   19.9583  C     
3    C        33.2458   29.6332   20.9724  C     
4    C        33.6740   28.6666   21.8841  C     
5    N        35.2976   27.1307   22.7496  N     
6    C        35.5121   27.4366   24.0478  C     
7    O        35.4816   26.5671   24.9096  O     
8    C        35.8941   28.6726   20.8836  C     
9    C        35.4679   29.7003   19.9771  C     
10   C        37.2307   28.2461   20.8100  C     
11   C        38.0927   28.7907   19.9248  C     
12   C        37.7040   29.7860   19.0927  C     
13   C        36.4368   30.2493   19.1073  C     
14   C        35.0796   25.8106   22.3593  C     
15   C        35.7343   23.4706   22.0191  C     
16   C        34.4429   23.1481   21.5771  C     
17   C        33.4613   24.1434   21.5234  C     
18   C        33.7765   25.4526   21.9181  C     
19   C        36.0848   24.7870   22.4236  C     
20   C        37.4334   25.0070   22.8554  C     
21   O        37.8849   26.1422   23.4318  O     
22   O        38.3999   24.0792   22.6628  O     
23   C        35.8627   28.6973   24.5031  C     
24   O        37.0409   29.2478   24.1398  O     
25   O        35.1010   29.3734   25.3925  O     
26   C        33.5982   31.0184   18.8652  C     
27   C        32.0988   31.4552   18.8018  C     
28   N        31.6981   32.2333   17.6571  N     
29   C        32.3667   32.6832   16.6034  C     
30   C        31.6533   33.4825   15.6335  C     
31   O        33.5494   32.4453   16.4031  O     
32   C        31.1434   30.3536   18.9215  C     
33   O        31.2481   29.3551   18.2140  O     
34   N        30.1994   30.4227   19.8497  N     
35   C        29.2967   29.3721   20.2083  C     
36   C        27.8147   29.8246   20.2029  C     
37   C        27.4959   31.1338   20.9848  C     
38   C        27.6343   31.0841   22.5315  C     
39   C        26.3741   30.5687   23.2599  C     
40   H        32.2846   29.9673   21.0509  H     
41   H        33.0067   28.3250   22.5843  H     
42   H        37.5674   27.5291   21.3955  H     
43   H        39.0349   28.4615   19.8924  H     
44   H        38.3727   30.2015   18.4867  H     
45   H        36.2239   31.0034   18.4995  H     
46   H        36.4158   22.7091   22.0429  H     
47   H        34.2187   22.1915   21.3013  H     
48   H        32.5193   23.9131   21.1938  H     
49   H        33.0278   26.1485   21.8806  H     
50   H        34.2075   31.9273   18.8908  H     
51   H        33.7819   30.4954   17.9223  H     
52   H        31.9442   32.1201   19.6589  H     
53   H        30.7638   32.4820   17.6614  H     
54   H        30.7665   32.9370   15.2862  H     
55   H        32.2723   33.7174   14.7623  H     
56   H        31.3350   34.4227   16.0920  H     
57   H        30.1454   31.2474   20.3578  H     
58   H        29.4011   28.5370   19.5054  H     
59   H        29.5590   29.0024   21.2033  H     
60   H        27.5021   29.9728   19.1638  H     
61   H        27.2024   29.0132   20.6028  H     
62   H        28.1563   31.9204   20.6187  H     
63   H        26.4727   31.4326   20.7410  H     
64   H        28.4909   30.4647   22.8103  H     
65   H        27.8339   32.1057   22.8839  H     
66   H        25.4925   31.1392   22.9573  H     
67   H        26.5126   30.6857   24.3387  H     
68   H        26.2137   29.5056   23.0475  H     
@<TRIPOS>BOND
     1    1    4 1
     2    1    5 1
     3    1    8 2
     4    2    3 1
     5    2    9 2
     6    2   26 1
     7    3    4 2
     8    5    6 am
     9    5   14 1
    10    6    7 2
    11    6   23 1
    12    8    9 1
    13    8   10 1
    14    9   13 1
    15   10   11 2
    16   11   12 1
    17   12   13 2
    18   14   18 2
    19   14   19 1
    20   15   16 1
    21   15   19 2
    22   16   17 2
    23   17   18 1
    24   19   20 1
    25   20   21 2
    26   20   22 1
    27   23   24 2
    28   23   25 1
    29   26   27 1
    30   27   28 1
    31   27   32 1
    32   28   29 am
    33   29   30 1
    34   29   31 2
    35   32   33 2
    36   32   34 am
    37   34   35 1
    38   35   36 1
    39   36   37 1
    40   37   38 1
    41   38   39 1
    42    3   40 1
    43    4   41 1
    44   10   42 1
    45   11   43 1
    46   12   44 1
    47   13   45 1
    48   15   46 1
    49   16   47 1
    50   17   48 1
    51   18   49 1
    52   26   50 1
    53   26   51 1
    54   27   52 1
    55   28   53 1
    56   30   54 1
    57   30   55 1
    58   30   56 1
    59   34   57 1
    60   35   58 1
    61   35   59 1
    62   36   60 1
    63   36   61 1
    64   37   62 1
    65   37   63 1
    66   38   64 1
    67   38   65 1
    68   39   66 1
    69   39   67 1
    70   39   68 1
@<TRIPOS>PROPERTY_DATA
  Total_Score	| 14.9745
  Crash		| -2.8591
  Polar		| 12.9789
  FragIndex	| 1
  FragRMSD	| 0.556

