@<TRIPOS>MOLECULE
BindingDB_13966
 72 73 0 0 0
SMALL
NO_CHARGES


@<TRIPOS>ATOM
1    C        35.4903   27.4588   23.9667  C     
2    O        35.5836   26.5399   24.7687  O     
3    C        35.8365   28.7086   24.4505  C     
4    O        35.1136   29.3424   25.4051  O     
5    O        37.0515   29.2363   24.1470  O     
6    C        34.9190   25.9574   22.2122  C     
7    C        35.7192   23.6883   21.7567  C     
8    C        34.4259   23.2974   21.3629  C     
9    C        33.3805   24.2230   21.3807  C     
10   C        33.6233   25.5441   21.8131  C     
11   C        35.9981   25.0229   22.1731  C     
12   C        37.3342   25.3620   22.5357  C     
13   O        38.2751   24.4127   22.7494  O     
14   O        37.7697   26.6411   22.5656  O     
15   N        35.0709   27.2495   22.7066  N     
16   C        34.6226   28.2958   21.9101  C     
17   C        33.3534   28.8784   22.1409  C     
18   C        32.8830   29.9277   21.3463  C     
19   C        34.9478   29.8782   20.0569  C     
20   C        35.4198   28.8202   20.8574  C     
21   C        33.6699   30.4418   20.2846  C     
22   C        33.1195   31.5229   19.4085  C     
23   C        32.3269   30.9603   18.1838  C     
24   N        31.8870   32.0086   17.3037  N     
25   C        32.5422   32.4348   16.2075  C     
26   O        31.9197   33.3216   15.3938  O     
27   O        33.7923   31.9863   15.8990  O     
28   C        34.6580   32.2172   14.7664  C     
29   C        35.9859   31.4973   15.0957  C     
30   C        33.9904   31.5675   13.5054  C     
31   C        34.8800   33.7403   14.5252  C     
32   C        31.1780   30.1715   18.6209  C     
33   O        31.1451   28.9691   18.3396  O     
34   N        30.1875   30.7255   19.3018  N     
35   C        29.0800   30.0343   19.9065  C     
36   C        28.0002   31.0268   20.4061  C     
37   C        27.0186   30.4642   21.4715  C     
38   C        27.6430   30.0939   22.8498  C     
39   C        27.4130   31.1553   23.9506  C     
40   H        36.4597   22.9861   21.7274  H     
41   H        34.2545   22.3329   21.0571  H     
42   H        32.4473   23.9378   21.0992  H     
43   H        32.8334   26.1808   21.8583  H     
44   H        32.7644   28.5204   22.8974  H     
45   H        31.9559   30.3106   21.5330  H     
46   H        35.5362   30.2283   19.3080  H     
47   H        36.3400   28.4206   20.6773  H     
48   H        32.4672   32.1843   19.9729  H     
49   H        33.9515   32.1430   19.0429  H     
50   H        33.0133   30.3024   17.6309  H     
51   H        31.0132   32.4017   17.4663  H     
52   H        36.4243   31.9174   16.0033  H     
53   H        36.6971   31.6034   14.2888  H     
54   H        35.8131   30.4347   15.2734  H     
55   H        33.7780   30.5115   13.6919  H     
56   H        34.6548   31.6433   12.6461  H     
57   H        33.0538   32.0656   13.2629  H     
58   H        33.9349   34.2389   14.2772  H     
59   H        35.5937   33.8949   13.7094  H     
60   H        35.2846   34.2065   15.4236  H     
61   H        30.2454   31.6883   19.4615  H     
62   H        28.6272   29.3680   19.1611  H     
63   H        29.4569   29.4268   20.7295  H     
64   H        28.4839   31.9262   20.7934  H     
65   H        27.4097   31.3295   19.5351  H     
66   H        26.2339   31.2088   21.6467  H     
67   H        26.5181   29.5785   21.0670  H     
68   H        27.1905   29.1591   23.1917  H     
69   H        28.7144   29.9212   22.7371  H     
70   H        27.8916   32.1006   23.6880  H     
71   H        27.8327   30.8081   24.8961  H     
72   H        26.3436   31.3276   24.0904  H     
@<TRIPOS>BOND
     1    1    2 2
     2    1    3 1
     3    1   15 am
     4    3    4 2
     5    3    5 1
     6    6   10 2
     7    6   11 1
     8    6   15 1
     9    7    8 1
    10    7   11 2
    11    8    9 2
    12    9   10 1
    13   11   12 1
    14   12   13 1
    15   12   14 2
    16   15   16 1
    17   16   17 2
    18   16   20 1
    19   17   18 1
    20   18   21 2
    21   19   20 2
    22   19   21 1
    23   21   22 1
    24   22   23 1
    25   23   24 1
    26   23   32 1
    27   24   25 am
    28   25   26 2
    29   25   27 1
    30   27   28 1
    31   28   29 1
    32   28   30 1
    33   28   31 1
    34   32   33 2
    35   32   34 am
    36   34   35 1
    37   35   36 1
    38   36   37 1
    39   37   38 1
    40   38   39 1
    41    7   40 1
    42    8   41 1
    43    9   42 1
    44   10   43 1
    45   17   44 1
    46   18   45 1
    47   19   46 1
    48   20   47 1
    49   22   48 1
    50   22   49 1
    51   23   50 1
    52   24   51 1
    53   29   52 1
    54   29   53 1
    55   29   54 1
    56   30   55 1
    57   30   56 1
    58   30   57 1
    59   31   58 1
    60   31   59 1
    61   31   60 1
    62   34   61 1
    63   35   62 1
    64   35   63 1
    65   36   64 1
    66   36   65 1
    67   37   66 1
    68   37   67 1
    69   38   68 1
    70   38   69 1
    71   39   70 1
    72   39   71 1
    73   39   72 1
@<TRIPOS>PROPERTY_DATA
  Total_Score	| 15.5822
  Crash		| -2.0276
  Polar		| 13.0570
  FragIndex	| 1
  FragRMSD	| 0.769

