@<TRIPOS>MOLECULE
BindingDB_15817
 86 87 0 0 0
SMALL
NO_CHARGES


@<TRIPOS>ATOM
1    C        35.0412   28.1213   21.7960  C     
2    C        35.8508   28.4542   20.6683  C     
3    C        35.3915   29.4489   19.7719  C     
4    C        33.3863   29.8002   21.0700  C     
5    C        33.8269   28.8341   21.9883  C     
6    N        35.3514   27.1303   22.7283  N     
7    C        35.5441   27.4448   24.0292  C     
8    O        35.5113   26.5903   24.9068  O     
9    C        35.8774   28.7069   24.4827  C     
10   O        37.0310   29.2852   24.0895  O     
11   O        35.1162   29.3716   25.3800  O     
12   C        35.1243   25.8102   22.3676  C     
13   C        35.7581   23.4531   22.1133  C     
14   C        34.4544   23.1254   21.7048  C     
15   C        33.4766   24.1260   21.6312  C     
16   C        33.8095   25.4469   21.9686  C     
17   C        36.1219   24.7835   22.4540  C     
18   C        37.4771   25.0147   22.8459  C     
19   O        37.9623   26.2103   23.2455  O     
20   O        38.4228   24.0611   22.7050  O     
21   C        37.1622   27.8227   20.3547  C     
22   C        38.3688   28.6939   20.7689  C     
23   C        34.1493   30.1026   19.9197  C     
24   C        33.7092   31.0474   18.8418  C     
25   C        32.2150   31.5032   18.7782  C     
26   N        31.8075   32.3071   17.6609  N     
27   C        32.4584   32.7532   16.5931  C     
28   C        31.7391   33.5929   15.6725  C     
29   O        33.6272   32.4905   16.3601  O     
30   C        31.2622   30.3915   18.8247  C     
31   O        31.5710   29.3051   18.3316  O     
32   N        30.0610   30.5759   19.3684  N     
33   C        29.0207   29.6071   19.5275  C     
34   C        28.5949   29.4717   21.0156  C     
35   C        27.8196   30.6826   21.6218  C     
36   C        26.2696   30.5272   21.6534  C     
37   C        25.7221   29.3752   22.3570  C     
38   O        26.4532   28.5808   22.9460  O     
39   N        24.4020   29.2481   22.3908  N     
40   C        23.6308   28.2837   23.1327  C     
41   C        22.4215   27.8503   22.4017  C     
42   O        21.5543   28.7181   21.8370  O     
43   O        22.1378   26.5288   22.3113  O     
44   C        23.3205   28.8881   24.5322  C     
45   C        22.1941   29.9673   24.5651  C     
46   C        21.9163   30.5708   25.9693  C     
47   C        21.4963   32.0636   25.9418  C     
48   H        35.9668   29.6838   18.9557  H     
49   H        32.4968   30.2744   21.2477  H     
50   H        33.2285   28.6380   22.7939  H     
51   H        36.4330   22.6893   22.1536  H     
52   H        34.2131   22.1586   21.4624  H     
53   H        32.5235   23.8925   21.3348  H     
54   H        33.0662   26.1498   21.9245  H     
55   H        37.2515   26.8507   20.8242  H     
56   H        37.2220   27.6298   19.2776  H     
57   H        38.3091   29.6901   20.3458  H     
58   H        39.2877   28.2275   20.4232  H     
59   H        38.4192   28.7786   21.8519  H     
60   H        34.3464   31.9393   18.9183  H     
61   H        33.9299   30.5627   17.8806  H     
62   H        32.0655   32.1434   19.6583  H     
63   H        30.8845   32.5749   17.7094  H     
64   H        30.8805   33.0519   15.2765  H     
65   H        32.3633   33.9086   14.8364  H     
66   H        31.3960   34.4854   16.1930  H     
67   H        29.8588   31.4797   19.6783  H     
68   H        28.1695   29.9091   18.9125  H     
69   H        29.3219   28.6080   19.1859  H     
70   H        27.9803   28.5788   21.1177  H     
71   H        29.4953   29.3146   21.6173  H     
72   H        28.1740   30.8589   22.6439  H     
73   H        28.0673   31.5836   21.0569  H     
74   H        25.8526   31.4239   22.1264  H     
75   H        25.9004   30.5140   20.6248  H     
76   H        23.8982   29.9094   21.8831  H     
77   H        24.2332   27.3908   23.2953  H     
78   H        23.0430   28.0817   25.2138  H     
79   H        24.2514   29.3035   24.9205  H     
80   H        22.4117   30.7926   23.8723  H     
81   H        21.2670   29.4999   24.2090  H     
82   H        21.1006   30.0077   26.4382  H     
83   H        22.8023   30.4653   26.6058  H     
84   H        22.3142   32.6947   25.5894  H     
85   H        21.2242   32.3856   26.9470  H     
86   H        20.6336   32.2039   25.2851  H     
@<TRIPOS>BOND
     1    1    2 2
     2    1    5 1
     3    1    6 1
     4    2    3 1
     5    2   21 1
     6    3   23 2
     7    4    5 2
     8    4   23 1
     9    6    7 am
    10    6   12 1
    11    7    8 2
    12    7    9 1
    13    9   10 2
    14    9   11 1
    15   12   16 2
    16   12   17 1
    17   13   14 1
    18   13   17 2
    19   14   15 2
    20   15   16 1
    21   17   18 1
    22   18   19 2
    23   18   20 1
    24   21   22 1
    25   23   24 1
    26   24   25 1
    27   25   26 1
    28   25   30 1
    29   26   27 am
    30   27   28 1
    31   27   29 2
    32   30   31 2
    33   30   32 am
    34   32   33 1
    35   33   34 1
    36   34   35 1
    37   35   36 1
    38   36   37 1
    39   37   38 2
    40   37   39 am
    41   39   40 1
    42   40   41 1
    43   40   44 1
    44   41   42 2
    45   41   43 1
    46   44   45 1
    47   45   46 1
    48   46   47 1
    49    3   48 1
    50    4   49 1
    51    5   50 1
    52   13   51 1
    53   14   52 1
    54   15   53 1
    55   16   54 1
    56   21   55 1
    57   21   56 1
    58   22   57 1
    59   22   58 1
    60   22   59 1
    61   24   60 1
    62   24   61 1
    63   25   62 1
    64   26   63 1
    65   28   64 1
    66   28   65 1
    67   28   66 1
    68   32   67 1
    69   33   68 1
    70   33   69 1
    71   34   70 1
    72   34   71 1
    73   35   72 1
    74   35   73 1
    75   36   74 1
    76   36   75 1
    77   39   76 1
    78   40   77 1
    79   44   78 1
    80   44   79 1
    81   45   80 1
    82   45   81 1
    83   46   82 1
    84   46   83 1
    85   47   84 1
    86   47   85 1
    87   47   86 1
@<TRIPOS>PROPERTY_DATA
  Total_Score	| 17.3316
  Crash		| -2.3151
  Polar		| 15.2020
  FragIndex	| 1
  FragRMSD	| 0.525

