@<TRIPOS>MOLECULE
BindingDB_13973
 69 70 0 0 0
SMALL
NO_CHARGES


@<TRIPOS>ATOM
1    C        35.4897   27.4860   23.9924  C     
2    O        35.4458   26.6048   24.8456  O     
3    C        35.8263   28.7394   24.4690  C     
4    O        35.0488   29.4005   25.3548  O     
5    O        36.9938   29.3131   24.1141  O     
6    C        35.0819   25.8851   22.2783  C     
7    C        35.7117   23.5331   21.9580  C     
8    C        34.4313   23.2303   21.4770  C     
9    C        33.4611   24.2366   21.4066  C     
10   C        33.7807   25.5410   21.8139  C     
11   C        36.0731   24.8468   22.3604  C     
12   C        37.4129   25.0479   22.8154  C     
13   O        38.3631   24.0892   22.6869  O     
14   O        37.8869   26.2036   23.3406  O     
15   N        35.2932   27.2028   22.6879  N     
16   C        34.9785   28.2158   21.7841  C     
17   C        33.2924   29.8321   21.0199  C     
18   C        33.7231   28.8509   21.9225  C     
19   C        34.1108   30.2220   19.9397  C     
20   C        33.6783   31.1665   18.8617  C     
21   C        32.1715   31.5809   18.7362  C     
22   N        31.7864   32.3397   17.5772  N     
23   C        31.2517   30.4507   18.7800  C     
24   O        31.5172   29.4403   18.1248  O     
25   N        30.1658   30.4933   19.5386  N     
26   C        29.1786   29.4643   19.6587  C     
27   C        28.3496   29.6163   20.9575  C     
28   C        27.5431   30.9407   21.0443  C     
29   C        26.5922   31.0264   22.2694  C     
30   C        27.2898   30.9480   23.6458  C     
31   C        31.7399   33.5000   15.5067  C     
32   C        32.4600   32.7307   16.5017  C     
33   O        33.6395   32.4620   16.3196  O     
34   C        35.4116   29.6742   19.8650  C     
35   C        35.8529   28.6566   20.7429  C     
36   C        37.2436   28.1352   20.5637  C     
37   C        37.6093   27.6385   19.1301  C     
38   O        38.7470   28.3376   18.6169  O     
39   H        36.3807   22.7649   22.0102  H     
40   H        34.2019   22.2839   21.1823  H     
41   H        32.5215   24.0216   21.0571  H     
42   H        33.0393   26.2427   21.7709  H     
43   H        32.3749   30.2578   21.1595  H     
44   H        33.0893   28.5848   22.6811  H     
45   H        34.2706   32.0757   18.9884  H     
46   H        33.9616   30.7166   17.9061  H     
47   H        31.9699   32.2506   19.5828  H     
48   H        30.8523   32.5898   17.5808  H     
49   H        30.0246   31.2959   20.0637  H     
50   H        28.5175   29.4944   18.7855  H     
51   H        29.6731   28.4856   19.6783  H     
52   H        27.6540   28.7729   21.0163  H     
53   H        29.0287   29.5407   21.8090  H     
54   H        28.2303   31.7916   21.0736  H     
55   H        26.9365   31.0378   20.1418  H     
56   H        26.0585   31.9833   22.2249  H     
57   H        25.8398   30.2330   22.2065  H     
58   H        27.7847   29.9865   23.7718  H     
59   H        26.5529   31.0584   24.4463  H     
60   H        28.0328   31.7474   23.7454  H     
61   H        30.8930   32.9201   15.1335  H     
62   H        32.3775   33.7659   14.6612  H     
63   H        31.3654   34.4203   15.9606  H     
64   H        36.0393   29.9935   19.1225  H     
65   H        37.9404   28.9184   20.8805  H     
66   H        37.4174   27.2913   21.2288  H     
67   H        37.8666   26.5706   19.1550  H     
68   H        36.7720   27.7612   18.4405  H     
69   H        39.4981   28.0360   19.1737  H     
@<TRIPOS>BOND
     1    1    2 2
     2    1    3 1
     3    1   15 am
     4    3    4 2
     5    3    5 1
     6    6   10 2
     7    6   11 1
     8    6   15 1
     9    7    8 1
    10    7   11 2
    11    8    9 2
    12    9   10 1
    13   11   12 1
    14   12   13 1
    15   12   14 2
    16   15   16 1
    17   16   18 1
    18   16   35 2
    19   17   18 2
    20   17   19 1
    21   19   20 1
    22   19   34 2
    23   20   21 1
    24   21   22 1
    25   21   23 1
    26   22   32 am
    27   23   24 2
    28   23   25 am
    29   25   26 1
    30   26   27 1
    31   27   28 1
    32   28   29 1
    33   29   30 1
    34   31   32 1
    35   32   33 2
    36   34   35 1
    37   35   36 1
    38   36   37 1
    39   37   38 1
    40    7   39 1
    41    8   40 1
    42    9   41 1
    43   10   42 1
    44   17   43 1
    45   18   44 1
    46   20   45 1
    47   20   46 1
    48   21   47 1
    49   22   48 1
    50   25   49 1
    51   26   50 1
    52   26   51 1
    53   27   52 1
    54   27   53 1
    55   28   54 1
    56   28   55 1
    57   29   56 1
    58   29   57 1
    59   30   58 1
    60   30   59 1
    61   30   60 1
    62   31   61 1
    63   31   62 1
    64   31   63 1
    65   34   64 1
    66   36   65 1
    67   36   66 1
    68   37   67 1
    69   37   68 1
    70   38   69 1
@<TRIPOS>PROPERTY_DATA
  Total_Score	| 16.1139
  Crash		| -2.0908
  Polar		| 14.1064
  FragIndex	| 1
  FragRMSD	| 0.499

