@<TRIPOS>MOLECULE
BindingDB_23408
 33 35 0 0 0
SMALL
NO_CHARGES


@<TRIPOS>ATOM
1    C        74.8698   38.4608    2.7788  C     
2    C        74.5081   39.7217    3.2901  C     
3    C        74.0991   40.7422    2.4006  C     
4    C        74.0539   40.4866    1.0093  C     
5    C        74.8254   38.2041    1.3934  C     
6    C        74.4143   39.2082    0.4870  C     
7    C        74.4178   38.8479   -0.8711  C     
8    C        74.6989   37.5744   -1.2867  C     
9    C        75.1288   36.6601   -0.3792  C     
10   O        74.2386   39.7019   -1.7333  O     
11   O        75.2391   36.9719    0.9410  O     
12   O        74.5014   37.2100   -2.5559  O     
13   O        73.6898   41.5280    0.2104  O     
14   O        74.5684   39.9607    4.6328  O     
15   O        73.7657   41.9840    2.8567  O     
16   C        75.5734   35.3605   -0.6733  C     
17   C        75.9840   33.0519    0.1292  C     
18   C        75.4272   34.3326    0.2980  C     
19   C        76.3054   35.0423   -1.8448  C     
20   C        76.8453   33.7486   -2.0447  C     
21   C        76.6767   32.7451   -1.0652  C     
22   O        75.8994   32.1786    1.1786  O     
23   O        77.1845   31.5033   -1.2836  O     
24   H        75.1851   37.7229    3.4067  H     
25   H        74.3840   38.0404   -3.0781  H     
26   H        73.0125   41.1611   -0.3938  H     
27   H        75.3767   39.5021    4.9639  H     
28   H        74.5827   42.4476    3.1472  H     
29   H        74.9195   34.5213    1.1603  H     
30   H        76.5190   35.7638   -2.5345  H     
31   H        77.3812   33.5439   -2.8957  H     
32   H        75.7064   31.2873    0.7997  H     
33   H        77.5765   31.2000   -0.4398  H     
@<TRIPOS>BOND
     1    1    2 2
     2    1    5 1
     3    2    3 1
     4    2   14 1
     5    3    4 2
     6    3   15 1
     7    4    6 1
     8    4   13 1
     9    5    6 2
    10    5   11 1
    11    6    7 1
    12    7    8 1
    13    7   10 2
    14    8    9 2
    15    8   12 1
    16    9   11 1
    17    9   16 1
    18   16   18 2
    19   16   19 1
    20   17   18 1
    21   17   21 2
    22   17   22 1
    23   19   20 2
    24   20   21 1
    25   21   23 1
    26    1   24 1
    27   12   25 1
    28   13   26 1
    29   14   27 1
    30   15   28 1
    31   18   29 1
    32   19   30 1
    33   20   31 1
    34   22   32 1
    35   23   33 1
@<TRIPOS>PROPERTY_DATA
  Total_Score	| 6.1639
  Crash		| -1.4997
  Polar		| 3.7337
  FragIndex	| 1
  FragRMSD	| 0.070

