@<TRIPOS>MOLECULE
BindingDB_26655
 33 35 0 0 0
SMALL
NO_CHARGES


@<TRIPOS>ATOM
1    C        74.8584   38.4955    2.7830  C     
2    C        74.0390   40.7450    2.3558  C     
3    C        74.0226   40.4869    0.9717  C     
4    C        74.8587   38.2392    1.3958  C     
5    C        74.4283   39.2222    0.4706  C     
6    C        74.4502   38.8460   -0.8803  C     
7    C        74.7556   37.5592   -1.2706  C     
8    C        75.2153   36.6705   -0.3553  C     
9    O        75.3256   37.0199    0.9515  O     
10   O        74.2367   39.6843   -1.7485  O     
11   C        75.6419   35.3604   -0.6328  C     
12   C        76.0298   33.0502    0.1654  C     
13   C        75.5171   34.3492    0.3563  C     
14   C        76.3045   35.0146   -1.8371  C     
15   C        76.8047   33.7117   -2.0471  C     
16   C        76.6748   32.7274   -1.0470  C     
17   O        74.4984   37.1517   -2.5210  O     
18   C        74.4552   39.7560    3.2625  C     
19   O        77.1925   31.4876   -1.2644  O     
20   O        75.9334   32.1481    1.1787  O     
21   O        74.4733   40.0495    4.5934  O     
22   O        73.6092   41.5002    0.1704  O     
23   O        75.2331   37.5133    3.6435  O     
24   H        73.7426   41.6569    2.7067  H     
25   H        75.0523   34.5524    1.2465  H     
26   H        76.4707   35.7208   -2.5636  H     
27   H        77.2911   33.4878   -2.9192  H     
28   H        74.4078   37.9588   -3.0855  H     
29   H        77.5638   31.1932   -0.4060  H     
30   H        75.7129   31.2833    0.7691  H     
31   H        75.2653   39.6043    4.9578  H     
32   H        72.9545   41.0998   -0.4414  H     
33   H        74.4171   37.2819    4.1397  H     
@<TRIPOS>BOND
     1    1    4 1
     2    1   18 2
     3    1   23 1
     4    2    3 2
     5    2   18 1
     6    3    5 1
     7    3   22 1
     8    4    5 2
     9    4    9 1
    10    5    6 1
    11    6    7 1
    12    6   10 2
    13    7    8 2
    14    7   17 1
    15    8    9 1
    16    8   11 1
    17   11   13 2
    18   11   14 1
    19   12   13 1
    20   12   16 2
    21   12   20 1
    22   14   15 2
    23   15   16 1
    24   16   19 1
    25   18   21 1
    26    2   24 1
    27   13   25 1
    28   14   26 1
    29   15   27 1
    30   17   28 1
    31   19   29 1
    32   20   30 1
    33   21   31 1
    34   22   32 1
    35   23   33 1
@<TRIPOS>PROPERTY_DATA
  Total_Score	| 5.8343
  Crash		| -1.6945
  Polar		| 3.7617
  FragIndex	| 1
  FragRMSD	| 0.062

