@<TRIPOS>MOLECULE
BindingDB_26662
 31 33 0 0 0
SMALL
NO_CHARGES


@<TRIPOS>ATOM
1    C        74.8539   38.5470    2.7161  C     
2    C        74.1321   40.8332    2.2572  C     
3    C        74.0956   40.5453    0.8774  C     
4    C        74.8329   38.2659    1.3351  C     
5    C        74.4420   39.2562    0.4013  C     
6    C        74.4330   38.8828   -0.9435  C     
7    C        74.7237   37.5951   -1.3306  C     
8    C        75.1208   36.6830   -0.4074  C     
9    O        75.2275   37.0186    0.9053  O     
10   O        74.1591   39.7211   -1.7946  O     
11   C        75.5049   35.3686   -0.6874  C     
12   C        75.7518   33.0159   -0.0094  C     
13   C        75.2122   34.2986    0.2060  C     
14   C        76.3304   35.0869   -1.8086  C     
15   C        76.8539   33.7977   -2.0248  C     
16   C        76.5869   32.7621   -1.1144  C     
17   C        74.5034   39.8287    3.1714  C     
18   O        77.1329   31.5350   -1.2991  O     
19   O        74.5262   37.2173   -2.6005  O     
20   O        73.8104   42.0847    2.6848  O     
21   O        74.4226   34.4322    1.3127  O     
22   H        75.1369   37.8285    3.3771  H     
23   H        73.8157   41.2849    0.2272  H     
24   H        75.5461   32.2591    0.6465  H     
25   H        76.6076   35.8279   -2.4580  H     
26   H        77.4681   33.6222   -2.8274  H     
27   H        74.5291   40.0318    4.1726  H     
28   H        77.5063   31.2772   -0.4277  H     
29   H        74.3846   38.0278   -3.1481  H     
30   H        74.6674   42.5216    2.8967  H     
31   H        73.7418   35.1134    1.1132  H     
@<TRIPOS>BOND
     1    1    4 1
     2    1   17 2
     3    2    3 2
     4    2   17 1
     5    2   20 1
     6    3    5 1
     7    4    5 2
     8    4    9 1
     9    5    6 1
    10    6    7 1
    11    6   10 2
    12    7    8 2
    13    7   19 1
    14    8    9 1
    15    8   11 1
    16   11   13 2
    17   11   14 1
    18   12   13 1
    19   12   16 2
    20   13   21 1
    21   14   15 2
    22   15   16 1
    23   16   18 1
    24    1   22 1
    25    3   23 1
    26   12   24 1
    27   14   25 1
    28   15   26 1
    29   17   27 1
    30   18   28 1
    31   19   29 1
    32   20   30 1
    33   21   31 1
@<TRIPOS>PROPERTY_DATA
  Total_Score	| 5.7498
  Crash		| -0.9250
  Polar		| 1.9246
  FragIndex	| 1
  FragRMSD	| 0.131

