@<TRIPOS>MOLECULE
BindingDB_26657
 30 32 0 0 0
SMALL
NO_CHARGES


@<TRIPOS>ATOM
1    C        74.9079   38.4563    2.6510  C     
2    C        74.0653   40.7164    2.3056  C     
3    C        74.0254   40.5006    0.9120  C     
4    C        74.8766   38.2554    1.2621  C     
5    C        74.4053   39.2436    0.3749  C     
6    C        74.3513   38.8941   -0.9746  C     
7    C        74.6329   37.6274   -1.4047  C     
8    C        75.1529   36.7207   -0.5245  C     
9    O        75.3627   37.0702    0.7788  O     
10   O        74.0377   39.7680   -1.7848  O     
11   C        75.5536   35.4046   -0.8160  C     
12   C        76.9507   33.7709   -2.0408  C     
13   C        76.4460   35.0743   -1.8736  C     
14   C        75.1853   34.3413    0.0685  C     
15   C        75.6948   33.0381   -0.0985  C     
16   C        76.5905   32.7535   -1.1483  C     
17   C        74.4864   39.6896    3.1796  C     
18   O        77.1178   31.5101   -1.3048  O     
19   O        74.4671   39.9050    4.5256  O     
20   O        74.2983   37.2028   -2.6366  O     
21   H        75.2351   37.7085    3.2716  H     
22   H        73.7614   41.6164    2.6894  H     
23   H        73.7058   41.2510    0.2900  H     
24   H        77.6129   33.5829   -2.7993  H     
25   H        76.7732   35.7929   -2.5431  H     
26   H        74.5578   34.4904    0.8642  H     
27   H        75.4213   32.3080    0.5721  H     
28   H        77.4571   31.2855   -0.4147  H     
29   H        74.5499   39.0157    4.9402  H     
30   H        74.3197   38.0323   -3.2539  H     
@<TRIPOS>BOND
     1    1    4 1
     2    1   17 2
     3    2    3 2
     4    2   17 1
     5    3    5 1
     6    4    5 2
     7    4    9 1
     8    5    6 1
     9    6    7 1
    10    6   10 2
    11    7    8 2
    12    7   20 1
    13    8    9 1
    14    8   11 1
    15   11   13 2
    16   11   14 1
    17   12   13 1
    18   12   16 2
    19   14   15 2
    20   15   16 1
    21   16   18 1
    22   17   19 1
    23    1   21 1
    24    2   22 1
    25    3   23 1
    26   12   24 1
    27   13   25 1
    28   14   26 1
    29   15   27 1
    30   18   28 1
    31   19   29 1
    32   20   30 1
@<TRIPOS>PROPERTY_DATA
  Total_Score	| 5.7734
  Crash		| -1.0318
  Polar		| 2.1224
  FragIndex	| 1
  FragRMSD	| 0.201

