@<TRIPOS>MOLECULE
BindingDB_7459
 31 33 0 0 0
SMALL
NO_CHARGES


@<TRIPOS>ATOM
1    C        74.0852   40.4963    1.0362  C     
2    C        74.1033   40.7835    2.4202  C     
3    C        74.4868   39.8040    3.3552  C     
4    C        74.8567   38.5217    2.9033  C     
5    O        74.4990   40.1051    4.6836  O     
6    C        74.4526   39.2036    0.5756  C     
7    C        74.8353   38.2220    1.5271  C     
8    C        74.4727   38.8008   -0.7647  C     
9    C        75.2125   36.6268   -0.1968  C     
10   C        74.8291   37.5369   -1.1239  C     
11   O        74.1877   39.5896   -1.6606  O     
12   O        75.2073   36.9607    1.1249  O     
13   C        75.6567   35.3233   -0.5027  C     
14   C        76.2739   34.9869   -1.7415  C     
15   C        75.5649   34.2987    0.4757  C     
16   C        76.0709   33.0026    0.2461  C     
17   C        76.6931   32.7018   -0.9858  C     
18   C        76.7862   33.6972   -1.9743  C     
19   O        77.2265   31.4746   -1.2343  O     
20   O        73.7343   41.4781    0.1657  O     
21   O        75.9881   32.0911    1.2495  O     
22   H        73.8421   41.7163    2.7549  H     
23   H        75.1495   37.8031    3.5721  H     
24   H        74.9665   39.3648    5.1280  H     
25   H        74.7900   37.2819   -2.0833  H     
26   H        76.4085   35.6909   -2.4723  H     
27   H        75.1327   34.4859    1.3841  H     
28   H        77.2598   33.4907   -2.8570  H     
29   H        77.6127   31.1697   -0.3886  H     
30   H        73.4410   42.2536    0.7011  H     
31   H        75.7426   31.2471    0.8270  H     
@<TRIPOS>BOND
     1    1    2 1
     2    1    6 2
     3    1   20 1
     4    2    3 2
     5    3    4 1
     6    3    5 1
     7    4    7 2
     8    6    7 1
     9    6    8 1
    10    7   12 1
    11    8   10 1
    12    8   11 2
    13    9   10 2
    14    9   12 1
    15    9   13 1
    16   13   14 1
    17   13   15 2
    18   14   18 2
    19   15   16 1
    20   16   17 2
    21   16   21 1
    22   17   18 1
    23   17   19 1
    24    2   22 1
    25    4   23 1
    26    5   24 1
    27   10   25 1
    28   14   26 1
    29   15   27 1
    30   18   28 1
    31   19   29 1
    32   20   30 1
    33   21   31 1
@<TRIPOS>PROPERTY_DATA
  Total_Score	| 5.2234
  Crash		| -1.5429
  Polar		| 3.1548
  FragIndex	| 1
  FragRMSD	| 0.140

