@<TRIPOS>MOLECULE
BindingDB_26659
 29 31 0 0 0
SMALL
NO_CHARGES


@<TRIPOS>ATOM
1    C        74.8237   38.5193    2.8069  C     
2    C        74.1338   40.7979    2.2799  C     
3    C        74.0976   40.4825    0.9138  C     
4    C        74.7669   38.1939    1.4389  C     
5    C        74.4018   39.1700    0.4830  C     
6    C        74.3937   38.7723   -0.8479  C     
7    C        74.7750   37.5077   -1.2172  C     
8    C        75.1471   36.5952   -0.2881  C     
9    O        75.0896   36.9177    1.0397  O     
10   O        74.1088   39.5745   -1.7300  O     
11   C        75.6362   35.3137   -0.5883  C     
12   C        76.1578   33.0222    0.1481  C     
13   C        75.5991   34.2907    0.3902  C     
14   C        76.2627   35.0017   -1.8244  C     
15   C        76.8424   33.7416   -2.0659  C     
16   C        76.7873   32.7421   -1.0792  C     
17   C        74.4862   39.8213    3.2342  C     
18   O        74.4655   40.1522    4.5534  O     
19   O        76.1200   32.0972    1.1476  O     
20   H        75.1062   37.8060    3.4944  H     
21   H        73.8923   41.7415    2.5927  H     
22   H        73.8430   41.2099    0.2412  H     
23   H        74.7557   37.2737   -2.1879  H     
24   H        75.1653   34.4363    1.2984  H     
25   H        76.3791   35.7118   -2.5496  H     
26   H        77.3453   33.5649   -2.9377  H     
27   H        77.2425   31.8351   -1.2439  H     
28   H        75.1908   39.6322    4.9640  H     
29   H        75.8054   31.2554    0.7268  H     
@<TRIPOS>BOND
     1    1    4 1
     2    1   17 2
     3    2    3 2
     4    2   17 1
     5    3    5 1
     6    4    5 2
     7    4    9 1
     8    5    6 1
     9    6    7 1
    10    6   10 2
    11    7    8 2
    12    8    9 1
    13    8   11 1
    14   11   13 2
    15   11   14 1
    16   12   13 1
    17   12   16 2
    18   12   19 1
    19   14   15 2
    20   15   16 1
    21   17   18 1
    22    1   20 1
    23    2   21 1
    24    3   22 1
    25    7   23 1
    26   13   24 1
    27   14   25 1
    28   15   26 1
    29   16   27 1
    30   18   28 1
    31   19   29 1
@<TRIPOS>PROPERTY_DATA
  Total_Score	| 5.0663
  Crash		| -0.6986
  Polar		| 2.0604
  FragIndex	| 1
  FragRMSD	| 0.139

