@<TRIPOS>MOLECULE
BindingDB_7460
 32 34 0 0 0
SMALL
NO_CHARGES


@<TRIPOS>ATOM
1    C        74.0466   40.5281    0.9345  C     
2    C        74.1003   40.7786    2.3205  C     
3    C        74.5106   39.7758    3.2157  C     
4    C        74.8649   38.5097    2.7158  C     
5    O        74.5757   40.0035    4.5540  O     
6    C        74.4014   39.2446    0.4207  C     
7    C        74.8169   38.2448    1.3348  C     
8    C        74.3896   38.8631   -0.9306  C     
9    C        75.1278   36.6804   -0.4150  C     
10   C        74.6865   37.5788   -1.3297  C     
11   O        74.1817   39.7050   -1.7938  O     
12   O        74.4636   37.1826   -2.5815  O     
13   O        75.2246   37.0104    0.9019  O     
14   C        75.5512   35.3697   -0.6973  C     
15   C        76.3023   35.0406   -1.8525  C     
16   C        75.3491   34.3495    0.2672  C     
17   C        75.9120   33.0650    0.1171  C     
18   C        76.6568   32.7637   -1.0420  C     
19   C        76.8347   33.7465   -2.0319  C     
20   O        77.2395   31.5411   -1.2268  O     
21   O        75.7554   32.1739    1.1312  O     
22   O        73.6456   41.5495    0.1359  O     
23   H        73.8378   41.6981    2.6771  H     
24   H        75.1706   37.7799    3.3596  H     
25   H        74.6087   40.9808    4.6796  H     
26   H        74.3777   37.9942   -3.1368  H     
27   H        76.5179   35.7601   -2.5497  H     
28   H        74.8087   34.5415    1.1098  H     
29   H        77.3972   33.5325   -2.8583  H     
30   H        77.6374   31.2987   -0.3636  H     
31   H        75.6394   31.2873    0.7143  H     
32   H        72.9570   41.1617   -0.4483  H     
@<TRIPOS>BOND
     1    1    2 1
     2    1    6 2
     3    1   22 1
     4    2    3 2
     5    3    4 1
     6    3    5 1
     7    4    7 2
     8    6    7 1
     9    6    8 1
    10    7   13 1
    11    8   10 1
    12    8   11 2
    13    9   10 2
    14    9   13 1
    15    9   14 1
    16   10   12 1
    17   14   15 1
    18   14   16 2
    19   15   19 2
    20   16   17 1
    21   17   18 2
    22   17   21 1
    23   18   19 1
    24   18   20 1
    25    2   23 1
    26    4   24 1
    27    5   25 1
    28   12   26 1
    29   15   27 1
    30   16   28 1
    31   19   29 1
    32   20   30 1
    33   21   31 1
    34   22   32 1
@<TRIPOS>PROPERTY_DATA
  Total_Score	| 6.0780
  Crash		| -1.5677
  Polar		| 3.6869
  FragIndex	| 1
  FragRMSD	| 0.091

