@<TRIPOS>MOLECULE
BindingDB_26661
 31 33 0 0 0
SMALL
NO_CHARGES


@<TRIPOS>ATOM
1    C        74.8222   38.6882    2.8544  C     
2    C        74.1010   40.9473    2.2958  C     
3    C        74.0442   40.5998    0.9384  C     
4    C        74.7658   38.3339    1.4933  C     
5    C        74.3765   39.2870    0.5202  C     
6    C        74.3636   38.8600   -0.8109  C     
7    C        74.7279   37.5871   -1.1433  C     
8    C        75.1102   36.6964   -0.1938  C     
9    O        75.0985   37.0462    1.1205  O     
10   O        74.0822   39.6439   -1.7108  O     
11   C        75.5670   35.3925   -0.4743  C     
12   C        75.9500   33.0681    0.2782  C     
13   C        75.4205   34.3569    0.4889  C     
14   C        76.2628   35.0731   -1.6694  C     
15   C        76.7972   33.7863   -1.8866  C     
16   C        76.6405   32.7803   -0.9191  C     
17   C        74.4934   39.9972    3.2548  C     
18   O        74.5424   40.3604    4.5636  O     
19   O        75.8266   32.1465    1.2668  O     
20   O        77.1933   31.5531   -1.1352  O     
21   O        77.5342   33.5388   -2.9937  O     
22   H        75.1141   37.9953    3.5469  H     
23   H        73.8510   41.8901    2.5849  H     
24   H        73.7676   41.3070    0.2514  H     
25   H        74.6889   37.3146   -2.1049  H     
26   H        74.9296   34.5416    1.3646  H     
27   H        76.4462   35.7906   -2.3789  H     
28   H        75.0048   39.6352    5.0352  H     
29   H        75.6564   31.2911    0.8196  H     
30   H        77.5369   31.2504   -0.2707  H     
31   H        78.0687   34.3494   -3.1329  H     
@<TRIPOS>BOND
     1    1    4 1
     2    1   17 2
     3    2    3 2
     4    2   17 1
     5    3    5 1
     6    4    5 2
     7    4    9 1
     8    5    6 1
     9    6    7 1
    10    6   10 2
    11    7    8 2
    12    8    9 1
    13    8   11 1
    14   11   13 2
    15   11   14 1
    16   12   13 1
    17   12   16 2
    18   12   19 1
    19   14   15 2
    20   15   16 1
    21   15   21 1
    22   16   20 1
    23   17   18 1
    24    1   22 1
    25    2   23 1
    26    3   24 1
    27    7   25 1
    28   13   26 1
    29   14   27 1
    30   18   28 1
    31   19   29 1
    32   20   30 1
    33   21   31 1
@<TRIPOS>PROPERTY_DATA
  Total_Score	| 5.1742
  Crash		| -1.7864
  Polar		| 3.0118
  FragIndex	| 1
  FragRMSD	| 0.173

