@<TRIPOS>MOLECULE
BindingDB_7462
 31 33 0 0 0
SMALL
NO_CHARGES


@<TRIPOS>ATOM
1    C        74.0472   40.4710    0.9520  C     
2    C        74.1033   40.7189    2.3368  C     
3    C        74.4818   39.6977    3.2237  C     
4    C        74.8172   38.4258    2.7217  C     
5    O        74.5165   39.9549    4.5589  O     
6    C        74.3802   39.1850    0.4382  C     
7    C        74.7686   38.1696    1.3422  C     
8    C        74.3679   38.8317   -0.9212  C     
9    C        75.0861   36.6329   -0.4325  C     
10   C        74.6846   37.5593   -1.3414  C     
11   O        74.1444   39.6795   -1.7757  O     
12   O        75.1207   36.9268    0.8957  O     
13   C        75.5208   35.3343   -0.7464  C     
14   C        76.4253   35.0713   -1.8104  C     
15   C        75.1614   34.2446    0.0911  C     
16   C        75.6942   32.9575   -0.1104  C     
17   C        76.5935   32.7239   -1.1642  C     
18   C        76.9484   33.7799   -2.0210  C     
19   O        77.1292   31.4860   -1.3579  O     
20   O        73.6600   41.5110    0.1640  O     
21   O        74.5201   37.2044   -2.6273  O     
22   H        73.8551   41.6407    2.6994  H     
23   H        75.1039   37.6902    3.3743  H     
24   H        73.9043   39.2960    4.9623  H     
25   H        76.7515   35.8238   -2.4169  H     
26   H        74.5182   34.3794    0.8755  H     
27   H        75.4316   32.1919    0.5157  H     
28   H        77.6160   33.6200   -2.7819  H     
29   H        77.5174   31.2360   -0.4759  H     
30   H        72.9888   41.1330   -0.4441  H     
31   H        74.3702   38.0130   -3.1625  H     
@<TRIPOS>BOND
     1    1    2 1
     2    1    6 2
     3    1   20 1
     4    2    3 2
     5    3    4 1
     6    3    5 1
     7    4    7 2
     8    6    7 1
     9    6    8 1
    10    7   12 1
    11    8   10 1
    12    8   11 2
    13    9   10 2
    14    9   12 1
    15    9   13 1
    16   10   21 1
    17   13   14 1
    18   13   15 2
    19   14   18 2
    20   15   16 1
    21   16   17 2
    22   17   18 1
    23   17   19 1
    24    2   22 1
    25    4   23 1
    26    5   24 1
    27   14   25 1
    28   15   26 1
    29   16   27 1
    30   18   28 1
    31   19   29 1
    32   20   30 1
    33   21   31 1
@<TRIPOS>PROPERTY_DATA
  Total_Score	| 5.2320
  Crash		| -1.2689
  Polar		| 1.9265
  FragIndex	| 1
  FragRMSD	| 0.181

