@<TRIPOS>MOLECULE
BindingDB_7458
 30 32 0 0 0
SMALL
NO_CHARGES


@<TRIPOS>ATOM
1    C        74.0526   40.4115    1.0229  C     
2    C        74.1004   40.6839    2.4050  C     
3    C        74.5047   39.6959    3.3193  C     
4    C        74.8103   38.4029    2.8498  C     
5    O        74.6114   40.0170    4.6347  O     
6    C        74.3881   39.1164    0.5439  C     
7    C        74.7367   38.1039    1.4707  C     
8    C        74.4319   38.7758   -0.8225  C     
9    C        75.1471   36.5863   -0.3136  C     
10   C        74.8234   37.5360   -1.2268  C     
11   O        74.2393   39.6109   -1.7015  O     
12   O        75.0282   36.8290    1.0305  O     
13   C        75.5612   35.2994   -0.6719  C     
14   C        76.4246   35.0549   -1.7752  C     
15   C        75.1761   34.1946    0.1339  C     
16   C        75.6355   32.9061   -0.1497  C     
17   C        76.5367   32.6851   -1.1979  C     
18   C        76.9193   33.7531   -2.0326  C     
19   O        77.0956   31.4573   -1.3294  O     
20   O        73.6706   41.4368    0.2066  O     
21   H        73.8521   41.6286    2.7442  H     
22   H        75.0888   37.6753    3.5108  H     
23   H        75.2460   39.3693    5.0089  H     
24   H        74.8808   37.3438   -2.1980  H     
25   H        76.7665   35.8253   -2.3743  H     
26   H        74.5635   34.3133    0.9319  H     
27   H        75.3638   32.1404    0.4609  H     
28   H        77.6039   33.6076   -2.7825  H     
29   H        77.4506   31.2382   -0.4324  H     
30   H        73.0153   41.0422   -0.4052  H     
@<TRIPOS>BOND
     1    1    2 1
     2    1    6 2
     3    1   20 1
     4    2    3 2
     5    3    4 1
     6    3    5 1
     7    4    7 2
     8    6    7 1
     9    6    8 1
    10    7   12 1
    11    8   10 1
    12    8   11 2
    13    9   10 2
    14    9   12 1
    15    9   13 1
    16   13   14 1
    17   13   15 2
    18   14   18 2
    19   15   16 1
    20   16   17 2
    21   17   18 1
    22   17   19 1
    23    2   21 1
    24    4   22 1
    25    5   23 1
    26   10   24 1
    27   14   25 1
    28   15   26 1
    29   16   27 1
    30   18   28 1
    31   19   29 1
    32   20   30 1
@<TRIPOS>PROPERTY_DATA
  Total_Score	| 4.6832
  Crash		| -1.2184
  Polar		| 1.2127
  FragIndex	| 1
  FragRMSD	| 0.214

