@<TRIPOS>MOLECULE
BindingDB_26660
 29 31 0 0 0
SMALL
NO_CHARGES


@<TRIPOS>ATOM
1    C        74.8555   38.4419    2.6893  C     
2    C        74.0736   40.7129    2.2669  C     
3    C        74.0383   40.4408    0.8896  C     
4    C        74.8011   38.1636    1.3109  C     
5    C        74.4009   39.1654    0.3918  C     
6    C        74.4037   38.8188   -0.9614  C     
7    C        74.7421   37.5547   -1.3817  C     
8    C        75.1336   36.6251   -0.4683  C     
9    O        75.1488   36.9060    0.8700  O     
10   O        74.1462   39.6789   -1.7965  O     
11   C        75.5698   35.3277   -0.7901  C     
12   C        76.9694   33.8002   -2.1217  C     
13   C        76.4653   35.0882   -1.8641  C     
14   C        75.1952   34.2231    0.0168  C     
15   C        75.6906   32.9322   -0.2494  C     
16   C        76.5825   32.7205   -1.3160  C     
17   C        74.4905   39.7170    3.1687  C     
18   O        74.5203   39.9975    4.4989  O     
19   O        74.5958   37.2050   -2.6619  O     
20   H        75.1592   37.7188    3.3456  H     
21   H        73.7918   41.6323    2.6083  H     
22   H        73.7394   41.1845    0.2486  H     
23   H        77.6198   33.6529   -2.8896  H     
24   H        76.7933   35.8613   -2.4514  H     
25   H        74.5532   34.3417    0.7956  H     
26   H        75.4069   32.1391    0.3371  H     
27   H        76.9505   31.7808   -1.5020  H     
28   H        75.3029   39.5122    4.8539  H     
29   H        74.3987   38.0105   -3.1904  H     
@<TRIPOS>BOND
     1    1    4 1
     2    1   17 2
     3    2    3 2
     4    2   17 1
     5    3    5 1
     6    4    5 2
     7    4    9 1
     8    5    6 1
     9    6    7 1
    10    6   10 2
    11    7    8 2
    12    7   19 1
    13    8    9 1
    14    8   11 1
    15   11   13 2
    16   11   14 1
    17   12   13 1
    18   12   16 2
    19   14   15 2
    20   15   16 1
    21   17   18 1
    22    1   20 1
    23    2   21 1
    24    3   22 1
    25   12   23 1
    26   13   24 1
    27   14   25 1
    28   15   26 1
    29   16   27 1
    30   18   28 1
    31   19   29 1
@<TRIPOS>PROPERTY_DATA
  Total_Score	| 4.6975
  Crash		| -0.7156
  Polar		| 0.8031
  FragIndex	| 1
  FragRMSD	| 0.223

