@<TRIPOS>MOLECULE
BindingDB_7457
 31 33 0 0 0
SMALL
NO_CHARGES


@<TRIPOS>ATOM
1    C        74.0279   40.5499    0.8778  C     
2    C        74.0330   40.8290    2.2577  C     
3    C        74.4374   39.8486    3.1778  C     
4    C        74.8635   38.5847    2.7140  C     
5    O        74.4217   40.1043    4.5064  O     
6    C        74.4137   39.2718    0.4014  C     
7    C        74.8485   38.3021    1.3359  C     
8    C        74.3952   38.8795   -0.9399  C     
9    C        75.1780   36.7066   -0.3984  C     
10   C        74.7207   37.5921   -1.3195  C     
11   O        74.0875   39.7017   -1.7919  O     
12   O        74.4978   37.1866   -2.5741  O     
13   O        75.2865   37.0642    0.9068  O     
14   C        75.6103   35.3971   -0.6692  C     
15   C        76.3034   35.0492   -1.8544  C     
16   C        75.4646   34.3835    0.3186  C     
17   C        75.9824   33.0900    0.1380  C     
18   C        76.6533   32.7611   -1.0574  C     
19   C        76.8063   33.7457   -2.0543  C     
20   O        77.1910   31.5310   -1.2486  O     
21   O        75.8828   32.2013    1.1644  O     
22   H        73.7218   41.2792    0.2302  H     
23   H        73.7313   41.7470    2.5953  H     
24   H        75.1714   37.8720    3.3783  H     
25   H        73.4831   39.9992    4.7778  H     
26   H        74.3825   38.0000   -3.1268  H     
27   H        76.4958   35.7557   -2.5687  H     
28   H        74.9835   34.5874    1.2009  H     
29   H        77.3195   33.5252   -2.9105  H     
30   H        77.5905   31.2628   -0.3940  H     
31   H        75.6791   31.3284    0.7580  H     
@<TRIPOS>BOND
     1    1    2 1
     2    1    6 2
     3    2    3 2
     4    3    4 1
     5    3    5 1
     6    4    7 2
     7    6    7 1
     8    6    8 1
     9    7   13 1
    10    8   10 1
    11    8   11 2
    12    9   10 2
    13    9   13 1
    14    9   14 1
    15   10   12 1
    16   14   15 1
    17   14   16 2
    18   15   19 2
    19   16   17 1
    20   17   18 2
    21   17   21 1
    22   18   19 1
    23   18   20 1
    24    1   22 1
    25    2   23 1
    26    4   24 1
    27    5   25 1
    28   12   26 1
    29   15   27 1
    30   16   28 1
    31   19   29 1
    32   20   30 1
    33   21   31 1
@<TRIPOS>PROPERTY_DATA
  Total_Score	| 6.6206
  Crash		| -1.1505
  Polar		| 3.7927
  FragIndex	| 1
  FragRMSD	| 0.081

