@<TRIPOS>MOLECULE
BindingDB_15236
 33 35 0 0 0
SMALL
NO_CHARGES


@<TRIPOS>ATOM
1    C        73.9983   40.5134    1.0911  C     
2    C        74.0427   40.7768    2.4757  C     
3    C        74.4314   39.7769    3.3847  C     
4    C        74.7916   38.5031    2.9003  C     
5    O        74.4759   40.0096    4.7208  O     
6    C        74.3567   39.2277    0.5947  C     
7    C        74.7534   38.2325    1.5212  C     
8    C        74.3803   38.8438   -0.7615  C     
9    C        75.1146   36.6625   -0.2189  C     
10   C        74.6962   37.5606   -1.1458  C     
11   O        74.1986   39.6882   -1.6306  O     
12   O        74.5208   37.1756   -2.4157  O     
13   O        75.1501   36.9865    1.0977  O     
14   C        75.5574   35.3594   -0.4999  C     
15   C        75.3886   34.3301    0.4647  C     
16   C        76.2926   35.0379   -1.6700  C     
17   C        76.8280   33.7484   -1.8696  C     
18   C        76.6418   32.7421   -0.9028  C     
19   O        77.1942   31.5178   -1.0990  O     
20   O        77.5816   33.4878   -2.9656  O     
21   O        73.6076   41.5307    0.2842  O     
22   C        75.9235   33.0398    0.2752  C     
23   O        75.7762   32.1293    1.2715  O     
24   H        73.7906   41.7044    2.8225  H     
25   H        75.0888   37.7720    3.5527  H     
26   H        73.9680   40.8344    4.8749  H     
27   H        74.3409   37.9807   -2.9520  H     
28   H        74.8833   34.5129    1.3363  H     
29   H        76.5000   35.7623   -2.3581  H     
30   H        77.4891   31.1994   -0.2183  H     
31   H        78.0721   34.3191   -3.1490  H     
32   H        72.9700   41.1298   -0.3459  H     
33   H        75.5905   31.2764    0.8310  H     
@<TRIPOS>BOND
     1    1    2 1
     2    1    6 2
     3    1   21 1
     4    2    3 2
     5    3    4 1
     6    3    5 1
     7    4    7 2
     8    6    7 1
     9    6    8 1
    10    7   13 1
    11    8   10 1
    12    8   11 2
    13    9   10 2
    14    9   13 1
    15    9   14 1
    16   10   12 1
    17   14   15 1
    18   14   16 2
    19   15   22 2
    20   16   17 1
    21   17   18 2
    22   17   20 1
    23   18   19 1
    24   18   22 1
    25   22   23 1
    26    2   24 1
    27    4   25 1
    28    5   26 1
    29   12   27 1
    30   15   28 1
    31   16   29 1
    32   19   30 1
    33   20   31 1
    34   21   32 1
    35   23   33 1
@<TRIPOS>PROPERTY_DATA
  Total_Score	| 5.1977
  Crash		| -2.3511
  Polar		| 3.4507
  FragIndex	| 1
  FragRMSD	| 0.159

