@<TRIPOS>MOLECULE
BindingDB_26658
 32 34 0 0 0
SMALL
NO_CHARGES


@<TRIPOS>ATOM
1    C        74.7884   38.4474    2.7487  C     
2    C        74.0483   40.7188    2.3794  C     
3    C        74.0295   40.5213    0.9882  C     
4    C        74.7894   38.2468    1.3550  C     
5    C        74.3763   39.2479    0.4439  C     
6    C        74.3698   38.8664   -0.9092  C     
7    C        74.6772   37.5762   -1.3233  C     
8    C        75.1437   36.6829   -0.4168  C     
9    O        75.2601   37.0341    0.8985  O     
10   O        74.0609   39.6992   -1.7619  O     
11   C        75.5629   35.3665   -0.7095  C     
12   C        75.7229   33.0042   -0.0656  C     
13   C        75.2172   34.2987    0.1621  C     
14   C        76.4155   35.1028   -1.8113  C     
15   C        76.9529   33.8120   -2.0004  C     
16   C        76.6174   32.7483   -1.1344  C     
17   C        74.4021   39.6962    3.2620  C     
18   O        77.1003   31.4983   -1.3382  O     
19   O        74.3912   39.9289    4.5963  O     
20   O        73.6792   41.5921    0.2351  O     
21   O        74.4513   37.1562   -2.5608  O     
22   O        74.3993   34.4699    1.2134  O     
23   H        75.0860   37.6910    3.3620  H     
24   H        73.8058   41.6481    2.7594  H     
25   H        75.4653   32.2337    0.5377  H     
26   H        76.6905   35.8374   -2.4449  H     
27   H        77.6042   33.6493   -2.7798  H     
28   H        77.4746   31.2149   -0.4587  H     
29   H        75.0804   39.3518    4.9876  H     
30   H        72.9788   41.2616   -0.3854  H     
31   H        74.3715   37.9599   -3.1392  H     
32   H        74.7022   33.8262    1.9150  H     
@<TRIPOS>BOND
     1    1    4 1
     2    1   17 2
     3    2    3 2
     4    2   17 1
     5    3    5 1
     6    3   20 1
     7    4    5 2
     8    4    9 1
     9    5    6 1
    10    6    7 1
    11    6   10 2
    12    7    8 2
    13    7   21 1
    14    8    9 1
    15    8   11 1
    16   11   13 2
    17   11   14 1
    18   12   13 1
    19   12   16 2
    20   13   22 1
    21   14   15 2
    22   15   16 1
    23   16   18 1
    24   17   19 1
    25    1   23 1
    26    2   24 1
    27   12   25 1
    28   14   26 1
    29   15   27 1
    30   18   28 1
    31   19   29 1
    32   20   30 1
    33   21   31 1
    34   22   32 1
@<TRIPOS>PROPERTY_DATA
  Total_Score	| 4.9390
  Crash		| -1.5115
  Polar		| 1.9082
  FragIndex	| 1
  FragRMSD	| 0.158

