@<TRIPOS>MOLECULE
BindingDB_26656
 32 34 0 0 0
SMALL
NO_CHARGES


@<TRIPOS>ATOM
1    C        74.6580   38.5309    2.9743  C     
2    C        74.0959   40.8452    2.4942  C     
3    C        74.0857   40.5673    1.1110  C     
4    C        74.6479   38.2425    1.5973  C     
5    C        74.3605   39.2545    0.6443  C     
6    C        74.3936   38.8634   -0.7010  C     
7    C        74.7368   37.5914   -1.0597  C     
8    C        75.0489   36.6583   -0.1278  C     
9    O        74.9348   36.9554    1.1968  O     
10   O        74.2165   39.6788   -1.5961  O     
11   C        75.5244   35.3696   -0.4331  C     
12   C        76.7794   33.8094   -1.8751  C     
13   C        76.2177   35.0791   -1.6368  C     
14   C        75.4084   34.3200    0.5158  C     
15   C        75.9617   33.0463    0.2844  C     
16   C        76.6476   32.7852   -0.9194  C     
17   C        74.3809   39.8316    3.4277  C     
18   O        77.2187   31.5746   -1.1586  O     
19   O        77.5017   33.5838   -2.9999  O     
20   O        74.3929   40.0817    4.7610  O     
21   O        73.8219   41.5836    0.2491  O     
22   O        75.8656   32.1122    1.2645  O     
23   H        74.8721   37.7913    3.6483  H     
24   H        73.8963   41.7923    2.8235  H     
25   H        74.7546   37.3588   -2.0272  H     
26   H        76.3755   35.8091   -2.3347  H     
27   H        74.9192   34.4742    1.4017  H     
28   H        77.5826   31.2723   -0.2990  H     
29   H        78.0593   34.3845   -3.1230  H     
30   H        74.4132   41.0572    4.8584  H     
31   H        73.3886   42.2926    0.7779  H     
32   H        75.6631   31.2631    0.8229  H     
@<TRIPOS>BOND
     1    1    4 1
     2    1   17 2
     3    2    3 2
     4    2   17 1
     5    3    5 1
     6    3   21 1
     7    4    5 2
     8    4    9 1
     9    5    6 1
    10    6    7 1
    11    6   10 2
    12    7    8 2
    13    8    9 1
    14    8   11 1
    15   11   13 2
    16   11   14 1
    17   12   13 1
    18   12   16 2
    19   12   19 1
    20   14   15 2
    21   15   16 1
    22   15   22 1
    23   16   18 1
    24   17   20 1
    25    1   23 1
    26    2   24 1
    27    7   25 1
    28   13   26 1
    29   14   27 1
    30   18   28 1
    31   19   29 1
    32   20   30 1
    33   21   31 1
    34   22   32 1
@<TRIPOS>PROPERTY_DATA
  Total_Score	| 4.8579
  Crash		| -1.9184
  Polar		| 3.0016
  FragIndex	| 1
  FragRMSD	| 0.213

