@<TRIPOS>MOLECULE
BindingDB_7712
 43 45 0 0 0
SMALL
NO_CHARGES


@<TRIPOS>ATOM
1    C        -7.6108   50.0828   14.9235  C     
2    C        -6.9977   50.6654   16.0781  C     
3    C        -7.3826   52.0105   16.3765  C     
4    C        -8.3061   52.7279   15.5975  C     
5    C        -8.5357   50.7993   14.1347  C     
6    C        -9.2062   50.5218   12.9600  C     
7    C        -8.8716   52.1003   14.4863  C     
8    N        -9.7188   52.5703   13.5729  N     
9    C        -9.9040   51.6505   12.6555  C     
10   O       -10.5770   51.8716   11.6592  O     
11   N        -9.6889   49.1983   11.0678  N     
12   C        -9.6273   48.1289   10.2292  C     
13   C        -9.5417   46.0616    8.2709  C     
14   C        -8.9507   45.8709    9.5365  C     
15   C        -8.9943   46.8915   10.5057  C     
16   C       -10.2398   48.2961    8.9678  C     
17   C       -10.1982   47.2771    7.9998  C     
18   O       -10.8561   44.3317    6.6341  O     
19   S        -9.4044   44.8576    7.0185  S     
20   O        -8.8251   45.5358    5.7020  O     
21   N        -8.4768   43.5087    7.3943  N     
22   C        -9.1254   49.3691   12.2670  C     
23   N        -6.0800   49.9749   16.8597  N     
24   C        -5.4757   50.5807   18.0318  C     
25   C        -5.6517   48.6301   16.5203  C     
26   H        -7.3757   49.1396   14.6249  H     
27   H        -6.9794   52.5145   17.1656  H     
28   H        -8.5359   53.6950   15.8173  H     
29   H       -10.0742   53.4779   13.5455  H     
30   H       -10.1715   49.9604   10.7170  H     
31   H        -8.4712   44.9958    9.7577  H     
32   H        -8.5528   46.7188   11.4092  H     
33   H       -10.7082   49.1751    8.7324  H     
34   H       -10.6456   47.4354    7.0948  H     
35   H        -7.5737   43.6432    7.7223  H     
36   H        -8.8962   42.6361    7.4689  H     
37   H        -8.5762   48.6363   12.6434  H     
38   H        -4.8479   51.4231   17.7297  H     
39   H        -4.8572   49.9005   18.6185  H     
40   H        -6.2504   50.9414   18.7100  H     
41   H        -6.5100   47.9564   16.4871  H     
42   H        -4.9396   48.1943   17.2232  H     
43   H        -5.1612   48.6430   15.5428  H     
@<TRIPOS>BOND
     1    1    2 1
     2    1    5 2
     3    2    3 2
     4    2   23 1
     5    3    4 1
     6    4    7 2
     7    5    6 1
     8    5    7 1
     9    6    9 1
    10    6   22 2
    11    7    8 1
    12    8    9 1
    13    9   10 2
    14   11   12 1
    15   11   22 1
    16   12   15 2
    17   12   16 1
    18   13   14 2
    19   13   17 1
    20   13   19 1
    21   14   15 1
    22   16   17 2
    23   18   19 2
    24   19   20 2
    25   19   21 am
    26   23   24 1
    27   23   25 1
    28    1   26 1
    29    3   27 1
    30    4   28 1
    31    8   29 1
    32   11   30 1
    33   14   31 1
    34   15   32 1
    35   16   33 1
    36   17   34 1
    37   21   35 1
    38   21   36 1
    39   22   37 1
    40   24   38 1
    41   24   39 1
    42   24   40 1
    43   25   41 1
    44   25   42 1
    45   25   43 1
@<TRIPOS>PROPERTY_DATA
  Total_Score	| 7.5396
  Crash		| -2.3526
  Polar		| 3.6166
  FragIndex	| 1
  FragRMSD	| 0.930

