@<TRIPOS>MOLECULE
BindingDB_7763
 50 52 0 0 0
SMALL
NO_CHARGES


@<TRIPOS>ATOM
1    C        -8.3470   52.3371   15.9186  C     
2    C        -8.7399   50.5322   14.3318  C     
3    C        -9.3153   50.4116   13.0906  C     
4    C        -8.8767   51.8652   14.7114  C     
5    N        -9.5471   52.4921   13.7414  N     
6    C        -9.8107   51.6404   12.7761  C     
7    O       -10.4267   51.9759   11.7692  O     
8    N        -9.8619   49.2289   11.1156  N     
9    C        -9.7789   48.2340   10.1960  C     
10   C        -9.7435   46.3025    8.0943  C     
11   C        -9.0012   46.0877    9.2741  C     
12   C        -9.0215   47.0376   10.3116  C     
13   C       -10.5291   48.4306    9.0115  C     
14   C       -10.5137   47.4767    7.9739  C     
15   O       -10.7586   45.4173    5.6505  O     
16   S        -9.7336   45.1042    6.8296  S     
17   O        -8.2623   45.0824    6.2255  O     
18   C        -7.6955   51.4263   16.7734  C     
19   C        -9.3143   49.2961   12.3299  C     
20   N       -10.0647   43.6011    7.5122  N     
21   C        -7.5819   50.0696   16.4133  C     
22   C        -8.0938   49.6120   15.1823  C     
23   C        -9.4228   42.3836    7.1395  C     
24   C        -8.1569   42.0704    7.9964  C     
25   N        -6.8067   42.3611    7.3857  N     
26   C        -5.6941   42.0303    8.3310  C     
27   C        -6.5844   41.7043    6.0544  C     
28   H        -8.4287   53.3277   16.1635  H     
29   H        -9.8098   53.4269   13.7538  H     
30   H       -10.3811   49.9906   10.8418  H     
31   H        -8.4428   45.2374    9.3894  H     
32   H        -8.4718   46.8503   11.1514  H     
33   H       -11.1068   49.2679    8.8916  H     
34   H       -11.0777   47.6424    7.1371  H     
35   H        -7.3064   51.7537   17.6586  H     
36   H        -8.8887   48.4722   12.6983  H     
37   H       -10.7443   43.5554    8.2129  H     
38   H        -7.1192   49.4155   17.0411  H     
39   H        -7.9988   48.6267   14.9239  H     
40   H       -10.1555   41.5951    7.3332  H     
41   H        -9.2079   42.3757    6.0732  H     
42   H        -8.2496   42.6174    8.9448  H     
43   H        -8.1809   41.0071    8.2623  H     
44   H        -6.7127   43.3725    7.2562  H     
45   H        -5.7825   42.6210    9.2483  H     
46   H        -4.7247   42.2738    7.8881  H     
47   H        -5.6980   40.9695    8.5934  H     
48   H        -6.7362   40.6167    6.1322  H     
49   H        -5.5646   41.8991    5.6922  H     
50   H        -7.2815   42.1087    5.3122  H     
@<TRIPOS>BOND
     1    1    4 2
     2    1   18 1
     3    2    3 1
     4    2    4 1
     5    2   22 2
     6    3    6 1
     7    3   19 2
     8    4    5 1
     9    5    6 1
    10    6    7 2
    11    8    9 1
    12    8   19 1
    13    9   12 2
    14    9   13 1
    15   10   11 2
    16   10   14 1
    17   10   16 1
    18   11   12 1
    19   13   14 2
    20   15   16 2
    21   16   17 2
    22   16   20 1
    23   18   21 2
    24   20   23 1
    25   21   22 1
    26   23   24 1
    27   24   25 1
    28   25   26 1
    29   25   27 1
    30    1   28 1
    31    5   29 1
    32    8   30 1
    33   11   31 1
    34   12   32 1
    35   13   33 1
    36   14   34 1
    37   18   35 1
    38   19   36 1
    39   20   37 1
    40   21   38 1
    41   22   39 1
    42   23   40 1
    43   23   41 1
    44   24   42 1
    45   24   43 1
    46   25   44 1
    47   26   45 1
    48   26   46 1
    49   26   47 1
    50   27   48 1
    51   27   49 1
    52   27   50 1
@<TRIPOS>PROPERTY_DATA
  Total_Score	| 9.3930
  Crash		| -1.5802
  Polar		| 4.7424
  FragIndex	| 1
  FragRMSD	| 0.920

