@<TRIPOS>MOLECULE
BindingDB_7764
 41 44 0 0 0
SMALL
NO_CHARGES


@<TRIPOS>ATOM
1    C        -8.3908   52.3933   15.9086  C     
2    C        -8.7438   50.5578   14.3359  C     
3    C        -9.3129   50.4114   13.0885  C     
4    C        -8.8998   51.8958   14.6977  C     
5    N        -9.5702   52.5076   13.7158  N     
6    C        -9.8202   51.6322   12.7655  C     
7    O       -10.4466   51.9378   11.7596  O     
8    N        -9.7900   49.1874   11.1233  N     
9    C        -9.7171   48.1464   10.2499  C     
10   C        -9.6305   46.1207    8.2488  C     
11   C        -9.0177   45.9098    9.5013  C     
12   C        -9.0691   46.9072   10.4936  C     
13   C       -10.3368   48.3378    8.9951  C     
14   C       -10.3040   47.3359    8.0091  C     
15   O        -8.9212   45.6300    5.7634  O     
16   S        -9.5809   44.8985    7.0075  S     
17   O        -8.6342   43.6624    7.3264  O     
18   C        -7.7255   51.5059   16.7817  C     
19   C        -9.2912   49.2788   12.3589  C     
20   N       -11.1058   44.3878    6.4941  N     
21   C        -7.5773   50.1464   16.4367  C     
22   C        -8.0773   49.6667   15.2081  C     
23   C       -12.0790   43.9714    7.3314  C     
24   C       -14.1664   43.1968    7.8833  C     
25   C       -13.6608   43.2567    9.1845  C     
26   S       -12.0496   43.8302    9.0506  S     
27   N       -13.3021   43.5833    6.9060  N     
28   H        -8.4909   53.3790   16.1470  H     
29   H        -9.8570   53.4386   13.7179  H     
30   H       -10.2590   49.9707   10.7951  H     
31   H        -8.5370   45.0301    9.7012  H     
32   H        -8.6121   46.7189   11.3853  H     
33   H       -10.8223   49.2159    8.7858  H     
34   H       -10.7769   47.4999    7.1167  H     
35   H        -7.3487   51.8491   17.6667  H     
36   H        -8.8617   48.4793   12.7602  H     
37   H       -11.3009   44.4141    5.5426  H     
38   H        -7.0971   49.5084   17.0789  H     
39   H        -7.9620   48.6812   14.9658  H     
40   H       -15.1189   42.8874    7.6758  H     
41   H       -14.1473   43.0077   10.0472  H     
@<TRIPOS>BOND
     1    1    4 2
     2    1   18 1
     3    2    3 1
     4    2    4 1
     5    2   22 2
     6    3    6 1
     7    3   19 2
     8    4    5 1
     9    5    6 1
    10    6    7 2
    11    8    9 1
    12    8   19 1
    13    9   12 2
    14    9   13 1
    15   10   11 2
    16   10   14 1
    17   10   16 1
    18   11   12 1
    19   13   14 2
    20   15   16 2
    21   16   17 2
    22   16   20 1
    23   18   21 2
    24   20   23 1
    25   21   22 1
    26   23   26 1
    27   23   27 2
    28   24   25 2
    29   24   27 1
    30   25   26 1
    31    1   28 1
    32    5   29 1
    33    8   30 1
    34   11   31 1
    35   12   32 1
    36   13   33 1
    37   14   34 1
    38   18   35 1
    39   19   36 1
    40   20   37 1
    41   21   38 1
    42   22   39 1
    43   24   40 1
    44   25   41 1
@<TRIPOS>PROPERTY_DATA
  Total_Score	| 7.4407
  Crash		| -0.9470
  Polar		| 2.7085
  FragIndex	| 1
  FragRMSD	| 0.359

