@<TRIPOS>MOLECULE
BindingDB_5718
 40 42 0 0 0
SMALL
NO_CHARGES


@<TRIPOS>ATOM
1    C        11.2547  -10.8042   12.0823  C     
2    C        12.8998   -9.3189   11.1190  C     
3    N        11.7466  -10.0477   11.0520  N     
4    N        13.6024   -9.3327   12.2768  N     
5    C        13.1792  -10.0492   13.3410  C     
6    C        12.0023  -10.7854   13.2762  C     
7    C        12.8296  -10.9672   15.2597  C     
8    N        11.8027  -11.3503   14.4770  N     
9    N        13.6783  -10.1745   14.5776  N     
10   C        14.8651   -9.5589   15.0762  C     
11   N        10.0838  -11.4920   12.0163  N     
12   C         9.2169  -11.5661   10.8811  C     
13   C         8.8392  -12.9797   10.6076  C     
14   C         8.1427  -15.6882   10.1031  C     
15   C         9.4534  -15.2371    9.8585  C     
16   C         9.7958  -13.8937   10.1143  C     
17   C         7.5227  -13.4454   10.8293  C     
18   C         7.1767  -14.7894   10.5860  C     
19   N        13.3468   -8.5197   10.1295  N     
20   C        12.7024   -8.2786    8.8842  C     
21   C        12.1769   -6.8280    8.7929  C     
22   O        11.0640   -6.6339    9.6778  O     
23   H        12.9276  -11.2328   16.2440  H     
24   H        15.7320   -9.8915   14.4949  H     
25   H        15.0375   -9.8131   16.1276  H     
26   H        14.7735   -8.4714   14.9976  H     
27   H         9.7727  -11.9086   12.8368  H     
28   H         8.3336  -10.9678   11.1141  H     
29   H         9.6611  -11.1312    9.9820  H     
30   H         7.8938  -16.6610    9.9266  H     
31   H        10.1505  -15.8837    9.4919  H     
32   H        10.7511  -13.5867    9.9240  H     
33   H         6.7991  -12.8083   11.1737  H     
34   H         6.2197  -15.1119   10.7603  H     
35   H        14.1651   -8.0301   10.3009  H     
36   H        13.4327   -8.4308    8.0953  H     
37   H        11.8641   -8.9563    8.7005  H     
38   H        12.9715   -6.1088    9.0297  H     
39   H        11.8406   -6.6309    7.7672  H     
40   H        10.8682   -5.6684    9.6667  H     
@<TRIPOS>BOND
     1    1    3 1
     2    1    6 2
     3    1   11 1
     4    2    3 2
     5    2    4 1
     6    2   19 1
     7    4    5 2
     8    5    6 1
     9    5    9 1
    10    6    8 1
    11    7    8 2
    12    7    9 1
    13    9   10 1
    14   11   12 1
    15   12   13 1
    16   13   16 1
    17   13   17 2
    18   14   15 1
    19   14   18 2
    20   15   16 2
    21   17   18 1
    22   19   20 1
    23   20   21 1
    24   21   22 1
    25    7   23 1
    26   10   24 1
    27   10   25 1
    28   10   26 1
    29   11   27 1
    30   12   28 1
    31   12   29 1
    32   14   30 1
    33   15   31 1
    34   16   32 1
    35   17   33 1
    36   18   34 1
    37   19   35 1
    38   20   36 1
    39   20   37 1
    40   21   38 1
    41   21   39 1
    42   22   40 1
@<TRIPOS>PROPERTY_DATA
  Total_Score	| 5.1557
  Crash		| -1.0915
  Polar		| 3.0483
  FragIndex	| 1
  FragRMSD	| 0.630

