@<TRIPOS>MOLECULE
BindingDB_50280806
 25 26 0 0 0
SMALL
NO_CHARGES


@<TRIPOS>ATOM
1    C         6.5102   36.4558  -16.0903  C     
2    C         6.2583   36.1829  -17.4707  C     
3    N         5.3737   36.9732  -18.1274  N     
4    C         5.7878   37.5297  -15.4827  C     
5    C         4.8828   38.3266  -16.2133  C     
6    C         4.6811   38.0000  -17.5812  C     
7    C         6.8453   35.1549  -18.2723  C     
8    C         7.5726   35.6753  -15.3743  C     
9    C         7.7404   35.8511  -13.9256  C     
10   O         5.9614   37.8073  -14.1579  O     
11   O         6.7265   35.1711  -19.6206  O     
12   O         8.8053   36.5276  -13.4236  O     
13   O         7.3692   34.0132  -17.7759  O     
14   O         6.8725   35.2707  -13.0621  O     
15   C         4.1638   39.4127  -15.6735  C     
16   C         3.7789   38.7389  -18.3761  C     
17   C         3.2704   40.1536  -16.4644  C     
18   C         3.0806   39.8190  -17.8202  C     
19   H         7.3829   34.6018  -15.5005  H     
20   H         8.5252   35.9127  -15.8632  H     
21   H         6.5718   38.5821  -14.1415  H     
22   H         4.2939   39.6879  -14.6986  H     
23   H         3.6476   38.5047  -19.3545  H     
24   H         2.7473   40.9286  -16.0549  H     
25   H         2.4459   40.3677  -18.3965  H     
@<TRIPOS>BOND
     1    1    2 1
     2    1    4 2
     3    1    8 1
     4    2    3 2
     5    2    7 1
     6    3    6 1
     7    4    5 1
     8    4   10 1
     9    5    6 2
    10    5   15 1
    11    6   16 1
    12    7   11 2
    13    7   13 1
    14    8    9 1
    15    9   12 2
    16    9   14 1
    17   15   17 2
    18   16   18 2
    19   17   18 1
    20    8   19 1
    21    8   20 1
    22   10   21 1
    23   15   22 1
    24   16   23 1
    25   17   24 1
    26   18   25 1
@<TRIPOS>PROPERTY_DATA
  Total_Score	| 9.5771
  Crash		| -0.6621
  Polar		| 7.5296
  FragIndex	| 1
  FragRMSD	| 0.281

