@<TRIPOS>MOLECULE
BindingDB_50005034
 20 21 0 0 0
SMALL
NO_CHARGES


@<TRIPOS>ATOM
1    C         5.1241   38.2782  -16.2137  C     
2    C         6.3323   36.0856  -17.5471  C     
3    C         6.0892   37.4689  -15.5558  C     
4    N         5.3969   36.8618  -18.1438  N     
5    C         4.7780   37.9078  -17.5452  C     
6    C         6.6870   36.3767  -16.2151  C     
7    C         4.4725   39.4122  -15.6535  C     
8    C         6.8917   35.0425  -18.3054  C     
9    C         3.8066   38.6193  -18.2784  C     
10   C         3.5194   40.1288  -16.3998  C     
11   C         3.1810   39.7396  -17.7051  C     
12   O         6.4887   37.6977  -14.2815  O     
13   O         6.6049   34.9216  -19.6277  O     
14   I         4.8348   40.1785  -13.7775  I     
15   O         7.6890   34.0985  -17.7478  O     
16   Cl        2.0400   40.6346  -18.5739  Cl    
17   H         7.3814   35.8056  -15.7255  H     
18   H         3.5539   38.3080  -19.2195  H     
19   H         3.0633   40.9444  -15.9840  H     
20   H         5.9567   37.0775  -13.7387  H     
@<TRIPOS>BOND
     1    1    3 1
     2    1    5 2
     3    1    7 1
     4    2    4 2
     5    2    6 1
     6    2    8 1
     7    3    6 2
     8    3   12 1
     9    4    5 1
    10    5    9 1
    11    7   10 2
    12    7   14 1
    13    8   13 2
    14    8   15 1
    15    9   11 2
    16   10   11 1
    17   11   16 1
    18    6   17 1
    19    9   18 1
    20   10   19 1
    21   12   20 1
@<TRIPOS>PROPERTY_DATA
  Total_Score	| 8.1201
  Crash		| -1.0220
  Polar		| 6.1351
  FragIndex	| 1
  FragRMSD	| 0.210

