@<TRIPOS>MOLECULE
BindingDB_50283029
 25 26 0 0 0
SMALL
NO_CHARGES


@<TRIPOS>ATOM
1    N         5.4802   36.9637  -18.1128  N     
2    P         7.4071   38.2924  -13.4651  P     
3    C         4.8204   37.9490  -17.4575  C     
4    C         5.9304   37.2571  -15.3878  C     
5    C         6.3412   36.1058  -17.5199  C     
6    C         5.0417   38.1481  -16.0619  C     
7    C         6.9382   35.1029  -18.3033  C     
8    C         6.5787   36.2423  -16.1382  C     
9    C         6.1591   37.2877  -13.9135  C     
10   C         3.9123   38.7468  -18.1750  C     
11   C         4.3484   39.2234  -15.4405  C     
12   O         8.6916   37.6943  -13.7472  O     
13   O         7.5971   34.0596  -17.7464  O     
14   O         7.3241   39.6879  -14.1315  O     
15   O         7.3579   38.4692  -11.9327  O     
16   C         3.2198   39.7904  -17.5328  C     
17   O         6.7920   35.0926  -19.6512  O     
18   C         3.4517   40.0335  -16.1633  C     
19   Cl        2.1068   40.7355  -18.3867  Cl    
20   H         7.2216   35.5989  -15.6767  H     
21   H         6.4008   36.2865  -13.5419  H     
22   H         5.2523   37.5857  -13.3937  H     
23   H         3.7464   38.5628  -19.1723  H     
24   H         4.4825   39.4412  -14.4542  H     
25   H         2.9694   40.8020  -15.6919  H     
@<TRIPOS>BOND
     1    1    3 1
     2    1    5 2
     3    2    9 1
     4    2   12 2
     5    2   14 1
     6    2   15 1
     7    3    6 2
     8    3   10 1
     9    4    6 1
    10    4    8 2
    11    4    9 1
    12    5    7 1
    13    5    8 1
    14    6   11 1
    15    7   13 2
    16    7   17 1
    17   10   16 2
    18   11   18 2
    19   16   18 1
    20   16   19 1
    21    8   20 1
    22    9   21 1
    23    9   22 1
    24   10   23 1
    25   11   24 1
    26   18   25 1
@<TRIPOS>PROPERTY_DATA
  Total_Score	| 10.7295
  Crash		| -0.5975
  Polar		| 7.6473
  FragIndex	| 1
  FragRMSD	| 0.905

