@<TRIPOS>MOLECULE
BindingDB_50283030
 28 29 0 0 0
SMALL
NO_CHARGES


@<TRIPOS>ATOM
1    N         5.3967   36.9038  -18.0509  N     
2    P         8.4122   39.3250  -14.3438  P     
3    C         4.7702   37.9131  -17.4026  C     
4    C         6.3094   36.0869  -17.4804  C     
5    C         6.0306   37.3464  -15.3838  C     
6    C         5.0834   38.1939  -16.0403  C     
7    C         6.8893   35.0726  -18.2673  C     
8    C         6.6276   36.2927  -16.1237  C     
9    C         3.8162   38.6659  -18.1141  C     
10   C         4.4307   39.3077  -15.4481  C     
11   O         8.4220   39.2841  -15.7854  O     
12   O         6.7064   35.0496  -19.6080  O     
13   C         6.4447   37.4715  -13.9472  C     
14   C         7.9349   37.8569  -13.7230  C     
15   O         7.5025   40.4837  -13.8929  O     
16   O         9.8582   39.6052  -13.8896  O     
17   C         3.1737   39.7502  -17.4930  C     
18   O         7.5920   34.0605  -17.7112  O     
19   C         3.4943   40.0771  -16.1643  C     
20   Cl        2.0245   40.6603  -18.3382  Cl    
21   H         7.3031   35.6701  -15.6719  H     
22   H         3.5842   38.4114  -19.0784  H     
23   H         4.6230   39.5947  -14.4908  H     
24   H         5.8259   38.1691  -13.3892  H     
25   H         6.2764   36.5017  -13.4679  H     
26   H         8.5782   37.0871  -14.1523  H     
27   H         8.1266   37.8736  -12.6489  H     
28   H         3.0413   40.8734  -15.7084  H     
@<TRIPOS>BOND
     1    1    3 1
     2    1    4 2
     3    2   11 2
     4    2   14 1
     5    2   15 1
     6    2   16 1
     7    3    6 2
     8    3    9 1
     9    4    7 1
    10    4    8 1
    11    5    6 1
    12    5    8 2
    13    5   13 1
    14    6   10 1
    15    7   12 2
    16    7   18 1
    17    9   17 2
    18   10   19 2
    19   13   14 1
    20   17   19 1
    21   17   20 1
    22    8   21 1
    23    9   22 1
    24   10   23 1
    25   13   24 1
    26   13   25 1
    27   14   26 1
    28   14   27 1
    29   19   28 1
@<TRIPOS>PROPERTY_DATA
  Total_Score	| 11.3149
  Crash		| -0.6849
  Polar		| 7.7182
  FragIndex	| 1
  FragRMSD	| 0.176

