@<TRIPOS>MOLECULE
BindingDB_50280277
 22 23 0 0 0
SMALL
NO_CHARGES


@<TRIPOS>ATOM
1    C         6.1528   36.8120  -16.5117  C     
2    C         6.0209   36.1971  -17.7105  C     
3    N         5.0644   36.7984  -18.4038  N     
4    C         4.5442   37.7987  -17.6990  C     
5    C         5.2035   37.8241  -16.4768  C     
6    C         7.1132   36.6496  -15.5551  C     
7    C         6.7163   35.1585  -18.3157  C     
8    C         3.5350   38.7110  -18.0398  C     
9    C         4.8280   38.7960  -15.5199  C     
10   O         7.5017   37.6020  -14.8923  O     
11   O         7.2231   34.1076  -17.6401  O     
12   C         3.1749   39.6931  -17.0942  C     
13   N         7.6652   35.4974  -15.2543  N     
14   O         6.6525   34.9972  -19.6567  O     
15   C         3.8171   39.7318  -15.8357  C     
16   Cl        1.9732   40.8181  -17.4828  Cl    
17   H         4.7481   36.5409  -19.2833  H     
18   H         3.0925   38.6608  -18.9577  H     
19   H         5.2797   38.8325  -14.6040  H     
20   H         8.3299   35.4467  -14.5471  H     
21   H         7.4159   34.6950  -15.7307  H     
22   H         3.5569   40.4393  -15.1453  H     
@<TRIPOS>BOND
     1    1    2 2
     2    1    5 1
     3    1    6 1
     4    2    3 1
     5    2    7 1
     6    3    4 1
     7    4    5 1
     8    4    8 2
     9    5    9 2
    10    6   10 2
    11    6   13 am
    12    7   11 2
    13    7   14 1
    14    8   12 1
    15    9   15 1
    16   12   15 2
    17   12   16 1
    18    3   17 1
    19    8   18 1
    20    9   19 1
    21   13   20 1
    22   13   21 1
    23   15   22 1
@<TRIPOS>PROPERTY_DATA
  Total_Score	| 9.7871
  Crash		| -0.4447
  Polar		| 6.7786
  FragIndex	| 1
  FragRMSD	| 1.077

