@<TRIPOS>MOLECULE
BindingDB_50280805
 28 29 0 0 0
SMALL
NO_CHARGES


@<TRIPOS>ATOM
1    C         6.6292   36.2958  -16.0634  C     
2    C         6.2739   36.0640  -17.4322  C     
3    C         6.0262   37.4196  -15.4143  C     
4    C         5.0913   38.2710  -16.0705  C     
5    N         5.3390   36.8649  -17.9958  N     
6    C         4.7271   37.9055  -17.3927  C     
7    C         4.4888   39.4450  -15.5208  C     
8    C         6.7668   35.0561  -18.3150  C     
9    C         7.5786   35.3458  -15.3795  C     
10   C         3.7456   38.6110  -18.1131  C     
11   C         3.5192   40.1585  -16.2580  C     
12   O         6.3166   37.6779  -14.1196  O     
13   C         3.1319   39.7356  -17.5403  C     
14   C         8.7187   35.7783  -13.1125  C     
15   O         6.6599   35.1878  -19.6595  O     
16   O         9.6425   35.0314  -12.4649  O     
17   Cl        4.8878   40.1326  -14.0179  Cl    
18   C         7.6268   35.1105  -13.8415  C     
19   O         7.3431   33.9035  -17.9123  O     
20   Cl        1.9558   40.6007  -18.3953  Cl    
21   O         8.7673   37.1213  -12.9685  O     
22   H         7.3438   34.3558  -15.7691  H     
23   H         8.5894   35.5869  -15.7121  H     
24   H         3.4725   38.2919  -19.0466  H     
25   H         3.0880   40.9991  -15.8621  H     
26   H         5.4970   37.4614  -13.6252  H     
27   H         6.6666   35.3770  -13.3941  H     
28   H         7.7720   34.0381  -13.6718  H     
@<TRIPOS>BOND
     1    1    2 1
     2    1    3 2
     3    1    9 1
     4    2    5 2
     5    2    8 1
     6    3    4 1
     7    3   12 1
     8    4    6 2
     9    4    7 1
    10    5    6 1
    11    6   10 1
    12    7   11 2
    13    7   17 1
    14    8   15 2
    15    8   19 1
    16    9   18 1
    17   10   13 2
    18   11   13 1
    19   13   20 1
    20   14   16 2
    21   14   18 1
    22   14   21 1
    23    9   22 1
    24    9   23 1
    25   10   24 1
    26   11   25 1
    27   12   26 1
    28   18   27 1
    29   18   28 1
@<TRIPOS>PROPERTY_DATA
  Total_Score	| 10.0195
  Crash		| -1.1599
  Polar		| 7.3855
  FragIndex	| 1
  FragRMSD	| 0.150

