@<TRIPOS>MOLECULE
BindingDB_50052625
 20 21 0 0 0
SMALL
NO_CHARGES


@<TRIPOS>ATOM
1    C         6.7510   36.5464  -15.7546  C     
2    C         6.1278   37.6906  -15.1958  C     
3    C         5.1035   38.3943  -15.8941  C     
4    C         6.3039   36.0925  -17.0163  C     
5    C         4.7211   37.8700  -17.1700  C     
6    N         5.3243   36.7603  -17.6748  N     
7    C         4.4302   39.5636  -15.4494  C     
8    C         3.7309   38.5041  -17.9199  C     
9    C         3.4679   40.1230  -16.2214  C     
10   N         7.7836   35.8904  -15.1579  N     
11   O         6.5514   38.1043  -13.9760  O     
12   C         3.1427   39.6207  -17.4509  C     
13   O         6.8298   34.9992  -17.5989  O     
14   Cl        4.7338   40.3159  -13.9892  Cl    
15   Cl        1.9936   40.4248  -18.3451  Cl    
16   O         8.5513   36.3092  -14.3194  O     
17   H         3.4827   38.1428  -18.8108  H     
18   H         2.9917   40.9357  -15.8921  H     
19   H         5.8173   37.8918  -13.3652  H     
20   H         6.1523   34.6988  -18.2340  H     
@<TRIPOS>BOND
     1    1    2 1
     2    1    4 2
     3    1   10 1
     4    2    3 2
     5    2   11 1
     6    3    5 1
     7    3    7 1
     8    4    6 1
     9    4   13 1
    10    5    6 2
    11    5    8 1
    12    7    9 2
    13    7   14 1
    14    8   12 2
    15    9   12 1
    16   10   16 2
    17   12   15 1
    18    8   17 1
    19    9   18 1
    20   11   19 1
    21   13   20 1
@<TRIPOS>PROPERTY_DATA
  Total_Score	| 3.8359
  Crash		| -0.3640
  Polar		| 1.1560
  FragIndex	| 1
  FragRMSD	| 0.363

