@<TRIPOS>MOLECULE
BindingDB_50001266
 20 21 0 0 0
SMALL
NO_CHARGES


@<TRIPOS>ATOM
1    C         5.1162   38.2238  -16.0615  C     
2    C         6.3085   36.0657  -17.4770  C     
3    C         6.1020   37.4037  -15.4465  C     
4    N         5.3536   36.8486  -18.0292  N     
5    C         4.7469   37.8797  -17.3951  C     
6    C         6.6957   36.3382  -16.1526  C     
7    C         4.4843   39.3586  -15.4738  C     
8    C         6.8459   35.0281  -18.2548  C     
9    C         3.7609   38.5941  -18.0997  C     
10   C         3.5067   40.0804  -16.1944  C     
11   C         3.1456   39.7035  -17.4977  C     
12   O         6.5180   37.5670  -14.1667  O     
13   O         6.5869   34.9552  -19.5844  O     
14   Cl        4.8656   39.9705  -13.9339  Cl    
15   O         7.5941   34.0424  -17.7052  O     
16   Cl        1.9841   40.5863  -18.3517  Cl    
17   H         7.4163   35.7637  -15.6952  H     
18   H         3.5030   38.3014  -19.0473  H     
19   H         3.0590   40.9018  -15.7729  H     
20   H         5.6976   37.6109  -13.6317  H     
@<TRIPOS>BOND
     1    1    3 1
     2    1    5 2
     3    1    7 1
     4    2    4 2
     5    2    6 1
     6    2    8 1
     7    3    6 2
     8    3   12 1
     9    4    5 1
    10    5    9 1
    11    7   10 2
    12    7   14 1
    13    8   13 2
    14    8   15 1
    15    9   11 2
    16   10   11 1
    17   11   16 1
    18    6   17 1
    19    9   18 1
    20   10   19 1
    21   12   20 1
@<TRIPOS>PROPERTY_DATA
  Total_Score	| 8.8499
  Crash		| -0.2058
  Polar		| 6.2632
  FragIndex	| 1
  FragRMSD	| 0.143

