@<TRIPOS>MOLECULE
BindingDB_50004950
 23 24 0 0 0
SMALL
NO_CHARGES


@<TRIPOS>ATOM
1    N         5.5406   36.9544  -18.1707  N     
2    C         6.4082   36.1838  -17.5299  C     
3    C         6.6273   36.4063  -16.1803  C     
4    C         5.9850   37.3928  -15.5048  C     
5    C         4.8298   37.9442  -17.5779  C     
6    C         5.0515   38.1925  -16.1982  C     
7    C         6.9834   35.1603  -18.2705  C     
8    O         6.7487   35.0557  -19.6028  O     
9    O         7.6930   34.1612  -17.6969  O     
10   O         6.0884   37.4159  -14.1487  O     
11   C         4.3091   39.2240  -15.5947  C     
12   C         3.8857   38.6933  -18.3067  C     
13   C         6.7637   38.5008  -13.4541  C     
14   C         3.3665   39.9798  -16.3107  C     
15   C         3.1523   39.7096  -17.6730  C     
16   H         7.2329   35.7995  -15.6776  H     
17   H         4.4665   39.4268  -14.6220  H     
18   H         3.7217   38.4962  -19.2941  H     
19   H         7.3053   39.1754  -14.1289  H     
20   H         7.4816   38.0567  -12.7738  H     
21   H         6.0510   39.0991  -12.8432  H     
22   H         2.8374   40.7209  -15.8402  H     
23   H         2.4649   40.2493  -18.2048  H     
@<TRIPOS>BOND
     1    1    2 2
     2    1    5 1
     3    2    3 1
     4    2    7 1
     5    3    4 2
     6    4    6 1
     7    4   10 1
     8    5    6 1
     9    5   12 2
    10    6   11 2
    11    7    8 2
    12    7    9 1
    13   10   13 1
    14   11   14 1
    15   12   15 1
    16   14   15 2
    17    3   16 1
    18   11   17 1
    19   12   18 1
    20   13   19 1
    21   13   20 1
    22   13   21 1
    23   14   22 1
    24   15   23 1
@<TRIPOS>PROPERTY_DATA
  Total_Score	| 8.4304
  Crash		| -0.1641
  Polar		| 5.9811
  FragIndex	| 1
  FragRMSD	| 0.250

