@<TRIPOS>MOLECULE
BindingDB_50280807
 25 26 0 0 0
SMALL
NO_CHARGES


@<TRIPOS>ATOM
1    C         6.6165   36.3935  -16.0654  C     
2    C         6.2495   36.1289  -17.4185  C     
3    C         6.0425   37.5344  -15.4310  C     
4    C         5.0549   38.3413  -16.0757  C     
5    N         5.3054   36.9136  -17.9864  N     
6    C         4.6796   37.9496  -17.3922  C     
7    C         4.4211   39.4937  -15.5222  C     
8    C         6.7777   35.1303  -18.2791  C     
9    C         7.6325   35.5227  -15.3797  C     
10   C         3.6919   38.6423  -18.1085  C     
11   C         3.4572   40.2018  -16.2647  C     
12   C         7.8251   35.6557  -13.9287  C     
13   O         6.4758   37.8485  -14.1962  O     
14   C         3.0802   39.7779  -17.5482  C     
15   O         7.3267   33.9692  -17.8543  O     
16   O         8.8402   36.4184  -13.4429  O     
17   Cl        4.7412   40.1472  -13.9833  Cl    
18   O         6.6438   35.2016  -19.6255  O     
19   Cl        1.9164   40.6358  -18.4148  Cl    
20   O         6.9630   35.0848  -13.0639  O     
21   H         7.3677   34.4693  -15.5255  H     
22   H         8.5929   35.6941  -15.8788  H     
23   H         3.4152   38.3148  -19.0444  H     
24   H         3.0105   41.0348  -15.8660  H     
25   H         7.1116   38.5870  -14.3386  H     
@<TRIPOS>BOND
     1    1    2 1
     2    1    3 2
     3    1    9 1
     4    2    5 2
     5    2    8 1
     6    3    4 1
     7    3   13 1
     8    4    6 2
     9    4    7 1
    10    5    6 1
    11    6   10 1
    12    7   11 2
    13    7   17 1
    14    8   15 2
    15    8   18 1
    16    9   12 1
    17   10   14 2
    18   11   14 1
    19   12   16 2
    20   12   20 1
    21   14   19 1
    22    9   21 1
    23    9   22 1
    24   10   23 1
    25   11   24 1
    26   13   25 1
@<TRIPOS>PROPERTY_DATA
  Total_Score	| 10.4481
  Crash		| -0.8733
  Polar		| 7.9188
  FragIndex	| 1
  FragRMSD	| 0.850

