@<TRIPOS>MOLECULE
BindingDB_50004960
 18 19 0 0 0
SMALL
NO_CHARGES


@<TRIPOS>ATOM
1    C         5.9372   36.2359  -17.7713  C     
2    C         5.1320   37.8361  -16.4913  C     
3    N         5.0462   36.9106  -18.4908  N     
4    C         5.9910   36.7709  -16.5405  C     
5    C         4.5459   37.9043  -17.7555  C     
6    C         4.7831   38.7887  -15.5055  C     
7    C         6.6455   35.1724  -18.2888  C     
8    C         3.5858   38.8702  -18.0914  C     
9    C         3.8170   39.7736  -15.8248  C     
10   C         3.2145   39.8069  -17.1067  C     
11   O         6.5787   34.9190  -19.6173  O     
12   Cl        5.4801   38.7805  -13.9616  Cl    
13   O         7.3498   34.3165  -17.5096  O     
14   Cl        2.0386   40.9757  -17.4650  Cl    
15   H         4.7488   36.6831  -19.3825  H     
16   H         6.5544   36.4491  -15.7856  H     
17   H         3.1728   38.8856  -19.0309  H     
18   H         3.5626   40.4752  -15.1247  H     
@<TRIPOS>BOND
     1    1    3 1
     2    1    4 2
     3    1    7 1
     4    2    4 1
     5    2    5 1
     6    2    6 2
     7    3    5 1
     8    5    8 2
     9    6    9 1
    10    6   12 1
    11    7   11 2
    12    7   13 1
    13    8   10 1
    14    9   10 2
    15   10   14 1
    16    3   15 1
    17    4   16 1
    18    8   17 1
    19    9   18 1
@<TRIPOS>PROPERTY_DATA
  Total_Score	| 8.8836
  Crash		| -0.3036
  Polar		| 5.8722
  FragIndex	| 1
  FragRMSD	| 0.582

