@<TRIPOS>MOLECULE
BindingDB_50280272
 22 23 0 0 0
SMALL
NO_CHARGES


@<TRIPOS>ATOM
1    C         6.0406   36.2382  -17.7408  C     
2    C         6.1509   36.8257  -16.5291  C     
3    N         5.0938   36.8543  -18.4326  N     
4    C         4.5697   37.8435  -17.7151  C     
5    C         5.2208   37.8473  -16.4884  C     
6    C         6.7247   35.1893  -18.3308  C     
7    C         3.5643   38.7653  -18.0399  C     
8    C         4.8690   38.8155  -15.5223  C     
9    O         7.2205   34.1471  -17.6396  O     
10   C         3.2129   39.7383  -17.0826  C     
11   C         7.0894   36.6036  -15.4331  C     
12   O         6.6816   35.0245  -19.6697  O     
13   C         3.8660   39.7635  -15.8283  C     
14   Cl        2.0119   40.8721  -17.4507  Cl    
15   O         8.0956   35.6226  -15.6512  O     
16   H         4.7759   36.6035  -19.3106  H     
17   H         3.1147   38.7301  -18.9549  H     
18   H         5.3378   38.8394  -14.6132  H     
19   H         7.6148   37.5403  -15.2300  H     
20   H         6.5333   36.3210  -14.5367  H     
21   H         3.6185   40.4739  -15.1357  H     
22   H         7.6289   34.7613  -15.5961  H     
@<TRIPOS>BOND
     1    1    2 2
     2    1    3 1
     3    1    6 1
     4    2    5 1
     5    2   11 1
     6    3    4 1
     7    4    5 1
     8    4    7 2
     9    5    8 2
    10    6    9 2
    11    6   12 1
    12    7   10 1
    13    8   13 1
    14   10   13 2
    15   10   14 1
    16   11   15 1
    17    3   16 1
    18    7   17 1
    19    8   18 1
    20   11   19 1
    21   11   20 1
    22   13   21 1
    23   15   22 1
@<TRIPOS>PROPERTY_DATA
  Total_Score	| 9.7049
  Crash		| -0.3919
  Polar		| 6.7275
  FragIndex	| 1
  FragRMSD	| 1.034

