@<TRIPOS>MOLECULE
BindingDB_50220857
 57 61 0 0 0
SMALL
NO_CHARGES


@<TRIPOS>ATOM
1    C         6.9765  -10.2782   32.5795  C     
2    C         8.3054   -9.8675   32.3487  C     
3    C         8.6535   -8.5156   32.4940  C     
4    C         5.9986   -9.3440   32.9713  C     
5    C         6.3405   -7.9818   33.1387  C     
6    C         7.6797   -7.5739   32.8935  C     
7    N         8.0077   -6.2520   33.0088  N     
8    C         7.0909   -5.3047   33.3536  C     
9    N         5.8064   -5.7118   33.5623  N     
10   C         5.4325   -6.9825   33.4918  C     
11   O         4.2539   -7.2332   33.7002  O     
12   C         7.4103   -3.8516   33.2774  C     
13   C         8.9260   -3.4905   33.2377  C     
14   C         9.1217   -2.0090   32.8347  C     
15   C         8.3590   -1.0003   33.7512  C     
16   C         6.8992   -1.4702   34.0668  C     
17   C         6.7563   -2.9819   34.3892  C     
18   N         8.4774    0.4227   33.2477  N     
19   C         7.5594    1.3863   33.9191  C     
20   C         7.8369    2.8389   33.4536  C     
21   C         7.9288    3.0270   31.9887  C     
22   C         8.2140    1.9269   31.2447  C     
23   C         8.4384    0.5897   31.7542  C     
24   C         7.8235    4.3210   31.3856  C     
25   C         7.3849    5.4734   32.1126  C     
26   C         7.2401    6.7292   31.4964  C     
27   C         7.5145    6.8929   30.1336  C     
28   C         7.9833    5.7995   29.3878  C     
29   C         8.1461    4.5478   30.0070  C     
30   H         6.7275  -11.2603   32.4652  H     
31   H         9.0149  -10.5542   32.0636  H     
32   H         9.6109   -8.2190   32.2991  H     
33   H         5.0435   -9.6721   33.1382  H     
34   H         5.1231   -5.0492   33.7511  H     
35   H         6.9700   -3.5486   32.3207  H     
36   H         9.3753   -3.6605   34.2166  H     
37   H         9.4481   -4.1167   32.5105  H     
38   H        10.1872   -1.7687   32.8575  H     
39   H         8.7933   -1.9224   31.7952  H     
40   H         8.8913   -1.0198   34.7049  H     
41   H         6.5115   -0.9216   34.9268  H     
42   H         6.2521   -1.2446   33.2184  H     
43   H         5.6931   -3.2086   34.4820  H     
44   H         7.2182   -3.2005   35.3533  H     
45   H         9.4125    0.7353   33.5212  H     
46   H         6.5083    1.1545   33.6883  H     
47   H         7.6937    1.3412   35.0081  H     
48   H         7.0308    3.4200   33.8887  H     
49   H         8.7690    3.1957   33.8995  H     
50   H         8.2211    1.9877   30.2526  H     
51   H         9.4193    0.2968   31.3664  H     
52   H         7.6784   -0.0475   31.2958  H     
53   H         7.1519    5.4328   33.0998  H     
54   H         6.9350    7.5346   32.0428  H     
55   H         7.3833    7.8102   29.6863  H     
56   H         8.2105    5.9188   28.3936  H     
57   H         8.5315    3.8148   29.4060  H     
@<TRIPOS>BOND
     1    1    2 2
     2    1    4 1
     3    2    3 1
     4    3    6 2
     5    4    5 2
     6    5    6 1
     7    5   10 1
     8    6    7 1
     9    7    8 2
    10    8    9 1
    11   12    8 1
    12    9   10 1
    13   10   11 2
    14   12   13 1
    15   12   17 1
    16   13   14 1
    17   14   15 1
    18   15   16 1
    19   15   18 1
    20   16   17 1
    21   18   19 1
    22   18   23 1
    23   19   20 1
    24   20   21 1
    25   21   22 2
    26   21   24 1
    27   22   23 1
    28   24   25 2
    29   24   29 1
    30   25   26 1
    31   26   27 2
    32   27   28 1
    33   28   29 2
    34    1   30 1
    35    2   31 1
    36    3   32 1
    37    4   33 1
    38    9   34 1
    39   12   35 1
    40   13   36 1
    41   13   37 1
    42   14   38 1
    43   14   39 1
    44   15   40 1
    45   16   41 1
    46   16   42 1
    47   17   43 1
    48   17   44 1
    49   18   45 1
    50   19   46 1
    51   19   47 1
    52   20   48 1
    53   20   49 1
    54   22   50 1
    55   23   51 1
    56   23   52 1
    57   25   53 1
    58   26   54 1
    59   27   55 1
    60   28   56 1
    61   29   57 1
@<TRIPOS>PROPERTY_DATA
  Total_Score	| 4.9679
  Crash		| -2.7600
  Polar		| 0.0015
  FragIndex	| 1
  FragRMSD	| 0.941

