@<TRIPOS>MOLECULE
BindingDB_50220860
 57 61 0 0 0
SMALL
NO_CHARGES


@<TRIPOS>ATOM
1    C         6.0400   -8.4299   32.8570  C     
2    C         7.2379   -8.1260   32.1832  C     
3    C         7.9120   -6.9214   32.4488  C     
4    C         5.5211   -7.5364   33.8130  C     
5    C         6.1986   -6.3307   34.1063  C     
6    C         7.3940   -6.0255   33.4025  C     
7    N         8.0166   -4.8364   33.6290  N     
8    C         7.5438   -3.9354   34.5301  C     
9    N         6.4208   -4.2586   35.2350  N     
10   C         5.7550   -5.3953   35.0466  C     
11   O         4.7395   -5.5780   35.7039  O     
12   C         8.1320   -2.5687   34.6438  C     
13   C         9.4782   -2.3892   33.8699  C     
14   C         9.9989   -0.9327   33.9217  C     
15   C         8.9564    0.0545   33.3400  C     
16   C         7.5802   -0.0584   34.0645  C     
17   C         7.0818   -1.5377   34.1272  C     
18   N         6.4795    0.8239   33.5227  N     
19   C         6.5069    2.2586   33.9452  C     
20   C         7.2691    3.1973   32.9767  C     
21   C         7.0057    2.9462   31.5551  C     
22   C         6.5540    1.7342   31.1646  C     
23   C         6.1259    0.6829   32.0681  C     
24   C         7.2505    3.9609   30.6032  C     
25   C         6.4100    4.1347   29.4688  C     
26   C         6.6838    5.1114   28.4953  C     
27   C         7.7863    5.9647   28.6474  C     
28   C         8.6099    5.8418   29.7773  C     
29   C         8.3402    4.8589   30.7447  C     
30   H         5.5453   -9.3015   32.6528  H     
31   H         7.6186   -8.7777   31.4944  H     
32   H         8.7735   -6.6997   31.9434  H     
33   H         4.6465   -7.7683   34.2884  H     
34   H         6.0710   -3.6178   35.8743  H     
35   H         8.3255   -2.3759   35.7038  H     
36   H        10.2392   -3.0456   34.2959  H     
37   H         9.3475   -2.6696   32.8201  H     
38   H        10.2257   -0.6621   34.9570  H     
39   H        10.9255   -0.8594   33.3454  H     
40   H         9.3522    1.0634   33.4531  H     
41   H         8.8412   -0.1429   32.2721  H     
42   H         7.7535    0.2243   35.1093  H     
43   H         6.7658   -1.8621   33.1347  H     
44   H         6.1998   -1.5682   34.7753  H     
45   H         5.6489    0.4631   34.0010  H     
46   H         5.4673    2.5980   33.9919  H     
47   H         6.9182    2.3779   34.9492  H     
48   H         6.9813    4.2229   33.2300  H     
49   H         8.3405    3.1084   33.1585  H     
50   H         6.4329    1.5432   30.1950  H     
51   H         6.4869   -0.2567   31.6507  H     
52   H         5.0353    0.6423   32.0085  H     
53   H         5.5802    3.5510   29.3347  H     
54   H         6.0869    5.1947   27.6692  H     
55   H         7.9891    6.6672   27.9339  H     
56   H         9.4136    6.4586   29.8933  H     
57   H         8.9677    4.7979   31.5476  H     
@<TRIPOS>BOND
     1    1    2 2
     2    1    4 1
     3    2    3 1
     4    3    6 2
     5    4    5 2
     6    5    6 1
     7    5   10 1
     8    6    7 1
     9    7    8 2
    10    8    9 1
    11    8   12 1
    12    9   10 1
    13   10   11 2
    14   12   13 1
    15   12   17 1
    16   13   14 1
    17   14   15 1
    18   15   16 1
    19   16   17 1
    20   16   18 1
    21   18   19 1
    22   18   23 1
    23   19   20 1
    24   20   21 1
    25   21   22 2
    26   21   24 1
    27   22   23 1
    28   24   25 2
    29   24   29 1
    30   25   26 1
    31   26   27 2
    32   27   28 1
    33   28   29 2
    34    1   30 1
    35    2   31 1
    36    3   32 1
    37    4   33 1
    38    9   34 1
    39   12   35 1
    40   13   36 1
    41   13   37 1
    42   14   38 1
    43   14   39 1
    44   15   40 1
    45   15   41 1
    46   16   42 1
    47   17   43 1
    48   17   44 1
    49   18   45 1
    50   19   46 1
    51   19   47 1
    52   20   48 1
    53   20   49 1
    54   22   50 1
    55   23   51 1
    56   23   52 1
    57   25   53 1
    58   26   54 1
    59   27   55 1
    60   28   56 1
    61   29   57 1
@<TRIPOS>PROPERTY_DATA
  Total_Score	| 10.6825
  Crash		| -2.2287
  Polar		| 5.0635
  FragIndex	| 1
  FragRMSD	| 1.354

