@<TRIPOS>MOLECULE
BindingDB_27708
 50 53 0 0 0
SMALL
NO_CHARGES


@<TRIPOS>ATOM
1    C         5.3237   -7.3040   33.5472  C     
2    C         5.8707   -8.1073   32.5329  C     
3    C         7.0826   -7.7487   31.9236  C     
4    C         7.7407   -6.5584   32.2864  C     
5    C         7.1795   -5.7297   33.2832  C     
6    C         5.9807   -6.1186   33.9435  C     
7    C         5.5062   -5.2839   34.9628  C     
8    N         7.7696   -4.5450   33.6310  N     
9    C         7.2450   -3.7304   34.5848  C     
10   N         6.1206   -4.1350   35.2407  N     
11   O         4.5122   -5.5621   35.6214  O     
12   C         7.8863   -2.4467   34.9367  C     
13   C         6.9725   -1.2026   34.7157  C     
14   C         7.2302   -0.4249   33.3889  C     
15   N         8.5455    0.3154   33.4233  N     
16   C         7.9678    2.7464   33.3995  C     
17   C         8.5012    1.6144   34.1627  C     
18   C         9.1578    0.5383   32.0795  C     
19   C         8.3577    1.6119   31.2767  C     
20   C         7.9594    2.8136   32.0400  C     
21   C         7.5036    3.9672   31.3622  C     
22   C         7.0476    6.4071   31.3046  C     
23   C         7.5098    5.2541   31.9855  C     
24   C         7.0716    3.9186   29.9998  C     
25   C         6.6680    5.0778   29.3088  C     
26   C         6.6344    6.3273   29.9595  C     
27   Cl        9.1853   -6.1370   31.5053  Cl    
28   F         6.2228    7.3988   29.3286  F     
29   H         4.4431   -7.5799   33.9828  H     
30   H         5.3742   -8.9467   32.2455  H     
31   H         7.4685   -8.3409   31.1881  H     
32   H         5.7681   -3.5818   35.9534  H     
33   H         8.1452   -2.4984   35.9953  H     
34   H         8.8264   -2.3404   34.3877  H     
35   H         5.9147   -1.4894   34.7509  H     
36   H         7.1287   -0.5152   35.5536  H     
37   H         7.2064   -1.1418   32.5534  H     
38   H         6.4027    0.2860   33.2365  H     
39   H         9.2060   -0.2809   33.9353  H     
40   H         7.6378    3.5158   33.9381  H     
41   H         7.9095    1.5148   35.0755  H     
42   H         9.5164    1.8763   34.4857  H     
43   H        10.1956    0.8670   32.2099  H     
44   H         9.1953   -0.3994   31.5198  H     
45   H         8.9883    1.9296   30.4346  H     
46   H         7.4589    1.1351   30.8739  H     
47   H         7.0725    7.3155   31.7770  H     
48   H         7.8499    5.3748   32.9440  H     
49   H         7.0410    3.0248   29.4879  H     
50   H         6.3721    5.0038   28.3294  H     
@<TRIPOS>BOND
     1    1    2 2
     2    1    6 1
     3    2    3 1
     4    3    4 2
     5    4    5 1
     6    4   27 1
     7    5    6 2
     8    5    8 1
     9    6    7 1
    10    7   10 1
    11    7   11 2
    12    8    9 2
    13    9   10 1
    14    9   12 1
    15   12   13 1
    16   13   14 1
    17   14   15 1
    18   15   17 1
    19   15   18 1
    20   16   17 1
    21   16   20 2
    22   18   19 1
    23   19   20 1
    24   20   21 1
    25   21   23 1
    26   21   24 2
    27   22   23 2
    28   22   26 1
    29   24   25 1
    30   25   26 2
    31   26   28 1
    32    1   29 1
    33    2   30 1
    34    3   31 1
    35   10   32 1
    36   12   33 1
    37   12   34 1
    38   13   35 1
    39   13   36 1
    40   14   37 1
    41   14   38 1
    42   15   39 1
    43   16   40 1
    44   17   41 1
    45   17   42 1
    46   18   43 1
    47   18   44 1
    48   19   45 1
    49   19   46 1
    50   22   47 1
    51   23   48 1
    52   24   49 1
    53   25   50 1
@<TRIPOS>PROPERTY_DATA
  Total_Score	| 10.2164
  Crash		| -1.1799
  Polar		| 3.3565
  FragIndex	| 1
  FragRMSD	| 1.055

