@<TRIPOS>MOLECULE
BindingDB_27705
 50 53 0 0 0
SMALL
NO_CHARGES


@<TRIPOS>ATOM
1    C         5.2095   -7.2664   33.4394  C     
2    C         5.7372   -8.0555   32.4019  C     
3    C         6.9993   -7.7467   31.8509  C     
4    C         7.7214   -6.6412   32.3182  C     
5    C         7.1820   -5.8318   33.3403  C     
6    C         5.9261   -6.1525   33.9280  C     
7    C         5.4702   -5.3241   34.9543  C     
8    N         7.8487   -4.7218   33.7562  N     
9    C         7.3446   -3.9214   34.7333  C     
10   N         6.1642   -4.2531   35.3207  N     
11   O         4.4336   -5.5660   35.5632  O     
12   C         8.0511   -2.6967   35.1217  C     
13   C         7.3904   -1.4363   34.4821  C     
14   C         8.1916   -0.1520   34.8062  C     
15   N         7.7821    1.1502   34.1442  N     
16   C         8.6609    3.2199   33.0489  C     
17   C         8.9664    2.0006   33.7935  C     
18   C         6.8541    1.0279   32.9860  C     
19   C         6.4206    2.4522   32.4927  C     
20   C         7.5494    3.3580   32.3064  C     
21   C         7.3748    4.4657   31.4731  C     
22   C         7.2113    6.8931   31.1565  C     
23   C         7.4476    5.7827   31.9901  C     
24   C         7.1041    4.3001   30.0938  C     
25   C         6.8773    5.4086   29.2582  C     
26   C         6.9110    6.7103   29.7990  C     
27   H         4.2951   -7.5077   33.8321  H     
28   H         5.2047   -8.8488   32.0528  H     
29   H         7.3862   -8.3274   31.1068  H     
30   H         8.6362   -6.4150   31.9090  H     
31   H         5.8215   -3.6954   36.0343  H     
32   H         8.0491   -2.5924   36.2056  H     
33   H         9.0833   -2.7538   34.7826  H     
34   H         7.3628   -1.5949   33.4043  H     
35   H         6.3683   -1.3399   34.8613  H     
36   H         8.1251    0.0144   35.8879  H     
37   H         9.2525   -0.3727   34.5962  H     
38   H         7.2638    1.6539   34.8660  H     
39   H         9.3983    3.8885   32.9701  H     
40   H         9.4872    2.2819   34.7129  H     
41   H         9.6716    1.4395   33.1712  H     
42   H         7.3305    0.5088   32.1590  H     
43   H         5.9456    0.5081   33.2651  H     
44   H         5.8483    2.3069   31.5739  H     
45   H         5.7521    2.8825   33.2378  H     
46   H         7.2637    7.8432   31.5428  H     
47   H         7.6588    5.9423   32.9757  H     
48   H         7.0816    3.3630   29.6735  H     
49   H         6.6877    5.2764   28.2612  H     
50   H         6.7331    7.5193   29.1969  H     
@<TRIPOS>BOND
     1    1    2 2
     2    1    6 1
     3    2    3 1
     4    3    4 2
     5    4    5 1
     6    5    6 2
     7    5    8 1
     8    6    7 1
     9    7   10 1
    10    7   11 2
    11    8    9 2
    12    9   10 1
    13    9   12 1
    14   12   13 1
    15   13   14 1
    16   14   15 1
    17   15   17 1
    18   15   18 1
    19   16   17 1
    20   16   20 2
    21   18   19 1
    22   19   20 1
    23   20   21 1
    24   21   23 1
    25   21   24 2
    26   22   23 2
    27   22   26 1
    28   24   25 1
    29   25   26 2
    30    1   27 1
    31    2   28 1
    32    3   29 1
    33    4   30 1
    34   10   31 1
    35   12   32 1
    36   12   33 1
    37   13   34 1
    38   13   35 1
    39   14   36 1
    40   14   37 1
    41   15   38 1
    42   16   39 1
    43   17   40 1
    44   17   41 1
    45   18   42 1
    46   18   43 1
    47   19   44 1
    48   19   45 1
    49   22   46 1
    50   23   47 1
    51   24   48 1
    52   25   49 1
    53   26   50 1
@<TRIPOS>PROPERTY_DATA
  Total_Score	| 9.5952
  Crash		| -1.6507
  Polar		| 3.8778
  FragIndex	| 1
  FragRMSD	| 1.201

