@<TRIPOS>MOLECULE
BindingDB_50220877
 53 56 0 0 0
SMALL
NO_CHARGES


@<TRIPOS>ATOM
1    C         5.8286   -8.2321   32.5894  C     
2    C         7.0776   -7.9221   32.0236  C     
3    C         7.7599   -6.7337   32.3690  C     
4    C         5.2501   -7.3658   33.5339  C     
5    C         5.9347   -6.1947   33.9419  C     
6    C         7.1825   -5.8783   33.3366  C     
7    N         7.7978   -4.7206   33.7011  N     
8    C         7.2896   -3.8874   34.6447  C     
9    N         6.1274   -4.2322   35.2657  N     
10   C         5.4593   -5.3325   34.9368  C     
11   O         4.4463   -5.5836   35.5693  O     
12   C         8.0042   -2.6443   34.9685  C     
13   C         7.3557   -1.3834   34.3178  C     
14   C         8.2799   -0.1397   34.4471  C     
15   N         7.8960    0.9380   33.4769  N     
16   C         7.9623    2.3021   34.0611  C     
17   C         7.7047    3.3844   33.1422  C     
18   C         7.7484    3.2604   31.7883  C     
19   C         8.0669    1.9406   31.2096  C     
20   C         8.6676    0.9050   32.1925  C     
21   C         7.4523    4.3639   30.9222  C     
22   C         7.4730    5.7303   31.3628  C     
23   C         7.1743    6.8035   30.4950  C     
24   C         6.8632    6.5502   29.1488  C     
25   C         6.8598    5.2308   28.6631  C     
26   C         7.1442    4.1666   29.5390  C     
27   Cl        6.5157    7.8282   28.0894  Cl    
28   C         9.0593   -6.4573   31.7110  C     
29   H         5.3465   -9.0972   32.3226  H     
30   H         7.4974   -8.5763   31.3572  H     
31   H         4.3382   -7.6032   33.9300  H     
32   H         5.7889   -3.6610   35.9720  H     
33   H         8.0427   -2.5090   36.0566  H     
34   H         9.0389   -2.7095   34.6096  H     
35   H         7.1429   -1.5988   33.2630  H     
36   H         6.3874   -1.1651   34.8151  H     
37   H         8.1984    0.2191   35.4843  H     
38   H         9.3282   -0.4158   34.2886  H     
39   H         6.9150    0.7723   33.2143  H     
40   H         7.1984    2.3540   34.8379  H     
41   H         8.9515    2.4790   34.5052  H     
42   H         7.4910    4.2537   33.5749  H     
43   H         7.1465    1.5249   30.7963  H     
44   H         8.7800    2.0754   30.3881  H     
45   H         9.7279    1.1469   32.3636  H     
46   H         8.6114   -0.0759   31.7143  H     
47   H         7.7386    6.0006   32.3118  H     
48   H         7.2146    7.7657   30.8398  H     
49   H         6.6477    5.0196   27.6832  H     
50   H         7.1004    3.2211   29.1391  H     
51   H         9.7486   -7.2817   31.8951  H     
52   H         9.5297   -5.5443   32.0726  H     
53   H         8.9064   -6.3575   30.6357  H     
@<TRIPOS>BOND
     1    1    2 2
     2    1    4 1
     3    2    3 1
     4    3    6 2
     5    3   28 1
     6    4    5 2
     7    5    6 1
     8    5   10 1
     9    6    7 1
    10    7    8 2
    11    8    9 1
    12    8   12 1
    13    9   10 1
    14   10   11 2
    15   12   13 1
    16   13   14 1
    17   14   15 1
    18   15   16 1
    19   15   20 1
    20   16   17 1
    21   17   18 2
    22   18   19 1
    23   18   21 1
    24   19   20 1
    25   21   22 2
    26   21   26 1
    27   22   23 1
    28   23   24 2
    29   24   25 1
    30   24   27 1
    31   25   26 2
    32    1   29 1
    33    2   30 1
    34    4   31 1
    35    9   32 1
    36   12   33 1
    37   12   34 1
    38   13   35 1
    39   13   36 1
    40   14   37 1
    41   14   38 1
    42   15   39 1
    43   16   40 1
    44   16   41 1
    45   17   42 1
    46   19   43 1
    47   19   44 1
    48   20   45 1
    49   20   46 1
    50   22   47 1
    51   23   48 1
    52   25   49 1
    53   26   50 1
    54   28   51 1
    55   28   52 1
    56   28   53 1
@<TRIPOS>PROPERTY_DATA
  Total_Score	| 9.8044
  Crash		| -1.4878
  Polar		| 3.3992
  FragIndex	| 1
  FragRMSD	| 1.235

