@<TRIPOS>MOLECULE
BindingDB_27706
 50 53 0 0 0
SMALL
NO_CHARGES


@<TRIPOS>ATOM
1    C         5.3821   -7.3089   33.5460  C     
2    C         5.9107   -8.1539   32.5562  C     
3    C         7.0872   -7.7977   31.8753  C     
4    C         7.7323   -6.5736   32.1571  C     
5    C         7.2068   -5.7226   33.1515  C     
6    C         6.0372   -6.0983   33.8712  C     
7    C         5.6103   -5.2448   34.8898  C     
8    N         7.8268   -4.5453   33.4635  N     
9    C         7.3668   -3.7334   34.4497  C     
10   N         6.2670   -4.1199   35.1524  N     
11   O         4.6484   -5.5129   35.5983  O     
12   C         8.1006   -2.5044   34.8245  C     
13   C         7.2562   -1.1992   34.7810  C     
14   C         7.3603   -0.3518   33.4862  C     
15   N         6.3584    0.7687   33.5559  N     
16   C         6.2155    1.9040   31.3583  C     
17   C         5.5707    1.0303   32.3189  C     
18   C         6.8867    2.0517   34.1161  C     
19   C         7.6980    2.8697   33.0692  C     
20   C         7.1637    2.8043   31.7021  C     
21   C         7.7094    3.6227   30.7069  C     
22   C         8.6546    3.8823   28.4556  C     
23   C         8.1754    3.0641   29.4942  C     
24   C         7.7494    5.0318   30.8591  C     
25   C         8.2282    5.8530   29.8185  C     
26   C         8.6825    5.2798   28.6183  C     
27   Cl        9.1377   -6.1745   31.2986  Cl    
28   H         4.5290   -7.5902   34.0368  H     
29   H         5.4416   -9.0399   32.3426  H     
30   H         7.4786   -8.4312   31.1765  H     
31   H         5.9650   -3.5597   35.8863  H     
32   H         8.4490   -2.6537   35.8512  H     
33   H         8.9961   -2.3915   34.2020  H     
34   H         6.2023   -1.4375   34.9472  H     
35   H         7.5757   -0.5693   35.6193  H     
36   H         8.3786    0.0334   33.3722  H     
37   H         7.1602   -1.0078   32.6347  H     
38   H         5.6361    0.4347   34.2008  H     
39   H         5.8492    1.8965   30.4304  H     
40   H         5.2913    0.0926   31.8344  H     
41   H         4.6335    1.5196   32.6056  H     
42   H         6.0425    2.6644   34.4442  H     
43   H         7.5064    1.8723   34.9960  H     
44   H         7.7375    3.9053   33.4213  H     
45   H         8.7240    2.4922   33.0451  H     
46   H         8.9830    3.4637   27.5816  H     
47   H         8.1683    2.0502   29.3486  H     
48   H         7.3930    5.4781   31.7069  H     
49   H         8.2265    6.8667   29.9248  H     
50   H         9.0284    5.8703   27.8609  H     
@<TRIPOS>BOND
     1    1    2 2
     2    1    6 1
     3    2    3 1
     4    3    4 2
     5    4    5 1
     6    4   27 1
     7    5    6 2
     8    5    8 1
     9    6    7 1
    10    7   10 1
    11    7   11 2
    12    8    9 2
    13    9   10 1
    14    9   12 1
    15   12   13 1
    16   13   14 1
    17   14   15 1
    18   15   17 1
    19   15   18 1
    20   16   17 1
    21   16   20 2
    22   18   19 1
    23   19   20 1
    24   20   21 1
    25   21   23 1
    26   21   24 2
    27   22   23 2
    28   22   26 1
    29   24   25 1
    30   25   26 2
    31    1   28 1
    32    2   29 1
    33    3   30 1
    34   10   31 1
    35   12   32 1
    36   12   33 1
    37   13   34 1
    38   13   35 1
    39   14   36 1
    40   14   37 1
    41   15   38 1
    42   16   39 1
    43   17   40 1
    44   17   41 1
    45   18   42 1
    46   18   43 1
    47   19   44 1
    48   19   45 1
    49   22   46 1
    50   23   47 1
    51   24   48 1
    52   25   49 1
    53   26   50 1
@<TRIPOS>PROPERTY_DATA
  Total_Score	| 11.0892
  Crash		| -1.4108
  Polar		| 4.7877
  FragIndex	| 1
  FragRMSD	| 1.400

