@<TRIPOS>MOLECULE
BindingDB_50220882
 52 56 0 0 0
SMALL
NO_CHARGES


@<TRIPOS>ATOM
1    C         5.8409   -8.2161   32.6728  C     
2    C         7.0687   -7.9589   32.0348  C     
3    C         7.7663   -6.7679   32.2991  C     
4    C         5.3202   -7.2944   33.6022  C     
5    C         6.0252   -6.1040   33.9000  C     
6    C         7.2416   -5.8405   33.2182  C     
7    N         7.8971   -4.6738   33.4537  N     
8    C         7.4398   -3.7401   34.3302  C     
9    N         6.2916   -4.0236   35.0152  N     
10   C         5.6014   -5.1503   34.8317  C     
11   O         4.5920   -5.3225   35.5016  O     
12   C         8.1572   -2.5528   34.4797  C     
13   C         9.4919   -2.3743   33.9537  C     
14   C         9.9486   -1.0113   34.4978  C     
15   C         8.6481   -0.3224   34.9881  C     
16   C         7.7072   -1.4179   35.0259  C     
17   N         8.1804    0.8761   34.2031  N     
18   C         7.5146    0.6025   32.8877  C     
19   C         7.1956    1.7912   32.1053  C     
20   C         7.7117    3.0250   32.3287  C     
21   C         8.5818    3.2188   33.5028  C     
22   C         9.2319    1.9251   34.0495  C     
23   C         7.3941    4.1362   31.4976  C     
24   C         6.9088    3.9757   30.1688  C     
25   C         6.5884    5.0773   29.3531  C     
26   C         6.7745    6.3849   29.8298  C     
27   C         7.2829    6.5811   31.1229  C     
28   C         7.5768    5.4761   31.9427  C     
29   F         6.4864    7.4104   29.0754  F     
30   H         5.3290   -9.0772   32.4650  H     
31   H         7.4566   -8.6376   31.3764  H     
32   H         8.6514   -6.5807   31.8213  H     
33   H         4.4284   -7.5003   34.0593  H     
34   H         5.9671   -3.3885   35.6742  H     
35   H        10.1689   -3.1629   34.2883  H     
36   H         9.4613   -2.3673   32.8603  H     
37   H        10.6334   -1.1596   35.3392  H     
38   H        10.4757   -0.4481   33.7269  H     
39   H         8.7899   -0.0055   36.0275  H     
40   H         6.7922   -1.3073   35.3953  H     
41   H         7.4581    1.3077   34.7864  H     
42   H         8.1360   -0.0462   32.2660  H     
43   H         6.5763    0.0783   33.0865  H     
44   H         6.5621    1.6482   31.3536  H     
45   H         9.3965    3.9095   33.2614  H     
46   H         7.9843    3.6666   34.3023  H     
47   H         9.7033    2.1482   35.0099  H     
48   H        10.0158    1.6070   33.3557  H     
49   H         6.8022    3.0465   29.7574  H     
50   H         6.2332    4.9225   28.4053  H     
51   H         7.4367    7.5293   31.4740  H     
52   H         7.9188    5.6761   32.8849  H     
@<TRIPOS>BOND
     1    1    2 2
     2    1    4 1
     3    2    3 1
     4    3    6 2
     5    4    5 2
     6    5    6 1
     7    5   10 1
     8    6    7 1
     9    7    8 2
    10    8    9 1
    11    8   12 1
    12    9   10 1
    13   10   11 2
    14   12   13 1
    15   12   16 2
    16   13   14 1
    17   14   15 1
    18   15   16 1
    19   15   17 1
    20   17   18 1
    21   17   22 1
    22   18   19 1
    23   19   20 2
    24   20   21 1
    25   20   23 1
    26   21   22 1
    27   23   24 2
    28   23   28 1
    29   24   25 1
    30   25   26 2
    31   26   27 1
    32   26   29 1
    33   27   28 2
    34    1   30 1
    35    2   31 1
    36    3   32 1
    37    4   33 1
    38    9   34 1
    39   13   35 1
    40   13   36 1
    41   14   37 1
    42   14   38 1
    43   15   39 1
    44   16   40 1
    45   17   41 1
    46   18   42 1
    47   18   43 1
    48   19   44 1
    49   21   45 1
    50   21   46 1
    51   22   47 1
    52   22   48 1
    53   24   49 1
    54   25   50 1
    55   27   51 1
    56   28   52 1
@<TRIPOS>PROPERTY_DATA
  Total_Score	| 9.4332
  Crash		| -1.3355
  Polar		| 3.2825
  FragIndex	| 1
  FragRMSD	| 0.921

