@<TRIPOS>MOLECULE
BindingDB_50220875
 55 59 0 0 0
SMALL
NO_CHARGES


@<TRIPOS>ATOM
1    C         5.8373   -8.2309   32.6549  C     
2    C         7.0607   -7.9414   32.0236  C     
3    C         7.7318   -6.7199   32.2613  C     
4    C         5.2858   -7.3242   33.5730  C     
5    C         5.9564   -6.1168   33.8659  C     
6    C         7.1577   -5.8003   33.1698  C     
7    N         7.7394   -4.5857   33.3935  N     
8    C         7.2536   -3.6938   34.2916  C     
9    N         6.1481   -4.0545   35.0104  N     
10   C         5.5053   -5.1987   34.8179  C     
11   O         4.5329   -5.4287   35.5252  O     
12   C         7.8775   -2.4580   34.4764  C     
13   C         7.7106   -1.6779   35.6685  C     
14   C         8.8612   -0.6628   35.5847  C     
15   C         9.1596   -0.5182   34.0691  C     
16   C         8.6936   -1.8200   33.6187  C     
17   N         8.4971    0.6169   33.3018  N     
18   C         8.4280    1.9308   34.0281  C     
19   C         8.0417    3.1007   33.2485  C     
20   C         7.9786    3.1487   31.8955  C     
21   C         8.2927    1.9126   31.1571  C     
22   C         9.1017    0.8474   31.9496  C     
23   C         7.5615    4.3232   31.1830  C     
24   C         7.4999    5.6240   31.7840  C     
25   C         7.0775    6.7644   31.0768  C     
26   C         6.7131    6.6605   29.7222  C     
27   C         6.7897    5.4096   29.0864  C     
28   C         7.1883    4.2700   29.8067  C     
29   F         6.3109    7.7096   29.0506  F     
30   C         9.0200   -6.4668   31.5632  C     
31   H         5.3542   -9.1131   32.4561  H     
32   H         7.4602   -8.6271   31.3761  H     
33   H         4.3948   -7.5557   34.0205  H     
34   H         5.8119   -3.4457   35.6894  H     
35   H         6.7266   -1.1899   35.6639  H     
36   H         7.8135   -2.2972   36.5628  H     
37   H         8.6143    0.2619   36.1104  H     
38   H         9.7366   -1.1007   36.0882  H     
39   H        10.2537   -0.4638   33.9478  H     
40   H         8.9649   -2.1970   32.7370  H     
41   H         7.5263    0.3294   33.1256  H     
42   H         7.6591    1.8373   34.8025  H     
43   H         9.3953    2.1497   34.5097  H     
44   H         7.8141    3.8987   33.7879  H     
45   H         7.3445    1.4750   30.8400  H     
46   H         8.8619    2.1611   30.2581  H     
47   H        10.1442    1.1843   32.0366  H     
48   H         9.0890   -0.0764   31.3625  H     
49   H         7.7819    5.7843   32.7522  H     
50   H         7.0430    7.6784   31.5446  H     
51   H         6.5304    5.3220   28.0968  H     
52   H         7.1870    3.3784   29.3009  H     
53   H         9.7446   -7.2314   31.8484  H     
54   H         9.4527   -5.4954   31.8065  H     
55   H         8.8715   -6.5033   30.4836  H     
@<TRIPOS>BOND
     1    1    2 2
     2    1    4 1
     3    2    3 1
     4    3    6 2
     5    3   30 1
     6    4    5 2
     7    5    6 1
     8    5   10 1
     9    6    7 1
    10    7    8 2
    11    8    9 1
    12    8   12 1
    13    9   10 1
    14   10   11 2
    15   12   13 1
    16   12   16 2
    17   13   14 1
    18   14   15 1
    19   15   16 1
    20   15   17 1
    21   17   18 1
    22   17   22 1
    23   18   19 1
    24   19   20 2
    25   20   21 1
    26   20   23 1
    27   21   22 1
    28   23   24 2
    29   23   28 1
    30   24   25 1
    31   25   26 2
    32   26   27 1
    33   26   29 1
    34   27   28 2
    35    1   31 1
    36    2   32 1
    37    4   33 1
    38    9   34 1
    39   13   35 1
    40   13   36 1
    41   14   37 1
    42   14   38 1
    43   15   39 1
    44   16   40 1
    45   17   41 1
    46   18   42 1
    47   18   43 1
    48   19   44 1
    49   21   45 1
    50   21   46 1
    51   22   47 1
    52   22   48 1
    53   24   49 1
    54   25   50 1
    55   27   51 1
    56   28   52 1
    57   30   53 1
    58   30   54 1
    59   30   55 1
@<TRIPOS>PROPERTY_DATA
  Total_Score	| 9.5403
  Crash		| -2.1552
  Polar		| 3.2466
  FragIndex	| 1
  FragRMSD	| 1.230

