@<TRIPOS>MOLECULE
BindingDB_27709
 53 56 0 0 0
SMALL
NO_CHARGES


@<TRIPOS>ATOM
1    C         5.3508   -7.3433   33.5850  C     
2    C         5.9390   -8.1844   32.6267  C     
3    C         7.1350   -7.8042   31.9930  C     
4    C         7.7637   -6.5731   32.2982  C     
5    C         7.1664   -5.7263   33.2715  C     
6    C         5.9608   -6.1164   33.9249  C     
7    C         5.4414   -5.2560   34.8988  C     
8    N         7.7385   -4.5297   33.6215  N     
9    C         7.1919   -3.7115   34.5587  C     
10   N         6.0516   -4.1110   35.1822  N     
11   O         4.4412   -5.5358   35.5474  O     
12   C         7.8657   -2.4566   34.9624  C     
13   C         7.0084   -1.1663   34.7788  C     
14   C         7.2024   -0.4572   33.4094  C     
15   N         8.4938    0.3145   33.3592  N     
16   C         8.0000    2.7780   33.3798  C     
17   C         8.4769    1.6128   34.1172  C     
18   C         9.0407    0.5488   31.9906  C     
19   C         8.2438    1.6430   31.2353  C     
20   C         7.9203    2.8447   32.0256  C     
21   C         7.5027    4.0319   31.3599  C     
22   C         7.0988    6.4804   31.3379  C     
23   C         7.5013    5.3059   32.0048  C     
24   C         7.1075    4.0158   29.9911  C     
25   C         6.7366    5.1910   29.3101  C     
26   C         6.7153    6.4264   29.9871  C     
27   C         9.0069   -6.2226   31.5676  C     
28   F         6.3634    7.5136   29.3540  F     
29   H         4.4745   -7.6351   34.0257  H     
30   H         5.4965   -9.0763   32.3996  H     
31   H         7.5454   -8.4365   31.2957  H     
32   H         5.6875   -3.5483   35.8788  H     
33   H         8.1112   -2.5594   36.0205  H     
34   H         8.8170   -2.3570   34.4291  H     
35   H         5.9477   -1.3999   34.9129  H     
36   H         7.2781   -0.4731   35.5786  H     
37   H         7.1599   -1.2234   32.6280  H     
38   H         6.3537    0.2160   33.2287  H     
39   H         9.1859   -0.2775   33.8240  H     
40   H         7.7379    3.5608   33.9378  H     
41   H         7.8706    1.5253   35.0236  H     
42   H         9.4984    1.8312   34.4469  H     
43   H        10.0785    0.8793   32.0821  H     
44   H         9.0508   -0.3812   31.4109  H     
45   H         8.8334    1.9304   30.3603  H     
46   H         7.3136    1.1950   30.8906  H     
47   H         7.1011    7.3776   31.8354  H     
48   H         7.8270    5.4109   32.9701  H     
49   H         7.0827    3.1432   29.4576  H     
50   H         6.4755    5.1383   28.3197  H     
51   H         9.7557   -6.9998   31.7301  H     
52   H         9.4396   -5.2781   31.8950  H     
53   H         8.7964   -6.1460   30.4986  H     
@<TRIPOS>BOND
     1    1    2 2
     2    1    6 1
     3    2    3 1
     4    3    4 2
     5    4    5 1
     6    4   27 1
     7    5    6 2
     8    5    8 1
     9    6    7 1
    10    7   10 1
    11    7   11 2
    12    8    9 2
    13    9   10 1
    14    9   12 1
    15   12   13 1
    16   13   14 1
    17   14   15 1
    18   15   17 1
    19   15   18 1
    20   16   17 1
    21   16   20 2
    22   18   19 1
    23   19   20 1
    24   20   21 1
    25   21   23 1
    26   21   24 2
    27   22   23 2
    28   22   26 1
    29   24   25 1
    30   25   26 2
    31   26   28 1
    32    1   29 1
    33    2   30 1
    34    3   31 1
    35   10   32 1
    36   12   33 1
    37   12   34 1
    38   13   35 1
    39   13   36 1
    40   14   37 1
    41   14   38 1
    42   15   39 1
    43   16   40 1
    44   17   41 1
    45   17   42 1
    46   18   43 1
    47   18   44 1
    48   19   45 1
    49   19   46 1
    50   22   47 1
    51   23   48 1
    52   24   49 1
    53   25   50 1
    54   27   51 1
    55   27   52 1
    56   27   53 1
@<TRIPOS>PROPERTY_DATA
  Total_Score	| 10.7982
  Crash		| -1.0215
  Polar		| 3.3437
  FragIndex	| 1
  FragRMSD	| 1.034

