@<TRIPOS>MOLECULE
BindingDB_50220868
 50 53 0 0 0
SMALL
NO_CHARGES


@<TRIPOS>ATOM
1    C         5.7773   -8.1018   32.4763  C     
2    C         7.0654   -7.8093   31.9919  C     
3    C         7.7740   -6.6992   32.4853  C     
4    C         5.1986   -7.2938   33.4703  C     
5    C         5.8918   -6.1737   33.9814  C     
6    C         7.1811   -5.8709   33.4591  C     
7    N         7.8195   -4.7456   33.8733  N     
8    C         7.2648   -3.9102   34.7879  C     
9    N         6.0466   -4.2199   35.3207  N     
10   C         5.3819   -5.3118   34.9557  C     
11   O         4.3202   -5.5551   35.5208  O     
12   C         7.9792   -2.6690   35.1423  C     
13   C         7.2998   -1.4077   34.5264  C     
14   C         8.2141   -0.1515   34.6162  C     
15   N         7.7186    1.1590   34.0445  N     
16   C         6.7479    1.0742   32.9158  C     
17   C         6.2716    2.5117   32.5339  C     
18   C         7.3730    3.4421   32.3040  C     
19   C         8.5251    3.3003   32.9906  C     
20   C         8.8701    2.0780   33.7024  C     
21   C         7.1911    4.4979   31.4130  C     
22   C         7.3182    5.8467   31.8232  C     
23   C         7.1286    6.9021   30.9103  C     
24   C         6.7965    6.6243   29.5673  C     
25   C         6.6784    5.2892   29.1407  C     
26   C         6.8812    4.2358   30.0522  C     
27   Cl        6.5604    7.8881   28.4599  Cl    
28   H         5.2585   -8.8954   32.0994  H     
29   H         7.4892   -8.3919   31.2665  H     
30   H         8.7039   -6.4779   32.1162  H     
31   H         4.2582   -7.5177   33.8043  H     
32   H         5.6640   -3.6473   35.9978  H     
33   H         8.0222   -2.5661   36.2317  H     
34   H         9.0029   -2.7295   34.7667  H     
35   H         7.0999   -1.5952   33.4633  H     
36   H         6.3469   -1.2086   35.0382  H     
37   H         8.4217    0.0378   35.6778  H     
38   H         9.1678   -0.4325   34.1508  H     
39   H         7.2168    1.6130   34.8139  H     
40   H         7.1947    0.5922   32.0468  H     
41   H         5.8614    0.5132   33.2224  H     
42   H         5.6036    2.4241   31.6793  H     
43   H         5.6798    2.9048   33.3669  H     
44   H         9.2517    3.9676   32.8745  H     
45   H         9.3771    2.3594   34.6313  H     
46   H         9.6018    1.5569   33.0723  H     
47   H         7.5363    6.0747   32.7951  H     
48   H         7.2377    7.8721   31.2219  H     
49   H         6.4510    5.0769   28.1621  H     
50   H         6.8112    3.2789   29.7046  H     
@<TRIPOS>BOND
     1    1    2 2
     2    1    4 1
     3    2    3 1
     4    3    6 2
     5    4    5 2
     6    5    6 1
     7    5   10 1
     8    6    7 1
     9    7    8 2
    10    8    9 1
    11    8   12 1
    12    9   10 1
    13   10   11 2
    14   12   13 1
    15   13   14 1
    16   14   15 1
    17   15   16 1
    18   15   20 1
    19   16   17 1
    20   17   18 1
    21   18   19 2
    22   18   21 1
    23   19   20 1
    24   21   22 2
    25   21   26 1
    26   22   23 1
    27   23   24 2
    28   24   25 1
    29   24   27 1
    30   25   26 2
    31    1   28 1
    32    2   29 1
    33    3   30 1
    34    4   31 1
    35    9   32 1
    36   12   33 1
    37   12   34 1
    38   13   35 1
    39   13   36 1
    40   14   37 1
    41   14   38 1
    42   15   39 1
    43   16   40 1
    44   16   41 1
    45   17   42 1
    46   17   43 1
    47   19   44 1
    48   20   45 1
    49   20   46 1
    50   22   47 1
    51   23   48 1
    52   25   49 1
    53   26   50 1
@<TRIPOS>PROPERTY_DATA
  Total_Score	| 9.0904
  Crash		| -1.8329
  Polar		| 3.7362
  FragIndex	| 1
  FragRMSD	| 1.230

