@<TRIPOS>MOLECULE
BindingDB_50220864
 50 53 0 0 0
SMALL
NO_CHARGES


@<TRIPOS>ATOM
1    C         5.7842   -8.1839   32.5701  C     
2    C         7.0315   -7.8591   32.0111  C     
3    C         7.6976   -6.6823   32.3994  C     
4    C         5.1941   -7.3384   33.5298  C     
5    C         5.8562   -6.1561   33.9427  C     
6    C         7.1104   -5.8280   33.3584  C     
7    N         7.7572   -4.7009   33.7416  N     
8    C         7.2344   -3.8743   34.6829  C     
9    N         6.0402   -4.1872   35.2533  N     
10   C         5.3576   -5.2766   34.9108  C     
11   O         4.3100   -5.5024   35.5002  O     
12   C         7.9605   -2.6547   35.0744  C     
13   C         7.3273   -1.3904   34.4455  C     
14   C         8.1573   -0.1127   34.7253  C     
15   N         7.7462    1.2058   34.1025  N     
16   C         8.9420    1.9849   33.6279  C     
17   C         8.5764    3.2371   32.9954  C     
18   C         7.5653    3.3076   32.1030  C     
19   C         6.8043    2.0750   31.8544  C     
20   C         6.5787    1.2313   33.1416  C     
21   C         7.3163    4.4769   31.3542  C     
22   C         6.8923    4.3933   30.0021  C     
23   C         6.6425    5.5493   29.2365  C     
24   C         6.8202    6.8204   29.8032  C     
25   C         7.2641    6.9326   31.1279  C     
26   C         7.5070    5.7754   31.8958  C     
27   F         6.5800    7.8899   29.0985  F     
28   H         5.3106   -9.0460   32.2973  H     
29   H         7.4700   -8.4811   31.3276  H     
30   H         8.6063   -6.4527   31.9884  H     
31   H         4.2896   -7.5923   33.9295  H     
32   H         5.6814   -3.6056   35.9429  H     
33   H         7.9503   -2.5704   36.1670  H     
34   H         9.0045   -2.7183   34.7536  H     
35   H         7.2738   -1.5151   33.3523  H     
36   H         6.3172   -1.2477   34.8417  H     
37   H         8.1697    0.0518   35.8052  H     
38   H         9.1894   -0.3591   34.4494  H     
39   H         7.3884    1.7520   34.9022  H     
40   H         9.6032    2.1825   34.4754  H     
41   H         9.5025    1.3959   32.8937  H     
42   H         9.1744    4.0168   33.1510  H     
43   H         5.8281    2.2798   31.4099  H     
44   H         7.3755    1.4669   31.1496  H     
45   H         6.2686    0.2285   32.8272  H     
46   H         5.7260    1.6449   33.6923  H     
47   H         6.7714    3.4812   29.5488  H     
48   H         6.3409    5.4555   28.2650  H     
49   H         7.3945    7.8544   31.5482  H     
50   H         7.7989    5.8989   32.8669  H     
@<TRIPOS>BOND
     1    1    2 2
     2    1    4 1
     3    2    3 1
     4    3    6 2
     5    4    5 2
     6    5    6 1
     7    5   10 1
     8    6    7 1
     9    7    8 2
    10    8    9 1
    11    8   12 1
    12    9   10 1
    13   10   11 2
    14   12   13 1
    15   13   14 1
    16   14   15 1
    17   15   16 1
    18   15   20 1
    19   16   17 1
    20   17   18 2
    21   18   19 1
    22   18   21 1
    23   19   20 1
    24   21   22 2
    25   21   26 1
    26   22   23 1
    27   23   24 2
    28   24   25 1
    29   24   27 1
    30   25   26 2
    31    1   28 1
    32    2   29 1
    33    3   30 1
    34    4   31 1
    35    9   32 1
    36   12   33 1
    37   12   34 1
    38   13   35 1
    39   13   36 1
    40   14   37 1
    41   14   38 1
    42   15   39 1
    43   16   40 1
    44   16   41 1
    45   17   42 1
    46   19   43 1
    47   19   44 1
    48   20   45 1
    49   20   46 1
    50   22   47 1
    51   23   48 1
    52   25   49 1
    53   26   50 1
@<TRIPOS>PROPERTY_DATA
  Total_Score	| 9.9153
  Crash		| -1.3656
  Polar		| 3.6338
  FragIndex	| 1
  FragRMSD	| 1.209

