@<TRIPOS>MOLECULE
BindingDB_68261
 39 40 0 0 0
SMALL
NO_CHARGES


@<TRIPOS>ATOM
1    C        18.6071  -34.0552  -59.6918  C     
2    C        17.3721  -33.3571  -59.6385  C     
3    C        17.0227  -32.6403  -58.4813  C     
4    C        17.8672  -32.6193  -57.3597  C     
5    C        19.0816  -33.3337  -57.3833  C     
6    C        19.4814  -34.0549  -58.5552  C     
7    C        18.8964  -34.7592  -60.8753  C     
8    O        16.5064  -33.3611  -60.6926  O     
9    O        17.4900  -31.9214  -56.2501  O     
10   O        19.8083  -34.2809  -61.7704  O     
11   O        18.1968  -35.8944  -61.1356  O     
12   C        20.1509  -34.9293  -63.0112  C     
13   C        21.1524  -34.0947  -63.8551  C     
14   C        22.3694  -33.8253  -63.1166  C     
15   C        22.6343  -32.6333  -62.5518  C     
16   C        20.7786  -34.8130  -58.5502  C     
17   C        21.9522  -33.9479  -58.4847  C     
18   C        22.2411  -32.9294  -59.4775  C     
19   C        23.7044  -32.4349  -61.5932  C     
20   O        22.7792  -34.1410  -57.6008  O     
21   Cl       20.0232  -33.3235  -55.9605  Cl    
22   C        23.5218  -33.2709  -60.2944  C     
23   H        16.1373  -32.1325  -58.4568  H     
24   H        15.9513  -32.5483  -60.6300  H     
25   H        16.9454  -31.1610  -56.5531  H     
26   H        20.5849  -35.9147  -62.7978  H     
27   H        19.2398  -35.0760  -63.6005  H     
28   H        21.4057  -34.6450  -64.7666  H     
29   H        20.6634  -33.1656  -64.1689  H     
30   H        22.9722  -34.5961  -62.9321  H     
31   H        22.0233  -31.8692  -62.7327  H     
32   H        20.7639  -35.5088  -57.7045  H     
33   H        20.8990  -35.4424  -59.4328  H     
34   H        21.3958  -32.8143  -60.1569  H     
35   H        22.3775  -31.9630  -58.9817  H     
36   H        24.6533  -32.7055  -62.0672  H     
37   H        23.7614  -31.3753  -61.3266  H     
38   H        24.4003  -33.1090  -59.6584  H     
39   H        23.5121  -34.3314  -60.5619  H     
@<TRIPOS>BOND
     1    1    2 1
     2    1    6 2
     3    1    7 1
     4    2    3 2
     5    2    8 1
     6    3    4 1
     7    4    5 2
     8    4    9 1
     9    5    6 1
    10    5   21 1
    11    6   16 1
    12    7   10 1
    13    7   11 2
    14   10   12 1
    15   12   13 1
    16   13   14 1
    17   14   15 2
    18   15   19 1
    19   16   17 1
    20   17   18 1
    21   17   20 2
    22   18   22 1
    23   19   22 1
    24    3   23 1
    25    8   24 1
    26    9   25 1
    27   12   26 1
    28   12   27 1
    29   13   28 1
    30   13   29 1
    31   14   30 1
    32   15   31 1
    33   16   32 1
    34   16   33 1
    35   18   34 1
    36   18   35 1
    37   19   36 1
    38   19   37 1
    39   22   38 1
    40   22   39 1
@<TRIPOS>PROPERTY_DATA
  Total_Score	| 3.7361
  Crash		| -1.5400
  Polar		| 1.4268
  FragIndex	| 1
  FragRMSD	| 0.677

