@<TRIPOS>MOLECULE
BindingDB_28030
 48 51 0 0 0
SMALL
NO_CHARGES


@<TRIPOS>ATOM
1    C         1.3651    9.1075   55.3554  C     
2    C         1.5065   10.3677   55.9662  C     
3    C         1.8675   10.4599   57.3245  C     
4    C         2.1464    9.2820   58.0443  C     
5    C         2.0195    8.0257   57.4267  C     
6    C         1.5993    7.9170   56.0828  C     
7    F         1.2795   11.4485   55.2732  F     
8    O         1.9580   11.6921   57.9171  O     
9    C         0.9771   12.0064   58.8349  C     
10   C         1.3481   12.6394   60.0477  C     
11   C         0.3397   13.0117   60.9676  C     
12   N        -0.9637   12.7837   60.6677  N     
13   C        -1.3578   12.1986   59.5119  C     
14   C        -0.3980   11.8195   58.5584  C     
15   Cl        2.9843   12.8832   60.4181  Cl    
16   N         0.6112   13.5804   62.1510  N     
17   N         1.4640    6.6498   55.5815  N     
18   C         0.6925    6.2010   54.5940  C     
19   C         0.6227    4.8550   54.3646  C     
20   O        -0.0090    6.9390   53.9129  O     
21   C         0.9528    3.0203   52.8952  C     
22   C         0.9529    4.3587   53.1460  C     
23   C         0.2332    3.9541   55.3499  C     
24   N         0.2490    2.6199   55.1055  N     
25   C         0.6113    2.1615   53.8728  C     
26   O        -0.1262    4.3798   56.4431  O     
27   C        -0.0671    1.7008   56.0883  C     
28   C         0.8667    0.7132   56.4806  C     
29   C        -1.3043    1.7623   56.7700  C     
30   C        -1.5866    0.8871   57.8343  C     
31   C        -0.6410   -0.0790   58.2237  C     
32   C         0.5820   -0.1722   57.5367  C     
33   F        -0.8920   -0.8809   59.2223  F     
34   H         1.1000    9.0710   54.3736  H     
35   H         2.4227    9.3383   59.0272  H     
36   H         2.2085    7.1851   57.9797  H     
37   H        -2.3520   12.0614   59.3265  H     
38   H        -0.7029   11.4006   57.6747  H     
39   H        -0.1115   13.7963   62.7607  H     
40   H         1.5291   13.7454   62.4109  H     
41   H         1.9117    5.9588   56.1011  H     
42   H         1.2249    2.6803   52.0031  H     
43   H         1.2281    4.9708   52.4104  H     
44   H         0.6217    1.1855   53.6686  H     
45   H         1.7687    0.6475   56.0075  H     
46   H        -2.0019    2.4608   56.5045  H     
47   H        -2.4762    0.9688   58.3283  H     
48   H         1.2723   -0.8732   57.8121  H     
@<TRIPOS>BOND
     1    1    2 1
     2    1    6 2
     3    2    3 2
     4    2    7 1
     5    3    4 1
     6    3    8 1
     7    4    5 2
     8    5    6 1
     9    6   17 1
    10    8    9 1
    11    9   10 1
    12    9   14 2
    13   10   11 2
    14   10   15 1
    15   11   12 1
    16   11   16 1
    17   12   13 2
    18   13   14 1
    19   17   18 am
    20   18   19 1
    21   18   20 2
    22   19   22 2
    23   19   23 1
    24   21   22 1
    25   21   25 2
    26   23   24 1
    27   23   26 2
    28   24   25 1
    29   24   27 1
    30   27   28 1
    31   27   29 2
    32   28   32 2
    33   29   30 1
    34   30   31 2
    35   31   32 1
    36   31   33 1
    37    1   34 1
    38    4   35 1
    39    5   36 1
    40   13   37 1
    41   14   38 1
    42   16   39 1
    43   16   40 1
    44   17   41 1
    45   21   42 1
    46   22   43 1
    47   25   44 1
    48   28   45 1
    49   29   46 1
    50   30   47 1
    51   32   48 1
@<TRIPOS>PROPERTY_DATA
  Total_Score	| 10.7058
  Crash		| -1.2048
  Polar		| 2.3180
  FragIndex	| 1
  FragRMSD	| 0.105

