@<TRIPOS>MOLECULE
BindingDB_28032
 58 61 0 0 0
SMALL
NO_CHARGES


@<TRIPOS>ATOM
1    C         1.3313    9.1124   55.2605  C     
2    C         1.4622   10.3430   55.9435  C     
3    C         1.8640   10.3782   57.2938  C     
4    C         2.2014    9.1686   57.9283  C     
5    C         2.0930    7.9404   57.2416  C     
6    C         1.6303    7.8830   55.9041  C     
7    F         1.1974   11.4614   55.3172  F     
8    O         1.9932   11.5894   57.9447  O     
9    C         1.0122   11.9458   58.8490  C     
10   C         1.3757   12.5919   60.0615  C     
11   C         0.3616   12.9921   60.9684  C     
12   N        -0.9409   12.7737   60.6555  N     
13   C        -1.3308   12.1902   59.4975  C     
14   C        -0.3655   11.7820   58.5664  C     
15   Cl        3.0066   12.9024   60.4095  Cl    
16   N         0.6017   13.5947   62.1451  N     
17   N         1.5080    6.6315   55.3567  N     
18   C         0.8043    6.1834   54.3119  C     
19   C         0.6824    4.8293   54.1053  C     
20   O         0.1617    6.9428   53.5844  O     
21   C         1.0065    2.8896   52.7868  C     
22   C         0.9958    4.2638   52.9047  C     
23   C         0.2632    3.9916   55.1545  C     
24   N         0.2740    2.6489   55.0112  N     
25   C         0.6405    2.1085   53.8124  C     
26   O        -0.0824    4.4914   56.2238  O     
27   C        -0.0346    1.7752   56.0486  C     
28   C        -1.2613    1.8637   56.7449  C     
29   C         0.8899    0.7746   56.4342  C     
30   C         0.6009   -0.1075   57.4900  C     
31   C        -0.6202   -0.0007   58.1793  C     
32   C        -1.5515    0.9853   57.8066  C     
33   F        -0.8766   -0.8095   59.1672  F     
34   O         1.4033    5.0560   51.8683  O     
35   C         1.2179    4.7166   50.4644  C     
36   C        -0.2337    4.2758   50.1305  C     
37   C         1.6290    5.9262   49.5831  C     
38   H         1.0318    9.1222   54.2864  H     
39   H         2.5174    9.1774   58.9021  H     
40   H         2.3349    7.0801   57.7361  H     
41   H        -2.3241   12.0712   59.3049  H     
42   H        -0.6673   11.3682   57.6787  H     
43   H        -0.1393   13.8292   62.7284  H     
44   H         1.5092   13.7956   62.4203  H     
45   H         1.9212    5.9219   55.8855  H     
46   H         1.2974    2.4595   51.9399  H     
47   H         0.6500    1.1179   53.6853  H     
48   H        -1.9516    2.5670   56.4784  H     
49   H         1.7838    0.6902   55.9454  H     
50   H         1.2835   -0.8155   57.7564  H     
51   H        -2.4355    1.0731   58.3010  H     
52   H         1.8835    3.8897   50.2050  H     
53   H        -0.5126    3.3955   50.7138  H     
54   H        -0.3045    4.0181   49.0690  H     
55   H        -0.9377    5.0833   50.3470  H     
56   H         1.0322    6.8065   49.8404  H     
57   H         1.4812    5.6944   48.5232  H     
58   H         2.6870    6.1581   49.7302  H     
@<TRIPOS>BOND
     1    1    2 1
     2    1    6 2
     3    2    3 2
     4    2    7 1
     5    3    4 1
     6    3    8 1
     7    4    5 2
     8    5    6 1
     9    6   17 1
    10    8    9 1
    11    9   10 1
    12    9   14 2
    13   10   11 2
    14   10   15 1
    15   11   12 1
    16   11   16 1
    17   12   13 2
    18   13   14 1
    19   17   18 am
    20   18   19 1
    21   18   20 2
    22   19   22 2
    23   19   23 1
    24   21   22 1
    25   21   25 2
    26   22   34 1
    27   23   24 1
    28   23   26 2
    29   24   25 1
    30   24   27 1
    31   27   28 1
    32   27   29 2
    33   28   32 2
    34   29   30 1
    35   30   31 2
    36   31   32 1
    37   31   33 1
    38   34   35 1
    39   35   36 1
    40   35   37 1
    41    1   38 1
    42    4   39 1
    43    5   40 1
    44   13   41 1
    45   14   42 1
    46   16   43 1
    47   16   44 1
    48   17   45 1
    49   21   46 1
    50   25   47 1
    51   28   48 1
    52   29   49 1
    53   30   50 1
    54   32   51 1
    55   35   52 1
    56   36   53 1
    57   36   54 1
    58   36   55 1
    59   37   56 1
    60   37   57 1
    61   37   58 1
@<TRIPOS>PROPERTY_DATA
  Total_Score	| 14.5396
  Crash		| -1.4904
  Polar		| 3.5892
  FragIndex	| 1
  FragRMSD	| 0.279

