@<TRIPOS>MOLECULE
BindingDB_28028
 50 53 0 0 0
SMALL
NO_CHARGES


@<TRIPOS>ATOM
1    C         0.7530    8.0548   56.5474  C     
2    C         0.7735    9.2147   57.3484  C     
3    C         1.8288   10.1593   57.1923  C     
4    C         2.8476    9.8816   56.2546  C     
5    C         2.8464    8.6996   55.4958  C     
6    C         1.7878    7.7823   55.6215  C     
7    F        -0.2051    9.3661   58.2171  F     
8    O         2.0031   11.3304   57.9119  O     
9    C         1.0313   11.8669   58.7384  C     
10   C         1.4125   12.5270   59.9378  C     
11   C         0.3990   12.9347   60.8486  C     
12   N        -0.9033   12.6740   60.5649  N     
13   C        -1.2961   12.0976   59.4012  C     
14   C        -0.3407   11.7713   58.4225  C     
15   C         2.6716   12.7807   60.1873  C     
16   N         0.6489   13.5593   62.0198  N     
17   N         1.8284    6.6023   54.9409  N     
18   C         0.8335    6.0864   54.2292  C     
19   C         0.7651    4.7410   54.0674  C     
20   O        -0.1403    6.7482   53.8967  O     
21   C         0.8043    2.8365   52.6607  C     
22   C         0.9453    4.1806   52.8484  C     
23   C         0.4371    3.9151   55.1338  C     
24   N         0.2769    2.5832   54.9437  N     
25   C         0.4678    2.0502   53.7011  C     
26   O         0.3113    4.4018   56.2568  O     
27   C        -0.0619    1.7470   55.9904  C     
28   C        -1.3065    1.8861   56.6492  C     
29   C         0.8566    0.7845   56.4752  C     
30   C         0.5473   -0.0002   57.6024  C     
31   C        -0.6852    0.1679   58.2615  C     
32   C        -1.6155    1.1069   57.7773  C     
33   F        -0.9635   -0.5457   59.3170  F     
34   C         3.8171   13.0286   60.4171  C     
35   H         0.0014    7.3749   56.6763  H     
36   H         3.6144   10.5436   56.1246  H     
37   H         3.6150    8.5153   54.8449  H     
38   H        -2.2884   11.9067   59.2517  H     
39   H        -0.6204   11.3938   57.5070  H     
40   H        -0.0790   13.7748   62.6269  H     
41   H         1.5632   13.7565   62.2828  H     
42   H         2.6154    6.0489   55.0724  H     
43   H         0.9346    2.4431   51.7559  H     
44   H         1.1667    4.7457   52.0594  H     
45   H         0.3508    1.0742   53.5383  H     
46   H        -1.9907    2.5687   56.3141  H     
47   H         1.7634    0.6671   56.0207  H     
48   H         1.2273   -0.6806   57.9500  H     
49   H        -2.5138    1.2370   58.2504  H     
50   H         4.7012   13.2211   60.5943  H     
@<TRIPOS>BOND
     1    1    2 1
     2    1    6 2
     3    2    3 2
     4    2    7 1
     5    3    4 1
     6    3    8 1
     7    4    5 2
     8    5    6 1
     9    6   17 1
    10    8    9 1
    11    9   10 1
    12    9   14 2
    13   10   11 2
    14   10   15 1
    15   11   12 1
    16   11   16 1
    17   12   13 2
    18   13   14 1
    19   15   34 3
    20   17   18 am
    21   18   19 1
    22   18   20 2
    23   19   22 2
    24   19   23 1
    25   21   22 1
    26   21   25 2
    27   23   24 1
    28   23   26 2
    29   24   25 1
    30   24   27 1
    31   27   28 1
    32   27   29 2
    33   28   32 2
    34   29   30 1
    35   30   31 2
    36   31   32 1
    37   31   33 1
    38    1   35 1
    39    4   36 1
    40    5   37 1
    41   13   38 1
    42   14   39 1
    43   16   40 1
    44   16   41 1
    45   17   42 1
    46   21   43 1
    47   22   44 1
    48   25   45 1
    49   28   46 1
    50   29   47 1
    51   30   48 1
    52   32   49 1
    53   34   50 1
@<TRIPOS>PROPERTY_DATA
  Total_Score	| 10.9842
  Crash		| -1.7150
  Polar		| 2.6549
  FragIndex	| 1
  FragRMSD	| 1.000

