@<TRIPOS>MOLECULE
BindingDB_28033
 56 59 0 0 0
SMALL
NO_CHARGES


@<TRIPOS>ATOM
1    C         1.3981    9.0342   55.2801  C     
2    C         1.4946   10.2977   55.8970  C     
3    C         1.8841   10.4052   57.2486  C     
4    C         2.2412    9.2295   57.9528  C     
5    C         2.1736    7.9666   57.3305  C     
6    C         1.6955    7.8493   56.0069  C     
7    F         1.2018   11.3647   55.2045  F     
8    O         1.9327   11.6358   57.8416  O     
9    C         0.9386   11.9018   58.7622  C     
10   C         1.2824   12.5344   59.9826  C     
11   C         0.2598   12.8759   60.8976  C     
12   N        -1.0345   12.6193   60.5790  N     
13   C        -1.4078   12.0400   59.4119  C     
14   C        -0.4277   11.6791   58.4730  C     
15   Cl        2.9048   12.8611   60.3493  Cl    
16   N         0.5037   13.4653   62.0783  N     
17   N         1.5349    6.5882   55.4990  N     
18   C         0.6990    6.2112   54.5355  C     
19   C         0.5270    4.8848   54.2771  C     
20   O        -0.0196    7.0087   53.9374  O     
21   C         0.6443    3.0403   52.8014  C     
22   C         0.7479    4.3846   53.0302  C     
23   C         0.1636    4.0073   55.2955  C     
24   N         0.0770    2.6756   55.0607  N     
25   C         0.3086    2.2058   53.8016  C     
26   O        -0.0372    4.4469   56.4268  O     
27   C        -0.1734    1.7637   56.0717  C     
28   C        -1.3625    1.8222   56.8357  C     
29   C         0.8015    0.7992   56.4189  C     
30   C         0.5822   -0.0985   57.4782  C     
31   C        -0.5997   -0.0193   58.2357  C     
32   C        -1.5704    0.9423   57.9136  C     
33   F        -0.7865   -0.8296   59.2421  F     
34   O         1.2394    5.1492   52.0355  O     
35   C         0.3889    5.4502   50.9151  C     
36   C         0.4777    4.4597   49.7286  C     
37   O        -0.3072    4.9551   48.6504  O     
38   H         1.1005    8.9752   54.3036  H     
39   H         2.5458    9.2937   58.9273  H     
40   H         2.4210    7.1260   57.8673  H     
41   H        -2.3978   11.8721   59.2251  H     
42   H        -0.7120   11.2499   57.5911  H     
43   H        -0.2308   13.6763   62.6771  H     
44   H         1.4136   13.6681   62.3382  H     
45   H         1.9754    5.8707   55.9913  H     
46   H         0.8312    2.6696   51.8960  H     
47   H         0.2615    1.2330   53.6002  H     
48   H        -2.0753    2.5182   56.6152  H     
49   H         1.6844    0.7522   55.9075  H     
50   H         1.2924   -0.7939   57.7173  H     
51   H        -2.4202    1.0359   58.4760  H     
52   H        -0.6565    5.5342   51.2366  H     
53   H         0.6994    6.4308   50.5452  H     
54   H         1.5126    4.3636   49.3837  H     
55   H         0.1097    3.4799   50.0411  H     
56   H        -0.0436    4.4024   47.8664  H     
@<TRIPOS>BOND
     1    1    2 1
     2    1    6 2
     3    2    3 2
     4    2    7 1
     5    3    4 1
     6    3    8 1
     7    4    5 2
     8    5    6 1
     9    6   17 1
    10    8    9 1
    11    9   10 1
    12    9   14 2
    13   10   11 2
    14   10   15 1
    15   11   12 1
    16   11   16 1
    17   12   13 2
    18   13   14 1
    19   17   18 am
    20   18   19 1
    21   18   20 2
    22   19   22 2
    23   19   23 1
    24   21   22 1
    25   21   25 2
    26   22   34 1
    27   23   24 1
    28   23   26 2
    29   24   25 1
    30   24   27 1
    31   27   28 1
    32   27   29 2
    33   28   32 2
    34   29   30 1
    35   30   31 2
    36   31   32 1
    37   31   33 1
    38   34   35 1
    39   35   36 1
    40   36   37 1
    41    1   38 1
    42    4   39 1
    43    5   40 1
    44   13   41 1
    45   14   42 1
    46   16   43 1
    47   16   44 1
    48   17   45 1
    49   21   46 1
    50   25   47 1
    51   28   48 1
    52   29   49 1
    53   30   50 1
    54   32   51 1
    55   35   52 1
    56   35   53 1
    57   36   54 1
    58   36   55 1
    59   37   56 1
@<TRIPOS>PROPERTY_DATA
  Total_Score	| 14.0871
  Crash		| -1.6135
  Polar		| 4.7433
  FragIndex	| 1
  FragRMSD	| 0.293

