@<TRIPOS>MOLECULE
BindingDB_24440
 50 54 0 0 0
SMALL
NO_CHARGES


@<TRIPOS>ATOM
1    C         0.9364   11.9962   58.7771  C     
2    C        -1.4429   12.1222   59.3606  C     
3    C        -0.4252   11.7663   58.4500  C     
4    N        -1.1355   12.6997   60.5532  N     
5    C         1.2000   12.6212   60.0143  C     
6    C         0.1567   12.9473   60.8822  C     
7    C         2.3454   13.0233   60.6322  C     
8    C         2.0071   13.5463   61.8153  C     
9    N         0.6955   13.4967   61.9778  N     
10   O         1.9948   11.6927   57.9482  O     
11   C         1.9292   10.4800   57.3159  C     
12   C         1.3431    9.1709   55.3330  C     
13   C         1.4976   10.4167   55.9793  C     
14   C         2.2996    9.2877   57.9733  C     
15   C         2.1670    8.0451   57.3305  C     
16   C         1.6433    7.9633   56.0177  C     
17   F         1.2054   11.4991   55.3179  F     
18   N         1.4606    6.6975   55.5212  N     
19   C         0.7157    6.2320   54.5135  C     
20   O         0.1427    7.0138   53.7509  O     
21   C         0.5890    4.8790   54.3118  C     
22   C         0.7899    3.0113   52.8568  C     
23   C         0.8563    4.3454   53.0901  C     
24   C         0.2141    3.9898   55.3242  C     
25   C         0.4647    2.1758   53.8528  C     
26   O        -0.0360    4.4225   56.4549  O     
27   N         0.1867    2.6582   55.1025  N     
28   C        -0.1051    1.7531   56.1110  C     
29   C         0.8177    0.7356   56.4673  C     
30   C        -1.3165    1.8372   56.8382  C     
31   C        -1.5984    0.9459   57.8896  C     
32   C        -0.6712   -0.0565   58.2330  C     
33   C         0.5394   -0.1586   57.5219  C     
34   F        -0.9265   -0.8742   59.2188  F     
35   H        -2.4234   11.9624   59.1274  H     
36   H        -0.6824   11.3448   57.5545  H     
37   H         3.2673   12.9544   60.2673  H     
38   H         2.6444   13.9170   62.4810  H     
39   H         0.2013   13.8071   62.7521  H     
40   H         1.0141    9.1569   54.3722  H     
41   H         2.6383    9.3208   58.9309  H     
42   H         2.4303    7.1947   57.8361  H     
43   H         1.8880    6.0059   56.0534  H     
44   H         0.9725    2.6566   51.9454  H     
45   H         1.1290    4.9290   52.3325  H     
46   H         0.4160    1.2030   53.6644  H     
47   H         1.7038    0.6501   55.9697  H     
48   H        -1.9985    2.5626   56.6101  H     
49   H        -2.4781    1.0343   58.4030  H     
50   H         1.2187   -0.8853   57.7684  H     
@<TRIPOS>BOND
     1    1    3 1
     2    1    5 2
     3    1   10 1
     4    2    3 2
     5    2    4 1
     6    4    6 2
     7    5    6 1
     8    5    7 1
     9    6    9 1
    10    7    8 2
    11    8    9 1
    12   10   11 1
    13   11   13 2
    14   11   14 1
    15   12   13 1
    16   12   16 2
    17   13   17 1
    18   14   15 2
    19   15   16 1
    20   16   18 1
    21   18   19 am
    22   19   20 2
    23   19   21 1
    24   21   23 2
    25   21   24 1
    26   22   23 1
    27   22   25 2
    28   24   26 2
    29   24   27 1
    30   25   27 1
    31   27   28 1
    32   28   29 2
    33   28   30 1
    34   29   33 1
    35   30   31 2
    36   31   32 1
    37   32   33 2
    38   32   34 1
    39    2   35 1
    40    3   36 1
    41    7   37 1
    42    8   38 1
    43    9   39 1
    44   12   40 1
    45   14   41 1
    46   15   42 1
    47   18   43 1
    48   22   44 1
    49   23   45 1
    50   25   46 1
    51   29   47 1
    52   30   48 1
    53   31   49 1
    54   33   50 1
@<TRIPOS>PROPERTY_DATA
  Total_Score	| 10.8854
  Crash		| -1.1390
  Polar		| 2.1499
  FragIndex	| 1
  FragRMSD	| 0.128

