@<TRIPOS>MOLECULE
BindingDB_28029
 57 60 0 0 0
SMALL
NO_CHARGES


@<TRIPOS>ATOM
1    C         1.4579    9.1757   55.4991  C     
2    C         1.6545   10.4329   56.1064  C     
3    C         2.0239   10.5130   57.4659  C     
4    C         2.2533    9.3227   58.1779  C     
5    C         2.0778    8.0643   57.5662  C     
6    C         1.6420    7.9779   56.2264  C     
7    F         1.4512   11.5134   55.4089  F     
8    O         2.1280   11.7467   58.0810  O     
9    C         1.1223   12.1166   58.9574  C     
10   C         1.3755   12.7820   60.2121  C     
11   C         0.1985   12.9868   60.9905  C     
12   N        -1.0404   12.6348   60.6029  N     
13   C        -1.2852   12.0683   59.4163  C     
14   C        -0.2133   11.8273   58.5572  C     
15   C         2.7501   13.1107   60.8277  C     
16   N         0.2297   13.5214   62.1989  N     
17   N         1.4464    6.7195   55.7087  N     
18   C         0.7125    6.3389   54.6648  C     
19   C         0.5901    5.0055   54.3879  C     
20   O         0.0271    7.1287   54.0186  O     
21   C         0.7178    3.2268   52.8176  C     
22   C         0.7905    4.5536   53.1259  C     
23   C         0.2431    4.0762   55.3610  C     
24   N         0.1895    2.7548   55.0622  N     
25   C         0.4372    2.3360   53.7873  C     
26   O         0.0127    4.4627   56.5055  O     
27   C        -0.0798    1.8038   56.0282  C     
28   C         0.8483    0.7694   56.2943  C     
29   C        -1.2587    1.8717   56.8095  C     
30   C        -1.4894    0.9455   57.8398  C     
31   C        -0.5508   -0.0681   58.1098  C     
32   C         0.6197   -0.1530   57.3307  C     
33   F        -0.7538   -0.9215   59.0794  F     
34   C         3.9610   13.0950   59.8354  C     
35   C         2.9078   14.4078   61.7598  C     
36   H         1.1906    9.1439   54.5131  H     
37   H         2.5252    9.3603   59.1584  H     
38   H         2.2389    7.2108   58.1152  H     
39   H        -2.2422   11.8303   59.1530  H     
40   H        -0.4192   11.4011   57.6519  H     
41   H         2.9435   12.2769   61.5111  H     
42   H        -0.5520   13.6339   62.7418  H     
43   H         1.0863   13.7806   62.5003  H     
44   H         1.8431    5.9923   56.2261  H     
45   H         0.8931    2.9129   51.8895  H     
46   H         1.0121    5.1924   52.3956  H     
47   H         0.3982    1.3666   53.5462  H     
48   H         1.7134    0.7097   55.7543  H     
49   H        -1.9479    2.6046   56.6301  H     
50   H        -2.3400    1.0277   58.4082  H     
51   H         1.3070   -0.8848   57.5246  H     
52   H         4.1266   12.0971   59.4514  H     
53   H         4.8978   13.3873   60.3168  H     
54   H         3.7868   13.7798   59.0100  H     
55   H         2.3475   15.2442   61.3162  H     
56   H         3.9590   14.7226   61.8599  H     
57   H         2.5619   14.2829   62.8095  H     
@<TRIPOS>BOND
     1    1    2 1
     2    1    6 2
     3    2    3 2
     4    2    7 1
     5    3    4 1
     6    3    8 1
     7    4    5 2
     8    5    6 1
     9    6   17 1
    10    8    9 1
    11    9   10 1
    12    9   14 2
    13   10   11 2
    14   10   15 1
    15   11   12 1
    16   11   16 1
    17   12   13 2
    18   13   14 1
    19   15   34 1
    20   15   35 1
    21   17   18 am
    22   18   19 1
    23   18   20 2
    24   19   22 2
    25   19   23 1
    26   21   22 1
    27   21   25 2
    28   23   24 1
    29   23   26 2
    30   24   25 1
    31   24   27 1
    32   27   28 1
    33   27   29 2
    34   28   32 2
    35   29   30 1
    36   30   31 2
    37   31   32 1
    38   31   33 1
    39    1   36 1
    40    4   37 1
    41    5   38 1
    42   13   39 1
    43   14   40 1
    44   15   41 1
    45   16   42 1
    46   16   43 1
    47   17   44 1
    48   21   45 1
    49   22   46 1
    50   25   47 1
    51   28   48 1
    52   29   49 1
    53   30   50 1
    54   32   51 1
    55   34   52 1
    56   34   53 1
    57   34   54 1
    58   35   55 1
    59   35   56 1
    60   35   57 1
@<TRIPOS>PROPERTY_DATA
  Total_Score	| 7.0725
  Crash		| -5.1560
  Polar		| 2.1315
  FragIndex	| 1
  FragRMSD	| 0.251

