@<TRIPOS>MOLECULE
BindingDB_28031
 55 58 0 0 0
SMALL
NO_CHARGES


@<TRIPOS>ATOM
1    C         0.8084    7.9904   56.5448  C     
2    C         0.7849    9.1420   57.3519  C     
3    C         1.7613   10.1609   57.1893  C     
4    C         2.8206    9.9104   56.2866  C     
5    C         2.8800    8.7271   55.5234  C     
6    C         1.8413    7.7794   55.6042  C     
7    F        -0.1417    9.1942   58.2658  F     
8    O         1.8233   11.3807   57.8448  O     
9    C         0.8723   11.8549   58.7249  C     
10   C         1.2901   12.5017   59.9137  C     
11   C         0.3133   12.9334   60.8436  C     
12   N        -1.0029   12.7552   60.5681  N     
13   C        -1.4390   12.2071   59.4106  C     
14   C        -0.5112   11.7830   58.4446  C     
15   Cl        2.9411   12.7549   60.2150  Cl    
16   N         0.6261   13.4990   62.0226  N     
17   N         1.9013    6.6177   54.8868  N     
18   C         0.9048    6.1007   54.1739  C     
19   C         0.8398    4.7546   53.9979  C     
20   O        -0.0788    6.7588   53.8562  O     
21   C         1.0542    2.8235   52.6486  C     
22   C         1.0855    4.1882   52.7888  C     
23   C         0.4828    3.9316   55.0634  C     
24   N         0.3988    2.5897   54.8982  N     
25   C         0.6942    2.0440   53.6844  C     
26   O         0.2807    4.4275   56.1707  O     
27   C         0.0442    1.7469   55.9398  C     
28   C         0.9223    0.7288   56.3808  C     
29   C        -1.1907    1.9020   56.6141  C     
30   C        -1.5253    1.0864   57.7114  C     
31   C        -0.6322    0.0904   58.1468  C     
32   C         0.5884   -0.0922   57.4735  C     
33   F        -0.9295   -0.6601   59.1718  F     
34   O         1.4793    4.9309   51.7331  O     
35   C         0.6225    4.8782   50.5735  C     
36   C         1.4629    5.1849   49.3185  C     
37   H         0.0867    7.2760   56.6746  H     
38   H         3.5732   10.5939   56.1859  H     
39   H         3.6690    8.5739   54.8878  H     
40   H        -2.4417   12.1075   59.2449  H     
41   H        -0.8404   11.3786   57.5667  H     
42   H        -0.0747   13.7594   62.6427  H     
43   H         1.5541   13.6360   62.2633  H     
44   H         2.6940    6.0693   55.0093  H     
45   H         1.2852    2.4038   51.7768  H     
46   H         0.6524    1.0588   53.5404  H     
47   H         1.8180    0.5873   55.9115  H     
48   H        -1.8512    2.6205   56.3117  H     
49   H        -2.4152    1.2284   58.1950  H     
50   H         1.2390   -0.8180   57.7798  H     
51   H         0.1723    3.8880   50.4428  H     
52   H        -0.1763    5.6200   50.6648  H     
53   H         1.8783    6.1943   49.3744  H     
54   H         0.8425    5.1078   48.4236  H     
55   H         2.2837    4.4677   49.2347  H     
@<TRIPOS>BOND
     1    1    2 1
     2    1    6 2
     3    2    3 2
     4    2    7 1
     5    3    4 1
     6    3    8 1
     7    4    5 2
     8    5    6 1
     9    6   17 1
    10    8    9 1
    11    9   10 1
    12    9   14 2
    13   10   11 2
    14   10   15 1
    15   11   12 1
    16   11   16 1
    17   12   13 2
    18   13   14 1
    19   17   18 am
    20   18   19 1
    21   18   20 2
    22   19   22 2
    23   19   23 1
    24   21   22 1
    25   21   25 2
    26   22   34 1
    27   23   24 1
    28   23   26 2
    29   24   25 1
    30   24   27 1
    31   27   28 1
    32   27   29 2
    33   28   32 2
    34   29   30 1
    35   30   31 2
    36   31   32 1
    37   31   33 1
    38   34   35 1
    39   35   36 1
    40    1   37 1
    41    4   38 1
    42    5   39 1
    43   13   40 1
    44   14   41 1
    45   16   42 1
    46   16   43 1
    47   17   44 1
    48   21   45 1
    49   25   46 1
    50   28   47 1
    51   29   48 1
    52   30   49 1
    53   32   50 1
    54   35   51 1
    55   35   52 1
    56   36   53 1
    57   36   54 1
    58   36   55 1
@<TRIPOS>PROPERTY_DATA
  Total_Score	| 13.6519
  Crash		| -1.5537
  Polar		| 4.1492
  FragIndex	| 1
  FragRMSD	| 0.968

