@<TRIPOS>MOLECULE
BindingDB_28023
 48 51 0 0 0
SMALL
NO_CHARGES


@<TRIPOS>ATOM
1    C         1.3926    9.1683   55.2964  C     
2    C         1.5131   10.4234   55.9296  C     
3    C         1.9051   10.4973   57.2847  C     
4    C         2.2319    9.3075   57.9714  C     
5    C         2.1161    8.0590   57.3351  C     
6    C         1.6711    7.9659   55.9991  C     
7    F         1.2489   11.5130   55.2565  F     
8    O         1.9890   11.7139   57.9135  O     
9    C         0.9797   12.0056   58.8048  C     
10   C         1.3382   12.5808   60.0424  C     
11   C         0.3320   12.9480   60.9583  C     
12   N        -0.9768   12.7453   60.6415  N     
13   C        -1.3623   12.2074   59.4559  C     
14   C        -0.3940   11.8406   58.5059  C     
15   N         1.5465    6.6950   55.4999  N     
16   C         0.7360    6.2290   54.5523  C     
17   C         0.6355    4.8804   54.3392  C     
18   O         0.0004    6.9644   53.9006  O     
19   C         0.6614    3.0409   52.8359  C     
20   C         0.8096    4.3729   53.0943  C     
21   C         0.3042    3.9948   55.3608  C     
22   N         0.1915    2.6664   55.1085  N     
23   C         0.3546    2.1989   53.8391  C     
24   O         0.1674    4.4196   56.5116  O     
25   C        -0.1129    1.7633   56.1139  C     
26   C         0.8026    0.7502   56.4912  C     
27   C        -1.3413    1.8542   56.8093  C     
28   C        -1.6425    0.9797   57.8697  C     
29   C        -0.7180   -0.0186   58.2378  C     
30   C         0.4987   -0.1388   57.5388  C     
31   F        -0.9566   -0.8144   59.2407  F     
32   N         0.6497   13.4715   62.1540  N     
33   H         1.1100    9.1434   54.3168  H     
34   H         2.5352    9.3470   58.9458  H     
35   H         2.3273    7.2101   57.8694  H     
36   H         2.3236   12.7235   60.2772  H     
37   H        -2.3551   12.0609   59.2564  H     
38   H        -0.6899   11.4544   57.6086  H     
39   H         2.0460    6.0193   55.9907  H     
40   H         0.7576    2.6999   51.9082  H     
41   H         1.0318    4.9723   52.3325  H     
42   H         0.2323    1.2311   53.6297  H     
43   H         1.7087    0.6815   56.0193  H     
44   H        -2.0123    2.5846   56.5608  H     
45   H        -2.5213    1.0903   58.3822  H     
46   H         1.1697   -0.8715   57.7975  H     
47   H        -0.0564   13.7073   62.7708  H     
48   H         1.5770   13.6169   62.4054  H     
@<TRIPOS>BOND
     1    1    2 1
     2    1    6 2
     3    2    3 2
     4    2    7 1
     5    3    4 1
     6    3    8 1
     7    4    5 2
     8    5    6 1
     9    6   15 1
    10    8    9 1
    11    9   10 1
    12    9   14 2
    13   10   11 2
    14   11   12 1
    15   11   32 1
    16   12   13 2
    17   13   14 1
    18   15   16 am
    19   16   17 1
    20   16   18 2
    21   17   20 2
    22   17   21 1
    23   19   20 1
    24   19   23 2
    25   21   22 1
    26   21   24 2
    27   22   23 1
    28   22   25 1
    29   25   26 1
    30   25   27 2
    31   26   30 2
    32   27   28 1
    33   28   29 2
    34   29   30 1
    35   29   31 1
    36    1   33 1
    37    4   34 1
    38    5   35 1
    39   10   36 1
    40   13   37 1
    41   14   38 1
    42   15   39 1
    43   19   40 1
    44   20   41 1
    45   23   42 1
    46   26   43 1
    47   27   44 1
    48   28   45 1
    49   30   46 1
    50   32   47 1
    51   32   48 1
@<TRIPOS>PROPERTY_DATA
  Total_Score	| 10.5043
  Crash		| -1.1952
  Polar		| 2.3639
  FragIndex	| 1
  FragRMSD	| 0.122

