@<TRIPOS>MOLECULE
BindingDB_28024
 70 74 0 0 0
SMALL
NO_CHARGES


@<TRIPOS>ATOM
1    C         1.4074    9.1275   55.3676  C     
2    C         1.5440   10.3708   56.0217  C     
3    C         1.9546   10.4215   57.3645  C     
4    C         2.2814    9.2269   58.0360  C     
5    C         2.1586    7.9888   57.3771  C     
6    C         1.6870    7.9162   56.0473  C     
7    F         1.2807   11.4786   55.3812  F     
8    O         2.0856   11.6454   57.9636  O     
9    C         1.1754   12.0236   58.9214  C     
10   C         1.6659   12.5337   60.1648  C     
11   C         0.6950   13.0189   61.0938  C     
12   N        -0.6273   12.9712   60.7678  N     
13   C        -1.1081   12.4848   59.6039  C     
14   C        -0.2181   12.0264   58.6355  C     
15   C         3.1640   12.5006   60.3387  C     
16   N         3.8842   13.6094   61.0448  N     
17   C         4.2024   13.2837   62.4718  C     
18   C         5.5276   12.5098   62.6944  C     
19   N         6.6853   13.1069   61.9770  N     
20   C         6.3740   13.3055   60.5297  C     
21   C         5.0880   14.1507   60.3165  C     
22   C         7.2484   14.3130   62.6475  C     
23   N         0.8993   13.6216   62.2780  N     
24   N         1.5496    6.6611   55.5170  N     
25   C         0.7553    6.2428   54.5395  C     
26   C         0.6216    4.9034   54.3264  C     
27   O         0.0028    6.9914   53.9352  O     
28   C         0.6783    3.0652   52.8257  C     
29   C         0.7925    4.3983   53.0822  C     
30   C         0.2974    4.0204   55.3529  C     
31   N         0.1793    2.6934   55.0974  N     
32   C         0.3729    2.2240   53.8278  C     
33   O         0.1246    4.4510   56.4908  O     
34   C        -0.1223    1.7875   56.0975  C     
35   C        -1.3439    1.8638   56.8125  C     
36   C         0.8081    0.7843   56.4617  C     
37   C         0.5332   -0.1069   57.5158  C     
38   C        -0.6743   -0.0022   58.2287  C     
39   C        -1.6147    0.9816   57.8728  C     
40   F        -0.9098   -0.8022   59.2286  F     
41   H         1.1165    9.1263   54.3931  H     
42   H         2.5981    9.2594   59.0101  H     
43   H         2.3912    7.1330   57.8885  H     
44   H        -2.1159   12.4842   59.4336  H     
45   H        -0.5717   11.7124   57.7239  H     
46   H         3.4188   11.5669   60.8351  H     
47   H         3.5733   12.4208   59.3333  H     
48   H         3.2201   14.3833   61.0647  H     
49   H         4.2571   14.2269   63.0242  H     
50   H         3.3748   12.6990   62.8874  H     
51   H         5.7422   12.4461   63.7622  H     
52   H         5.4065   11.4863   62.3475  H     
53   H         7.4239   12.4045   62.0211  H     
54   H         7.2162   13.7827   60.0170  H     
55   H         6.2300   12.3263   60.0660  H     
56   H         4.9058   14.2292   59.2449  H     
57   H         5.2699   15.1709   60.6634  H     
58   H         8.1835   14.6098   62.1559  H     
59   H         7.4870   14.0767   63.6864  H     
60   H         6.5488   15.1606   62.6367  H     
61   H         0.1357   13.8909   62.8196  H     
62   H         1.7890   13.8034   62.6125  H     
63   H         2.0254    5.9612   55.9936  H     
64   H         0.8219    2.7215   51.9009  H     
65   H         1.0062    4.9978   52.3166  H     
66   H         0.2805    1.2549   53.6188  H     
67   H        -2.0387    2.5740   56.5650  H     
68   H         1.6959    0.7076   55.9630  H     
69   H         1.2164   -0.8239   57.7621  H     
70   H        -2.4937    1.0684   58.3800  H     
@<TRIPOS>BOND
     1    1    2 1
     2    1    6 2
     3    2    3 2
     4    2    7 1
     5    3    4 1
     6    3    8 1
     7    4    5 2
     8    5    6 1
     9    6   24 1
    10    8    9 1
    11    9   10 1
    12    9   14 2
    13   10   11 2
    14   10   15 1
    15   11   12 1
    16   11   23 1
    17   12   13 2
    18   13   14 1
    19   15   16 1
    20   16   17 1
    21   16   21 1
    22   17   18 1
    23   18   19 1
    24   19   20 1
    25   19   22 1
    26   20   21 1
    27   24   25 am
    28   25   26 1
    29   25   27 2
    30   26   29 2
    31   26   30 1
    32   28   29 1
    33   28   32 2
    34   30   31 1
    35   30   33 2
    36   31   32 1
    37   31   34 1
    38   34   35 1
    39   34   36 2
    40   35   39 2
    41   36   37 1
    42   37   38 2
    43   38   39 1
    44   38   40 1
    45    1   41 1
    46    4   42 1
    47    5   43 1
    48   13   44 1
    49   14   45 1
    50   15   46 1
    51   15   47 1
    52   16   48 1
    53   17   49 1
    54   17   50 1
    55   18   51 1
    56   18   52 1
    57   19   53 1
    58   20   54 1
    59   20   55 1
    60   21   56 1
    61   21   57 1
    62   22   58 1
    63   22   59 1
    64   22   60 1
    65   23   61 1
    66   23   62 1
    67   24   63 1
    68   28   64 1
    69   29   65 1
    70   32   66 1
    71   35   67 1
    72   36   68 1
    73   37   69 1
    74   39   70 1
@<TRIPOS>PROPERTY_DATA
  Total_Score	| 10.1586
  Crash		| -4.3276
  Polar		| 1.9915
  FragIndex	| 1
  FragRMSD	| 0.214

