@<TRIPOS>MOLECULE
BindingDB_24446
 49 53 0 0 0
SMALL
NO_CHARGES


@<TRIPOS>ATOM
1    C         0.9343   12.0057   58.7964  C     
2    C        -1.4419   12.1127   59.3868  C     
3    C        -0.4223   11.7703   58.4682  C     
4    N        -1.1335   12.6828   60.5835  N     
5    C         1.2036   12.6322   60.0303  C     
6    C         0.1578   12.9348   60.8994  C     
7    C         2.3431   13.0366   60.6576  C     
8    C         1.9976   13.5430   61.8480  C     
9    N         0.6887   13.4786   61.9999  N     
10   O         1.9930   11.6906   57.9817  O     
11   C         1.9149   10.4614   57.3693  C     
12   C         1.3173    9.1480   55.3955  C     
13   C         1.4851   10.3909   56.0278  C     
14   C         2.2324    9.2702   58.0486  C     
15   C         2.0764    8.0260   57.4091  C     
16   C         1.5827    7.9351   56.0852  C     
17   F         1.1945   11.4792   55.3583  F     
18   N         1.3801    6.6642   55.6025  N     
19   C         0.7146    6.2117   54.5375  C     
20   O         0.1945    6.9673   53.7164  O     
21   C         0.5962    4.8558   54.3445  C     
22   C         0.8580    2.9821   52.8929  C     
23   C         0.9019    4.3266   53.1277  C     
24   C         0.2281    3.9645   55.3547  C     
25   C         0.5302    2.1511   53.8965  C     
26   O         0.0508    4.4244   56.4892  O     
27   N         0.2196    2.6282   55.1381  N     
28   C        -0.0808    1.7463   56.1421  C     
29   C         0.8181    0.7277   56.5487  C     
30   C         0.4986   -0.0902   57.6341  C     
31   C        -0.7445    0.0499   58.2858  C     
32   C        -1.6419    1.0359   57.8223  C     
33   N        -1.2699    1.8457   56.8091  N     
34   H        -2.4208   11.9493   59.1591  H     
35   H        -0.6841   11.3512   57.5728  H     
36   H         3.2706   12.9664   60.3013  H     
37   H         2.6295   13.9032   62.5212  H     
38   H         0.1878   13.7716   62.7838  H     
39   H         0.9811    9.1363   54.4383  H     
40   H         2.5547    9.3125   59.0056  H     
41   H         2.2942    7.1745   57.9375  H     
42   H         1.7201    5.9496   56.1831  H     
43   H         1.0461    2.6098   51.9897  H     
44   H         1.1731    4.9205   52.3718  H     
45   H         0.4625    1.1759   53.6948  H     
46   H         1.7298    0.6403   56.0932  H     
47   H         1.1686   -0.7883   57.9654  H     
48   H        -0.9809   -0.5442   59.0772  H     
49   H        -2.5443    1.1623   58.2782  H     
@<TRIPOS>BOND
     1    1    3 1
     2    1    5 2
     3    1   10 1
     4    2    3 2
     5    2    4 1
     6    4    6 2
     7    5    6 1
     8    5    7 1
     9    6    9 1
    10    7    8 2
    11    8    9 1
    12   10   11 1
    13   11   13 2
    14   11   14 1
    15   12   13 1
    16   12   16 2
    17   13   17 1
    18   14   15 2
    19   15   16 1
    20   16   18 1
    21   18   19 am
    22   19   20 2
    23   19   21 1
    24   21   23 2
    25   21   24 1
    26   22   23 1
    27   22   25 2
    28   24   26 2
    29   24   27 1
    30   25   27 1
    31   27   28 1
    32   28   29 1
    33   28   33 2
    34   29   30 2
    35   30   31 1
    36   31   32 2
    37   32   33 1
    38    2   34 1
    39    3   35 1
    40    7   36 1
    41    8   37 1
    42    9   38 1
    43   12   39 1
    44   14   40 1
    45   15   41 1
    46   18   42 1
    47   22   43 1
    48   23   44 1
    49   25   45 1
    50   29   46 1
    51   30   47 1
    52   31   48 1
    53   32   49 1
@<TRIPOS>PROPERTY_DATA
  Total_Score	| 10.7513
  Crash		| -0.9219
  Polar		| 2.2018
  FragIndex	| 1
  FragRMSD	| 0.134

