@<TRIPOS>MOLECULE
BindingDB_28027
 52 55 0 0 0
SMALL
NO_CHARGES


@<TRIPOS>ATOM
1    C         1.2899    7.9059   57.4061  C     
2    C         1.6196    9.1169   58.0546  C     
3    C         1.6632   10.3263   57.3178  C     
4    C         1.5374   10.2545   55.9180  C     
5    C         1.2232    9.0402   55.2732  C     
6    C         1.0662    7.8375   56.0046  C     
7    F         1.8534    9.1228   59.3431  F     
8    O         1.7958   11.5717   57.8838  O     
9    C         0.8651   12.0085   58.8149  C     
10   C         1.3213   12.6707   59.9948  C     
11   C         0.3403   13.0733   60.9454  C     
12   N        -0.9810   12.9022   60.6811  N     
13   C        -1.4444   12.3470   59.5383  C     
14   C        -0.5216   11.8743   58.5865  C     
15   C         2.7912   12.8409   60.1609  C     
16   N         0.6116   13.6204   62.1472  N     
17   N         0.7256    6.6091   55.4812  N     
18   C         0.8330    6.0661   54.2502  C     
19   C         0.6269    4.7076   53.9951  C     
20   O         1.1615    6.8082   53.3181  O     
21   C         0.2736    2.9109   52.4419  C     
22   C         0.5037    4.2317   52.7243  C     
23   C         0.5517    3.7405   54.9998  C     
24   N         0.2258    2.4495   54.7408  N     
25   C         0.0908    2.0435   53.4555  C     
26   O         0.8324    4.0482   56.1616  O     
27   C        -0.0385    1.5493   55.7546  C     
28   C         0.8718    0.5384   56.1351  C     
29   C        -1.2567    1.6521   56.4668  C     
30   C        -1.5176    0.8414   57.5846  C     
31   C        -0.5648   -0.1103   57.9994  C     
32   C         0.6188   -0.2769   57.2580  C     
33   F        -0.7860   -0.8368   59.0614  F     
34   O         3.2494   13.7527   61.1672  O     
35   H         1.2270    7.0570   57.9736  H     
36   H         1.6503   11.1008   55.3493  H     
37   H         1.0725    9.0605   54.2714  H     
38   H        -2.4505   12.2575   59.3806  H     
39   H        -0.8698   11.4289   57.7338  H     
40   H         3.2209   11.8777   60.4246  H     
41   H         3.2300   13.1407   59.2052  H     
42   H        -0.1159   13.8162   62.7633  H     
43   H         1.5123   13.8329   62.3979  H     
44   H         0.4233    5.9783   56.1613  H     
45   H         0.1885    2.5974   51.5065  H     
46   H         0.5394    4.8490   51.9406  H     
47   H        -0.1439    1.0988   53.2357  H     
48   H         1.7419    0.4071   55.6118  H     
49   H        -1.9572    2.3396   56.1815  H     
50   H        -2.3864    0.9594   58.1080  H     
51   H         1.3021   -0.9820   57.5425  H     
52   H         3.3223   13.1976   61.9779  H     
@<TRIPOS>BOND
     1    1    2 1
     2    1    6 2
     3    2    3 2
     4    2    7 1
     5    3    4 1
     6    3    8 1
     7    4    5 2
     8    5    6 1
     9    6   17 1
    10    8    9 1
    11    9   10 1
    12    9   14 2
    13   10   11 2
    14   10   15 1
    15   11   12 1
    16   11   16 1
    17   12   13 2
    18   13   14 1
    19   15   34 1
    20   17   18 am
    21   18   19 1
    22   18   20 2
    23   19   22 2
    24   19   23 1
    25   21   22 1
    26   21   25 2
    27   23   24 1
    28   23   26 2
    29   24   25 1
    30   24   27 1
    31   27   28 1
    32   27   29 2
    33   28   32 2
    34   29   30 1
    35   30   31 2
    36   31   32 1
    37   31   33 1
    38    1   35 1
    39    4   36 1
    40    5   37 1
    41   13   38 1
    42   14   39 1
    43   15   40 1
    44   15   41 1
    45   16   42 1
    46   16   43 1
    47   17   44 1
    48   21   45 1
    49   22   46 1
    50   25   47 1
    51   28   48 1
    52   29   49 1
    53   30   50 1
    54   32   51 1
    55   34   52 1
@<TRIPOS>PROPERTY_DATA
  Total_Score	| 10.6772
  Crash		| -1.7761
  Polar		| 3.1116
  FragIndex	| 1
  FragRMSD	| 0.527

