@<TRIPOS>MOLECULE
BindingDB_24448
 54 58 0 0 0
SMALL
NO_CHARGES


@<TRIPOS>ATOM
1    C         0.8637   11.9020   58.8308  C     
2    C        -1.4560   12.3113   59.5189  C     
3    C        -0.5298   11.8410   58.5647  C     
4    N        -1.0267   12.8949   60.6693  N     
5    C         1.2567   12.5605   60.0081  C     
6    C         0.3033   13.0347   60.9082  C     
7    C         2.4646   12.8962   60.5344  C     
8    C         2.2470   13.5354   61.6868  C     
9    N         0.9504   13.6093   61.9305  N     
10   O         1.8358   11.4959   57.9521  O     
11   C         1.7844   10.3249   57.2173  C     
12   C         0.8710    8.1861   56.4178  C     
13   C         0.7892    9.3162   57.2540  C     
14   C         2.8799   10.1285   56.3496  C     
15   C         2.9870    8.9899   55.5287  C     
16   C         1.9626    8.0257   55.5402  C     
17   F        -0.2209    9.3694   58.0675  F     
18   N         2.0318    6.9231   54.7418  N     
19   C         1.0403    6.5317   53.9432  C     
20   O         0.1891    7.3443   53.5599  O     
21   C         0.9009    5.2085   53.6223  C     
22   C         0.4889    3.5557   51.9785  C     
23   C         0.7577    4.8415   52.3264  C     
24   C         0.7767    4.2304   54.6082  C     
25   C         0.3120    2.6328   52.9374  C     
26   O         0.9454    4.5197   55.7883  O     
27   N         0.4490    2.9675   54.2585  N     
28   C         0.2108    1.9842   55.1995  C     
29   C        -0.7851    2.1532   56.1867  C     
30   C        -1.0933    1.1235   57.0900  C     
31   C        -0.4234   -0.1186   57.0041  C     
32   C         0.9312    0.7679   55.1665  C     
33   C         0.6106   -0.2723   56.0507  C     
34   C        -0.8262   -1.1851   57.7887  C     
35   O        -1.2544   -1.0290   58.9234  O     
36   N        -0.8515   -2.3993   57.2862  N     
37   H        -2.4588   12.2420   59.3410  H     
38   H        -0.8610   11.4587   57.6786  H     
39   H         3.3508   12.7176   60.1273  H     
40   H         2.9522   13.8924   62.2848  H     
41   H         0.5239   13.9974   62.7168  H     
42   H         0.1301    7.4819   56.4420  H     
43   H         3.6196   10.8259   56.3138  H     
44   H         3.7994    8.8693   54.9153  H     
45   H         2.7064    6.2425   54.9796  H     
46   H         0.3864    3.3159   51.0176  H     
47   H         0.8148    5.5198   51.5966  H     
48   H         0.0778    1.6997   52.6633  H     
49   H        -1.3203    3.0230   56.2316  H     
50   H        -1.8495    1.2687   57.7649  H     
51   H         1.6738    0.6234   54.4786  H     
52   H         1.1237   -1.1559   55.9739  H     
53   H        -1.1670   -3.1453   57.8100  H     
54   H        -0.6131   -2.5404   56.3590  H     
@<TRIPOS>BOND
     1    1    3 1
     2    1    5 2
     3    1   10 1
     4    2    3 2
     5    2    4 1
     6    4    6 2
     7    5    6 1
     8    5    7 1
     9    6    9 1
    10    7    8 2
    11    8    9 1
    12   10   11 1
    13   11   13 2
    14   11   14 1
    15   12   13 1
    16   12   16 2
    17   13   17 1
    18   14   15 2
    19   15   16 1
    20   16   18 1
    21   18   19 am
    22   19   20 2
    23   19   21 1
    24   21   23 2
    25   21   24 1
    26   22   23 1
    27   22   25 2
    28   24   26 2
    29   24   27 1
    30   25   27 1
    31   27   28 1
    32   28   29 1
    33   28   32 2
    34   29   30 2
    35   30   31 1
    36   31   33 2
    37   31   34 1
    38   32   33 1
    39   34   35 2
    40   34   36 am
    41    2   37 1
    42    3   38 1
    43    7   39 1
    44    8   40 1
    45    9   41 1
    46   12   42 1
    47   14   43 1
    48   15   44 1
    49   18   45 1
    50   22   46 1
    51   23   47 1
    52   25   48 1
    53   29   49 1
    54   30   50 1
    55   32   51 1
    56   33   52 1
    57   36   53 1
    58   36   54 1
@<TRIPOS>PROPERTY_DATA
  Total_Score	| 8.5732
  Crash		| -3.8926
  Polar		| 3.1073
  FragIndex	| 1
  FragRMSD	| 1.240

