@<TRIPOS>MOLECULE
BindingDB_28025
 56 59 0 0 0
SMALL
NO_CHARGES


@<TRIPOS>ATOM
1    C         1.1898    9.0174   55.3804  C     
2    C         1.4077   10.2845   55.9620  C     
3    C         1.8178   10.3975   57.3092  C     
4    C         2.0577    9.2178   58.0489  C     
5    C         1.8392    7.9561   57.4706  C     
6    C         1.4017    7.8346   56.1299  C     
7    F         1.1971   11.3646   55.2533  F     
8    O         1.9458   11.6491   57.8743  O     
9    C         1.0049   11.9969   58.8326  C     
10   C         1.4318   12.6291   60.0290  C     
11   C         0.4488   13.0196   60.9783  C     
12   N        -0.8644   12.8006   60.7185  N     
13   C        -1.3102   12.2261   59.5756  C     
14   C        -0.3851   11.8279   58.5971  C     
15   C         2.6978   12.9343   60.2111  C     
16   N         0.7020   13.6346   62.1469  N     
17   N         1.0829    6.5694   55.6837  N     
18   C         1.0555    6.0816   54.4452  C     
19   C         0.7426    4.7535   54.1829  C     
20   O         1.4026    6.8133   53.5239  O     
21   C         0.4169    3.0086   52.5655  C     
22   C         0.6649    4.3111   52.8902  C     
23   C         0.5280    3.7910   55.1727  C     
24   N         0.2292    2.5053   54.8486  N     
25   C         0.1936    2.1164   53.5488  C     
26   O         0.6654    4.0991   56.3592  O     
27   C        -0.0696    1.5713   55.8081  C     
28   C         0.8821    0.6013   56.2020  C     
29   C        -1.3002    1.6501   56.4957  C     
30   C        -1.5738    0.7784   57.5648  C     
31   C        -0.6181   -0.1731   57.9610  C     
32   C         0.5993   -0.2721   57.2705  C     
33   F        -0.8539   -0.9486   58.9851  F     
34   C         3.8342   13.2749   60.3623  C     
35   C         5.1100   13.7448   60.5301  C     
36   N         6.1160   12.6803   60.6162  N     
37   H         0.8267    8.9652   54.4268  H     
38   H         2.3571    9.2847   59.0261  H     
39   H         1.9988    7.1169   58.0364  H     
40   H        -2.3130   12.1099   59.4301  H     
41   H        -0.7245   11.4345   57.7196  H     
42   H        -0.0412   13.8676   62.7315  H     
43   H         1.6100   13.8452   62.4201  H     
44   H         0.9056    5.9241   56.3890  H     
45   H         0.4079    2.7186   51.6100  H     
46   H         0.7963    4.9376   52.1312  H     
47   H         0.0149    1.1721   53.3039  H     
48   H         1.7728    0.5289   55.7086  H     
49   H        -1.9952    2.3463   56.2198  H     
50   H        -2.4689    0.8511   58.0479  H     
51   H         1.2907   -0.9743   57.5397  H     
52   H         5.3571   14.3918   59.6869  H     
53   H         5.1453   14.3375   61.4465  H     
54   H         5.8619   12.0066   61.3440  H     
55   H         7.0214   13.0973   60.8493  H     
56   H         6.1966   12.2024   59.7167  H     
@<TRIPOS>BOND
     1    1    2 1
     2    1    6 2
     3    2    3 2
     4    2    7 1
     5    3    4 1
     6    3    8 1
     7    4    5 2
     8    5    6 1
     9    6   17 1
    10    8    9 1
    11    9   10 1
    12    9   14 2
    13   10   11 2
    14   10   15 1
    15   11   12 1
    16   11   16 1
    17   12   13 2
    18   13   14 1
    19   15   34 3
    20   17   18 am
    21   18   19 1
    22   18   20 2
    23   19   22 2
    24   19   23 1
    25   21   22 1
    26   21   25 2
    27   23   24 1
    28   23   26 2
    29   24   25 1
    30   24   27 1
    31   27   28 1
    32   27   29 2
    33   28   32 2
    34   29   30 1
    35   30   31 2
    36   31   32 1
    37   31   33 1
    38   34   35 1
    39   35   36 1
    40    1   37 1
    41    4   38 1
    42    5   39 1
    43   13   40 1
    44   14   41 1
    45   16   42 1
    46   16   43 1
    47   17   44 1
    48   21   45 1
    49   22   46 1
    50   25   47 1
    51   28   48 1
    52   29   49 1
    53   30   50 1
    54   32   51 1
    55   35   52 1
    56   35   53 1
    57   36   54 1
    58   36   55 1
    59   36   56 1
@<TRIPOS>PROPERTY_DATA
  Total_Score	| 11.7512
  Crash		| -1.2805
  Polar		| 2.5639
  FragIndex	| 1
  FragRMSD	| 0.434

