@<TRIPOS>MOLECULE
BindingDB_24441
 50 54 0 0 0
SMALL
NO_CHARGES


@<TRIPOS>ATOM
1    C         0.9404   11.9748   58.7459  C     
2    C        -1.4266   12.0954   59.3825  C     
3    C        -0.4291   11.7529   58.4430  C     
4    N        -1.0891   12.6613   60.5725  N     
5    C         1.2339   12.5806   59.9843  C     
6    C         0.2097   12.9030   60.8733  C     
7    C         2.3927   12.9644   60.5885  C     
8    C         2.0803   13.4833   61.7786  C     
9    N         0.7721   13.4456   61.9607  N     
10   O         1.9804   11.6946   57.8878  O     
11   C         1.9241   10.4668   57.2782  C     
12   C         1.4211    9.1186   55.3031  C     
13   C         1.5443   10.3772   55.9229  C     
14   C         2.2486    9.2890   57.9820  C     
15   C         2.1498    8.0350   57.3518  C     
16   C         1.7014    7.9277   56.0162  C     
17   F         1.2753   11.4593   55.2422  F     
18   N         1.5774    6.6605   55.5139  N     
19   C         0.7649    6.1979   54.5674  C     
20   O        -0.0227    6.9124   53.9605  O     
21   C         0.6758    4.8512   54.3657  C     
22   C         0.8761    2.9940   52.9040  C     
23   C         0.9633    4.3317   53.1474  C     
24   C         0.2812    3.9771   55.3730  C     
25   C         0.5037    2.1614   53.8935  C     
26   O         0.0188    4.4244   56.4871  O     
27   N         0.2112    2.6437   55.1369  N     
28   C        -0.1309    1.7462   56.1328  C     
29   C        -1.3798    1.8363   56.7923  C     
30   C         0.7786    0.7430   56.5468  C     
31   C         0.4555   -0.1332   57.5999  C     
32   C        -0.7822   -0.0173   58.2569  C     
33   C        -1.7003    0.9681   57.8513  C     
34   H        -2.4103   11.9302   59.1678  H     
35   H        -0.7043   11.3449   57.5467  H     
36   H         3.3066   12.8764   60.2111  H     
37   H         2.7321   13.8446   62.4345  H     
38   H         0.2928   13.7541   62.7496  H     
39   H         1.1325    9.0833   54.3250  H     
40   H         2.5362    9.3423   58.9617  H     
41   H         2.3753    7.1933   57.8898  H     
42   H         2.0818    5.9831   55.9937  H     
43   H         1.0835    2.6359   51.9994  H     
44   H         1.2443    4.9239   52.3971  H     
45   H         0.4378    1.1877   53.6913  H     
46   H        -2.0579    2.5468   56.5116  H     
47   H         1.6891    0.6576   56.0906  H     
48   H         1.1249   -0.8475   57.8946  H     
49   H        -1.0114   -0.6453   59.0308  H     
50   H        -2.5966    1.0643   58.3313  H     
@<TRIPOS>BOND
     1    1    3 1
     2    1    5 2
     3    1   10 1
     4    2    3 2
     5    2    4 1
     6    4    6 2
     7    5    6 1
     8    5    7 1
     9    6    9 1
    10    7    8 2
    11    8    9 1
    12   10   11 1
    13   11   13 2
    14   11   14 1
    15   12   13 1
    16   12   16 2
    17   13   17 1
    18   14   15 2
    19   15   16 1
    20   16   18 1
    21   18   19 am
    22   19   20 2
    23   19   21 1
    24   21   23 2
    25   21   24 1
    26   22   23 1
    27   22   25 2
    28   24   26 2
    29   24   27 1
    30   25   27 1
    31   27   28 1
    32   28   29 2
    33   28   30 1
    34   29   33 1
    35   30   31 2
    36   31   32 1
    37   32   33 2
    38    2   34 1
    39    3   35 1
    40    7   36 1
    41    8   37 1
    42    9   38 1
    43   12   39 1
    44   14   40 1
    45   15   41 1
    46   18   42 1
    47   22   43 1
    48   23   44 1
    49   25   45 1
    50   29   46 1
    51   30   47 1
    52   31   48 1
    53   32   49 1
    54   33   50 1
@<TRIPOS>PROPERTY_DATA
  Total_Score	| 10.6473
  Crash		| -1.1520
  Polar		| 2.0595
  FragIndex	| 1
  FragRMSD	| 0.095

