@<TRIPOS>MOLECULE
BindingDB_28026
 54 57 0 0 0
SMALL
NO_CHARGES


@<TRIPOS>ATOM
1    C         1.3160    9.1258   55.4376  C     
2    C         1.6353   10.3147   56.1165  C     
3    C         1.7825   10.3233   57.5185  C     
4    C         1.6533    9.0986   58.2186  C     
5    C         1.3255    7.9076   57.5461  C     
6    C         1.1555    7.9056   56.1342  C     
7    F         1.7574   11.4296   55.4386  F     
8    O         2.0175   11.5104   58.1629  O     
9    C         1.0077   11.9831   58.9820  C     
10   C         1.3380   12.6105   60.2090  C     
11   C         0.2984   13.0863   61.0474  C     
12   N        -0.9971   12.9449   60.6656  N     
13   C        -1.3574   12.3853   59.4868  C     
14   C        -0.3630   11.9241   58.6071  C     
15   C         2.5788   12.7075   60.6047  C     
16   N         0.5261   13.6794   62.2366  N     
17   N         0.8130    6.8132   55.3816  N     
18   C         1.0083    5.5203   55.6300  C     
19   C         0.7708    4.5933   54.6471  C     
20   O         1.5465    5.1354   56.6624  O     
21   C         0.0557    2.4195   54.0147  C     
22   C         0.2658    3.3716   54.9629  C     
23   C         1.0588    4.8499   53.3099  C     
24   N         0.7795    3.9234   52.3577  N     
25   C         0.2907    2.6994   52.7147  C     
26   O         1.5182    5.9515   53.0106  O     
27   C         0.8462    4.2263   51.0121  C     
28   C         2.0825    4.4607   50.3683  C     
29   C        -0.3538    4.5031   50.3158  C     
30   C        -0.3216    5.0161   49.0047  C     
31   C         0.9168    5.2796   48.3917  C     
32   C         2.1236    4.9951   49.0616  C     
33   F         0.9447    5.8491   47.2188  F     
34   C         3.6893   12.7876   61.0342  C     
35   C         4.9388   12.8601   61.5693  C     
36   O         4.9469   12.2254   62.8443  O     
37   H         1.2024    9.1458   54.4189  H     
38   H         1.7673    9.0931   59.2408  H     
39   H         1.1873    7.0485   58.0919  H     
40   H        -2.3505   12.3171   59.2368  H     
41   H        -0.6383   11.5393   57.7036  H     
42   H        -0.2141   13.9399   62.8055  H     
43   H         1.4373   13.8244   62.5381  H     
44   H         0.4647    7.0068   54.4922  H     
45   H        -0.3200    1.5398   54.2742  H     
46   H         0.0280    3.1463   55.9061  H     
47   H         0.0938    2.0023   52.0304  H     
48   H         2.9597    4.2787   50.8627  H     
49   H        -1.2593    4.3698   50.7762  H     
50   H        -1.1994    5.2263   48.5192  H     
51   H         3.0254    5.1915   48.6188  H     
52   H         5.6493   12.3540   60.9120  H     
53   H         5.2282   13.9069   61.6843  H     
54   H         5.8630   11.9001   62.9614  H     
@<TRIPOS>BOND
     1    1    2 1
     2    1    6 2
     3    2    3 2
     4    2    7 1
     5    3    4 1
     6    3    8 1
     7    4    5 2
     8    5    6 1
     9    6   17 1
    10    8    9 1
    11    9   10 1
    12    9   14 2
    13   10   11 2
    14   10   15 1
    15   11   12 1
    16   11   16 1
    17   12   13 2
    18   13   14 1
    19   15   34 3
    20   17   18 am
    21   18   19 1
    22   18   20 2
    23   19   22 2
    24   19   23 1
    25   21   22 1
    26   21   25 2
    27   23   24 1
    28   23   26 2
    29   24   25 1
    30   24   27 1
    31   27   28 1
    32   27   29 2
    33   28   32 2
    34   29   30 1
    35   30   31 2
    36   31   32 1
    37   31   33 1
    38   34   35 1
    39   35   36 1
    40    1   37 1
    41    4   38 1
    42    5   39 1
    43   13   40 1
    44   14   41 1
    45   16   42 1
    46   16   43 1
    47   17   44 1
    48   21   45 1
    49   22   46 1
    50   25   47 1
    51   28   48 1
    52   29   49 1
    53   30   50 1
    54   32   51 1
    55   35   52 1
    56   35   53 1
    57   36   54 1
@<TRIPOS>PROPERTY_DATA
  Total_Score	| 12.3063
  Crash		| -2.3347
  Polar		| 4.7150
  FragIndex	| 1
  FragRMSD	| 0.387

