@<TRIPOS>MOLECULE
BindingDB_12021
 34 35 0 0 0
SMALL
NO_CHARGES


@<TRIPOS>ATOM
1    C        -1.5518    7.5797   10.5895  C     
2    C        -0.5102    8.4555   10.9475  C     
3    C         0.0234    8.4240   12.2422  C     
4    C        -0.4858    7.5155   13.1821  C     
5    C        -1.5378    6.6445   12.8353  C     
6    C        -2.0898    6.6558   11.5230  C     
7    C        -3.1827    5.7504   11.0598  C     
8    N        -3.6690    4.8242   12.0301  N     
9    C        -4.9201    4.5980   12.4240  C     
10   O        -5.8301    5.2418   11.9063  O     
11   C        -5.2127    3.6811   13.4384  C     
12   C        -6.3886    3.8007   14.2238  C     
13   C        -4.3344    2.6090   13.7503  C     
14   C        -4.6059    1.7185   14.8048  C     
15   C        -5.7744    1.8690   15.5791  C     
16   C        -6.6621    2.9209   15.2859  C     
17   S        -6.0586    0.7717   16.8980  S     
18   O        -6.0425   -0.6861   16.2682  O     
19   O        -4.8799    0.8433   17.9592  O     
20   N        -7.5547    0.8990   17.6420  N     
21   F        -1.9615    5.8395   13.7756  F     
22   F         0.9976    9.2305   12.5623  F     
23   F        -1.9937    7.6511    9.3647  F     
24   H        -0.1321    9.1146   10.2635  H     
25   H        -0.0840    7.4959   14.1276  H     
26   H        -3.9940    6.3719   10.6647  H     
27   H        -2.8015    5.1516   10.2310  H     
28   H        -2.9815    4.2978   12.4633  H     
29   H        -7.0553    4.5647   14.0538  H     
30   H        -3.4761    2.4538   13.2173  H     
31   H        -3.9436    0.9666   15.0041  H     
32   H        -7.5038    3.0711   15.8497  H     
33   H        -7.9289    0.1299   18.0995  H     
34   H        -7.9610    1.7709   17.7566  H     
@<TRIPOS>BOND
     1    1    2 2
     2    1    6 1
     3    1   23 1
     4    2    3 1
     5    3    4 2
     6    3   22 1
     7    4    5 1
     8    5    6 2
     9    5   21 1
    10    6    7 1
    11    7    8 1
    12    8    9 am
    13    9   10 2
    14    9   11 1
    15   11   12 1
    16   11   13 2
    17   12   16 2
    18   13   14 1
    19   14   15 2
    20   15   16 1
    21   15   17 1
    22   17   18 2
    23   17   19 2
    24   17   20 am
    25    2   24 1
    26    4   25 1
    27    7   26 1
    28    7   27 1
    29    8   28 1
    30   12   29 1
    31   13   30 1
    32   14   31 1
    33   16   32 1
    34   20   33 1
    35   20   34 1
@<TRIPOS>PROPERTY_DATA
  Total_Score	| 4.1235
  Crash		| -0.7962
  Polar		| 4.0599
  FragIndex	| 1
  FragRMSD	| 0.843

