@<TRIPOS>MOLECULE
BindingDB_33215
 43 46 0 0 0
SMALL
NO_CHARGES


@<TRIPOS>ATOM
1    C        17.7900   -2.4709    9.8211  C     
2    C        19.0163   -1.9992    9.2337  C     
3    C        19.0154   -0.8076    8.4608  C     
4    N        17.8818   -0.0850    8.2874  N     
5    C        16.7285   -0.4851    8.8603  C     
6    C        16.6491   -1.6366    9.6403  C     
7    C        15.3065   -1.6693   10.0129  C     
8    N        15.5166    0.0815    8.7937  N     
9    N        14.6684   -0.6131    9.4784  N     
10   N        17.6962   -3.6872   10.4696  N     
11   O        17.0568   -5.8208   12.2435  O     
12   C        16.0537   -5.3104   11.3472  C     
13   C        16.7064   -4.6825   10.0992  C     
14   C        18.6856   -4.1594   11.4194  C     
15   C        18.0502   -4.8643   12.6597  C     
16   C        17.4730   -3.9180   13.7446  C     
17   N        18.5420   -3.3813   14.5971  N     
18   C        20.2867   -2.5897    9.4957  C     
19   C        22.2466   -2.8572   10.9473  C     
20   C        22.7336   -3.8762   10.1118  C     
21   C        22.0140   -4.2435    8.9596  C     
22   C        20.7937   -3.6107    8.6592  C     
23   C        21.0308   -2.2178   10.6415  C     
24   H        19.8775   -0.4485    8.0432  H     
25   H        14.8473   -2.3547   10.6065  H     
26   H        15.2966    0.8848    8.2953  H     
27   H        15.4305   -6.1486   11.0407  H     
28   H        15.4257   -4.5738   11.8501  H     
29   H        15.9008   -4.2686    9.4925  H     
30   H        17.1935   -5.4818    9.5294  H     
31   H        19.2960   -4.9038   10.8978  H     
32   H        19.3807   -3.3905   11.7467  H     
33   H        18.8332   -5.4622   13.1358  H     
34   H        16.8982   -3.0963   13.2957  H     
35   H        16.7966   -4.4778   14.3934  H     
36   H        19.0147   -4.1532   15.0731  H     
37   H        18.1357   -2.7519   15.2941  H     
38   H        19.2243   -2.8701   14.0330  H     
39   H        22.7681   -2.5957   11.7881  H     
40   H        23.6117   -4.3496   10.3381  H     
41   H        22.3654   -4.9892    8.3596  H     
42   H        20.2608   -3.9284    7.8466  H     
43   H        20.6721   -1.5034   11.2817  H     
@<TRIPOS>BOND
     1    1    2 2
     2    1    6 1
     3    1   10 1
     4    2    3 1
     5    2   18 1
     6    3    4 2
     7    4    5 1
     8    5    6 2
     9    5    8 1
    10    6    7 1
    11    7    9 2
    12    8    9 1
    13   10   13 1
    14   10   14 1
    15   11   12 1
    16   11   15 1
    17   12   13 1
    18   14   15 1
    19   15   16 1
    20   16   17 1
    21   18   22 1
    22   18   23 2
    23   19   20 2
    24   19   23 1
    25   20   21 1
    26   21   22 2
    27    3   24 1
    28    7   25 1
    29    8   26 1
    30   12   27 1
    31   12   28 1
    32   13   29 1
    33   13   30 1
    34   14   31 1
    35   14   32 1
    36   15   33 1
    37   16   34 1
    38   16   35 1
    39   17   36 1
    40   17   37 1
    41   17   38 1
    42   19   39 1
    43   20   40 1
    44   21   41 1
    45   22   42 1
    46   23   43 1
@<TRIPOS>PROPERTY_DATA
  Total_Score	| 4.8673
  Crash		| -1.2595
  Polar		| 1.8849
  FragIndex	| 1
  FragRMSD	| 0.722

