@<TRIPOS>MOLECULE
BindingDB_33212
 42 44 0 0 0
SMALL
NO_CHARGES


@<TRIPOS>ATOM
1    C        17.7079   -2.2363    9.6477  C     
2    C        18.9025   -1.8235    8.9658  C     
3    C        18.8372   -0.6239    8.2005  C     
4    N        17.6976    0.1173    8.1173  N     
5    C        16.5685   -0.2864    8.7424  C     
6    C        16.5500   -1.4388    9.5062  C     
7    C        15.2770   -1.4967    9.9877  C     
8    N        15.3391    0.2381    8.8252  N     
9    N        14.6038   -0.4994    9.5480  N     
10   N        17.6382   -3.3220   10.4695  N     
11   O        16.5901   -4.9821   12.4667  O     
12   C        15.9874   -5.0364   11.1571  C     
13   C        16.9553   -4.5303   10.0564  C     
14   C        18.1732   -3.2572   11.8128  C     
15   C        17.0600   -3.6623   12.8261  C     
16   C        17.4629   -3.6408   14.3260  C     
17   N        18.9066   -3.5327   14.5842  N     
18   C        20.1064   -2.5983    8.9518  C     
19   O        20.2948   -3.6486    9.7933  O     
20   O        21.0914   -2.3287    8.0519  O     
21   C        22.3503   -2.9889    7.8521  C     
22   C        22.2694   -3.8169    6.5581  C     
23   H        19.6498   -0.2800    7.6904  H     
24   H        14.9087   -2.2052   10.5694  H     
25   H        15.0354    1.0572    8.4003  H     
26   H        15.7088   -6.0675   10.9468  H     
27   H        15.0728   -4.4436   11.1438  H     
28   H        16.4024   -4.3919    9.1264  H     
29   H        17.7133   -5.2917    9.8733  H     
30   H        19.0049   -3.9663   11.9050  H     
31   H        18.5529   -2.2581   12.0661  H     
32   H        16.2246   -2.9562   12.7365  H     
33   H        16.9903   -2.7834   14.8194  H     
34   H        17.1027   -4.5487   14.8231  H     
35   H        19.4056   -4.3524   14.2164  H     
36   H        19.0546   -3.4718   15.5907  H     
37   H        19.2691   -2.6769   14.1404  H     
38   H        23.1334   -2.2332    7.7597  H     
39   H        22.5987   -3.6452    8.6893  H     
40   H        21.4938   -4.5812    6.6500  H     
41   H        23.2234   -4.3090    6.3659  H     
42   H        22.0266   -3.1713    5.7117  H     
@<TRIPOS>BOND
     1    1    2 1
     2    1    6 2
     3    1   10 1
     4    2    3 2
     5    2   18 1
     6    3    4 1
     7    4    5 2
     8    5    6 1
     9    5    8 1
    10    6    7 1
    11    7    9 2
    12    8    9 1
    13   10   13 1
    14   10   14 1
    15   11   12 1
    16   11   15 1
    17   12   13 1
    18   14   15 1
    19   15   16 1
    20   16   17 1
    21   18   19 2
    22   18   20 1
    23   20   21 1
    24   21   22 1
    25    3   23 1
    26    7   24 1
    27    8   25 1
    28   12   26 1
    29   12   27 1
    30   13   28 1
    31   13   29 1
    32   14   30 1
    33   14   31 1
    34   15   32 1
    35   16   33 1
    36   16   34 1
    37   17   35 1
    38   17   36 1
    39   17   37 1
    40   21   38 1
    41   21   39 1
    42   22   40 1
    43   22   41 1
    44   22   42 1
@<TRIPOS>PROPERTY_DATA
  Total_Score	| 6.5611
  Crash		| -0.8442
  Polar		| 2.7821
  FragIndex	| 1
  FragRMSD	| 0.721

