@<TRIPOS>MOLECULE
BindingDB_33214
 40 43 0 0 0
SMALL
NO_CHARGES


@<TRIPOS>ATOM
1    C        17.7544   -2.2871    9.6667  C     
2    C        18.9679   -1.8050    9.0532  C     
3    C        18.8787   -0.6114    8.2705  C     
4    N        17.7307    0.1049    8.1639  N     
5    C        16.6063   -0.3280    8.7637  C     
6    C        16.5817   -1.5002    9.4993  C     
7    C        15.3038   -1.5399    9.9741  C     
8    N        15.3859    0.2152    8.8452  N     
9    N        14.6477   -0.5167    9.5662  N     
10   N        17.6756   -3.4098   10.4499  N     
11   O        16.7372   -5.1776   12.4342  O     
12   C        15.9696   -5.0377   11.2237  C     
13   C        16.8474   -4.5268   10.0491  C     
14   C        18.3920   -3.5208   11.7027  C     
15   C        17.4180   -3.9617   12.8373  C     
16   C        18.1176   -4.2438   14.1969  C     
17   N        18.6858   -3.0354   14.8033  N     
18   C        20.2379   -2.4906    9.0917  C     
19   C        21.7501   -4.3153    9.4115  C     
20   S        22.7547   -3.0155    8.9151  S     
21   C        21.4675   -1.8828    8.7620  C     
22   C        20.4285   -3.8483    9.4407  C     
23   H        19.6757   -0.2445    7.7475  H     
24   H        14.9293   -2.2139   10.5923  H     
25   H        15.1248    1.0639    8.4543  H     
26   H        15.5475   -6.0113   10.9506  H     
27   H        15.1403   -4.3654   11.4115  H     
28   H        16.2048   -4.3080    9.1905  H     
29   H        17.5165   -5.3324    9.7487  H     
30   H        19.1650   -4.2820   11.6081  H     
31   H        18.8767   -2.5798   11.9758  H     
32   H        16.6795   -3.1648   13.0123  H     
33   H        17.3771   -4.6492   14.8932  H     
34   H        18.9168   -4.9754   14.0695  H     
35   H        19.2915   -2.5757   14.1202  H     
36   H        19.2398   -3.2817   15.6229  H     
37   H        17.9291   -2.3991   15.0767  H     
38   H        22.0715   -5.2612    9.6279  H     
39   H        21.6125   -0.9156    8.4808  H     
40   H        19.6483   -4.4674    9.6810  H     
@<TRIPOS>BOND
     1    1    2 1
     2    1    6 2
     3    1   10 1
     4    2    3 2
     5    2   18 1
     6    3    4 1
     7    4    5 2
     8    5    6 1
     9    5    8 1
    10    6    7 1
    11    7    9 2
    12    8    9 1
    13   10   13 1
    14   10   14 1
    15   11   12 1
    16   11   15 1
    17   12   13 1
    18   14   15 1
    19   15   16 1
    20   16   17 1
    21   18   21 2
    22   18   22 1
    23   19   20 1
    24   19   22 2
    25   20   21 1
    26    3   23 1
    27    7   24 1
    28    8   25 1
    29   12   26 1
    30   12   27 1
    31   13   28 1
    32   13   29 1
    33   14   30 1
    34   14   31 1
    35   15   32 1
    36   16   33 1
    37   16   34 1
    38   17   35 1
    39   17   36 1
    40   17   37 1
    41   19   38 1
    42   21   39 1
    43   22   40 1
@<TRIPOS>PROPERTY_DATA
  Total_Score	| 6.2454
  Crash		| -1.1205
  Polar		| 2.3098
  FragIndex	| 1
  FragRMSD	| 0.988

