@<TRIPOS>MOLECULE
BindingDB_33213
 33 35 0 0 0
SMALL
NO_CHARGES


@<TRIPOS>ATOM
1    C        17.8235   -2.2956    9.6058  C     
2    C        19.0031   -1.8261    8.9548  C     
3    C        18.9565   -0.6345    8.1960  C     
4    N        17.8164    0.1025    8.1101  N     
5    C        16.6969   -0.3164    8.7384  C     
6    C        16.6653   -1.4945    9.4699  C     
7    C        15.4014   -1.5323    9.9669  C     
8    N        15.4765    0.2196    8.8318  N     
9    N        14.7457   -0.5096    9.5615  N     
10   N        17.7840   -3.4539   10.3394  N     
11   O        17.0346   -5.2425   12.3830  O     
12   C        16.1188   -5.0438   11.2874  C     
13   C        16.8643   -4.5303   10.0265  C     
14   C        18.6624   -3.6653   11.4698  C     
15   C        17.8244   -4.0762   12.7220  C     
16   C        18.7112   -4.3747   13.9704  C     
17   N        18.4837   -3.4165   15.0577  N     
18   Br       20.6014   -2.7875    8.9240  Br    
19   H        19.7812   -0.3119    7.6878  H     
20   H        15.0336   -2.2185   10.5744  H     
21   H        15.1861    1.0519    8.4314  H     
22   H        15.6429   -5.9980   11.0591  H     
23   H        15.3355   -4.3455   11.5864  H     
24   H        16.1356   -4.2644    9.2536  H     
25   H        17.4534   -5.3563    9.6244  H     
26   H        19.3737   -4.4641   11.2301  H     
27   H        19.2381   -2.7704   11.7215  H     
28   H        17.1391   -3.2531   12.9626  H     
29   H        18.5093   -5.3732   14.3615  H     
30   H        19.7755   -4.3262   13.7262  H     
31   H        18.5677   -2.4644   14.6965  H     
32   H        19.1910   -3.5614   15.7791  H     
33   H        17.5513   -3.5527   15.4533  H     
@<TRIPOS>BOND
     1    1    2 1
     2    1    6 2
     3    1   10 1
     4    2    3 2
     5    2   18 1
     6    3    4 1
     7    4    5 2
     8    5    6 1
     9    5    8 1
    10    6    7 1
    11    7    9 2
    12    8    9 1
    13   10   13 1
    14   10   14 1
    15   11   12 1
    16   11   15 1
    17   12   13 1
    18   14   15 1
    19   15   16 1
    20   16   17 1
    21    3   19 1
    22    7   20 1
    23    8   21 1
    24   12   22 1
    25   12   23 1
    26   13   24 1
    27   13   25 1
    28   14   26 1
    29   14   27 1
    30   15   28 1
    31   16   29 1
    32   16   30 1
    33   17   31 1
    34   17   32 1
    35   17   33 1
@<TRIPOS>PROPERTY_DATA
  Total_Score	| 5.6005
  Crash		| -0.9523
  Polar		| 2.4730
  FragIndex	| 1
  FragRMSD	| 1.309

