@<TRIPOS>MOLECULE
BindingDB_50359805
 44 47 0 0 0
SMALL
NO_CHARGES


@<TRIPOS>ATOM
1    N        16.8116   -1.3835    9.6268  N     
2    C        16.7274   -0.2558    8.8821  C     
3    N        17.7872    0.1313    8.1271  N     
4    C        17.9183   -2.1899    9.7081  C     
5    C        19.0521   -1.7819    8.9432  C     
6    C        18.9140   -0.6319    8.1568  C     
7    N        20.0594   -0.4142    7.4940  N     
8    C        20.9169   -1.3416    7.8544  C     
9    C        20.3663   -2.1884    8.7405  C     
10   N        17.7756   -3.3443   10.4453  N     
11   C        18.4540   -3.5630   11.7152  C     
12   C        17.4652   -4.0438   12.8234  C     
13   O        16.6682   -5.1298   12.3260  O     
14   C        15.9684   -4.8667   11.0950  C     
15   C        16.9511   -4.4354    9.9837  C     
16   C        18.1945   -4.5093   14.1113  C     
17   N        18.7558   -3.4062   14.9173  N     
18   C        21.0903   -3.1935    9.3717  C     
19   C        21.3749   -4.3866    8.6456  C     
20   C        22.2388   -5.3661    9.1873  C     
21   C        22.8442   -5.1485   10.4495  C     
22   C        22.6069   -3.9407   11.1446  C     
23   C        21.7467   -2.9639   10.6071  C     
24   C        22.4748   -6.4689    8.5478  C     
25   N        22.6438   -7.4547    7.9644  N     
26   H        15.8579    0.2925    8.8695  H     
27   H        20.2461    0.3377    6.9082  H     
28   H        21.8627   -1.3551    7.5247  H     
29   H        19.2124   -4.3398   11.5340  H     
30   H        18.9797   -2.6630   12.0822  H     
31   H        16.8084   -3.2177   13.1057  H     
32   H        15.5237   -5.8100   10.7722  H     
33   H        15.1951   -4.0991   11.2199  H     
34   H        16.3826   -4.1884    9.0819  H     
35   H        17.6162   -5.2775    9.7551  H     
36   H        17.5192   -5.0749   14.7485  H     
37   H        19.0246   -5.1646   13.8414  H     
38   H        19.3532   -2.8165   14.3277  H     
39   H        19.3129   -3.8043   15.6862  H     
40   H        17.9977   -2.8451   15.3199  H     
41   H        20.9500   -4.5405    7.7230  H     
42   H        23.5147   -5.8121   10.8373  H     
43   H        23.0468   -3.7729   12.0561  H     
44   H        21.5950   -2.0931   11.1287  H     
@<TRIPOS>BOND
     1    1    2 2
     2    1    4 1
     3    2    3 1
     4    3    6 2
     5    4    5 2
     6    4   10 1
     7    5    6 1
     8    5    9 1
     9    6    7 1
    10    7    8 1
    11    8    9 2
    12    9   18 1
    13   10   11 1
    14   10   15 1
    15   11   12 1
    16   12   13 1
    17   12   16 1
    18   13   14 1
    19   14   15 1
    20   16   17 1
    21   18   19 2
    22   18   23 1
    23   19   20 1
    24   20   21 2
    25   20   24 1
    26   21   22 1
    27   22   23 2
    28   24   25 3
    29    2   26 1
    30    7   27 1
    31    8   28 1
    32   11   29 1
    33   11   30 1
    34   12   31 1
    35   14   32 1
    36   14   33 1
    37   15   34 1
    38   15   35 1
    39   16   36 1
    40   16   37 1
    41   17   38 1
    42   17   39 1
    43   17   40 1
    44   19   41 1
    45   21   42 1
    46   22   43 1
    47   23   44 1
@<TRIPOS>PROPERTY_DATA
  Total_Score	| 5.8225
  Crash		| -0.6542
  Polar		| 1.4705
  FragIndex	| 1
  FragRMSD	| 0.795

