@<TRIPOS>MOLECULE
BindingDB_50359804
 47 50 0 0 0
SMALL
NO_CHARGES


@<TRIPOS>ATOM
1    N        16.8885   -1.5457    9.6029  N     
2    C        16.8487   -0.3458    8.9744  C     
3    N        17.9236    0.0912    8.2645  N     
4    C        17.9953   -2.3518    9.6269  C     
5    C        19.1467   -1.8940    8.9298  C     
6    C        19.0314   -0.6817    8.2458  C     
7    N        20.1764   -0.4620    7.5893  N     
8    C        20.9933   -1.4628    7.8261  C     
9    C        20.4089   -2.3785    8.6084  C     
10   N        17.9122   -3.5286   10.3075  N     
11   C        18.6108   -3.7163   11.5626  C     
12   C        17.5756   -3.9440   12.7080  C     
13   O        16.6929   -5.0323   12.3523  O     
14   C        15.9576   -4.7855   11.1360  C     
15   C        16.9196   -4.5251    9.9501  C     
16   C        18.2342   -4.2928   14.0666  C     
17   N        18.7297   -3.1016   14.7643  N     
18   C        21.0375   -3.5513    8.9780  C     
19   C        21.3233   -4.5624    8.0265  C     
20   C        22.1311   -5.6757    8.3663  C     
21   C        22.6330   -5.7850    9.6881  C     
22   C        22.3411   -4.7955   10.6456  C     
23   C        21.5719   -3.6733   10.2808  C     
24   C        22.5017   -6.7060    7.3624  C     
25   O        21.6573   -7.8409    7.4904  O     
26   H        15.9980    0.2245    9.0103  H     
27   H        20.3633    0.2921    7.0072  H     
28   H        21.8993   -1.5358    7.4203  H     
29   H        19.2577   -4.5905   11.4760  H     
30   H        19.2295   -2.8514   11.8253  H     
31   H        16.9850   -3.0362   12.8473  H     
32   H        15.3355   -5.6643   10.9451  H     
33   H        15.2801   -3.9346   11.2631  H     
34   H        16.3355   -4.2708    9.0603  H     
35   H        17.4349   -5.4622    9.7235  H     
36   H        17.5009   -4.7704   14.7245  H     
37   H        19.0639   -4.9920   13.9180  H     
38   H        19.3628   -2.5821   14.1551  H     
39   H        19.2269   -3.3764   15.6142  H     
40   H        17.9344   -2.5100   15.0179  H     
41   H        20.9663   -4.4727    7.0740  H     
42   H        23.2230   -6.5756    9.9612  H     
43   H        22.7174   -4.8761   11.6005  H     
44   H        21.4122   -2.9466   10.9790  H     
45   H        22.4261   -6.3232    6.3360  H     
46   H        23.5323   -7.0117    7.5373  H     
47   H        21.1244   -7.8612    6.6586  H     
@<TRIPOS>BOND
     1    1    2 2
     2    1    4 1
     3    2    3 1
     4    3    6 2
     5    4    5 2
     6    4   10 1
     7    5    6 1
     8    5    9 1
     9    6    7 1
    10    7    8 1
    11    8    9 2
    12    9   18 1
    13   10   11 1
    14   10   15 1
    15   11   12 1
    16   12   13 1
    17   12   16 1
    18   13   14 1
    19   14   15 1
    20   16   17 1
    21   18   19 2
    22   18   23 1
    23   19   20 1
    24   20   21 2
    25   20   24 1
    26   21   22 1
    27   22   23 2
    28   24   25 1
    29    2   26 1
    30    7   27 1
    31    8   28 1
    32   11   29 1
    33   11   30 1
    34   12   31 1
    35   14   32 1
    36   14   33 1
    37   15   34 1
    38   15   35 1
    39   16   36 1
    40   16   37 1
    41   17   38 1
    42   17   39 1
    43   17   40 1
    44   19   41 1
    45   21   42 1
    46   22   43 1
    47   23   44 1
    48   24   45 1
    49   24   46 1
    50   25   47 1
@<TRIPOS>PROPERTY_DATA
  Total_Score	| 6.7705
  Crash		| -0.9618
  Polar		| 2.5366
  FragIndex	| 1
  FragRMSD	| 0.982

