@<TRIPOS>MOLECULE
BindingDB_50359829
 53 56 0 0 0
SMALL
NO_CHARGES


@<TRIPOS>ATOM
1    C        16.6424   -1.4560    9.3062  C     
2    C        16.7183   -0.3402    8.4363  C     
3    N        17.8999    0.0616    7.9196  N     
4    C        17.8294   -2.2025    9.6026  C     
5    C        19.0533   -1.7363    9.0376  C     
6    C        19.0294   -0.6168    8.2103  C     
7    N        20.2725   -0.3947    7.7872  N     
8    N        21.0339   -1.2803    8.2583  N     
9    C        20.3850   -2.1017    9.0033  C     
10   N        17.7780   -3.3550   10.3448  N     
11   C        18.5348   -3.5218   11.5665  C     
12   C        17.5846   -3.9802   12.7151  C     
13   O        16.8635   -5.1636   12.3001  O     
14   C        16.0786   -4.9944   11.1027  C     
15   C        16.9571   -4.4787    9.9348  C     
16   C        18.3333   -4.3120   14.0313  C     
17   N        18.7780   -3.1001   14.7290  N     
18   C        15.4160   -1.6436    9.9781  C     
19   O        15.4228   -1.7522   11.3279  O     
20   O        14.2416   -1.5257    9.3036  O     
21   C        12.9198   -1.5152    9.8584  C     
22   C        12.5188   -0.0981   10.3183  C     
23   C        21.0450   -3.1970    9.5109  C     
24   C        21.2924   -4.3176    8.6839  C     
25   C        22.1248   -5.3677    9.1334  C     
26   C        22.6882   -5.3054   10.4261  C     
27   C        22.4423   -4.1944   11.2518  C     
28   C        21.6428   -3.1334   10.7903  C     
29   C        22.4013   -6.3726    8.3501  C     
30   N        22.6473   -7.2562    7.6587  N     
31   H        15.8916    0.2221    8.2184  H     
32   H        20.5430    0.3226    7.1923  H     
33   H        19.2939   -4.2926   11.4116  H     
34   H        19.0344   -2.5948   11.8627  H     
35   H        16.8669   -3.1826   12.9336  H     
36   H        15.6520   -5.9628   10.8352  H     
37   H        15.2473   -4.3133   11.2923  H     
38   H        16.3165   -4.2528    9.0758  H     
39   H        17.6251   -5.2884    9.6307  H     
40   H        17.6680   -4.8560   14.7037  H     
41   H        19.2015   -4.9414   13.8263  H     
42   H        19.3482   -2.5357   14.0990  H     
43   H        19.3366   -3.3564   15.5464  H     
44   H        17.9651   -2.5594   15.0322  H     
45   H        12.2231   -1.8426    9.0843  H     
46   H        12.8547   -2.2189   10.6901  H     
47   H        13.2076    0.2658   11.0833  H     
48   H        11.5117   -0.1134   10.7352  H     
49   H        12.5360    0.5891    9.4702  H     
50   H        20.8957   -4.3486    7.7368  H     
51   H        23.2938   -6.0559   10.7738  H     
52   H        22.8649   -4.1465   12.1828  H     
53   H        21.5051   -2.3160   11.3924  H     
@<TRIPOS>BOND
     1    1    2 2
     2    1    4 1
     3    1   18 1
     4    2    3 1
     5    3    6 2
     6    4    5 2
     7    4   10 1
     8    5    6 1
     9    5    9 1
    10    6    7 1
    11    7    8 1
    12    8    9 2
    13    9   23 1
    14   10   11 1
    15   10   15 1
    16   11   12 1
    17   12   13 1
    18   12   16 1
    19   13   14 1
    20   14   15 1
    21   16   17 1
    22   18   19 2
    23   18   20 1
    24   20   21 1
    25   21   22 1
    26   23   24 2
    27   23   28 1
    28   24   25 1
    29   25   26 2
    30   25   29 1
    31   26   27 1
    32   27   28 2
    33   29   30 3
    34    2   31 1
    35    7   32 1
    36   11   33 1
    37   11   34 1
    38   12   35 1
    39   14   36 1
    40   14   37 1
    41   15   38 1
    42   15   39 1
    43   16   40 1
    44   16   41 1
    45   17   42 1
    46   17   43 1
    47   17   44 1
    48   21   45 1
    49   21   46 1
    50   22   47 1
    51   22   48 1
    52   22   49 1
    53   24   50 1
    54   26   51 1
    55   27   52 1
    56   28   53 1
@<TRIPOS>PROPERTY_DATA
  Total_Score	| 8.4029
  Crash		| -0.9193
  Polar		| 1.1376
  FragIndex	| 1
  FragRMSD	| 0.735

