@<TRIPOS>MOLECULE
BindingDB_33216
 43 46 0 0 0
SMALL
NO_CHARGES


@<TRIPOS>ATOM
1    C        17.9653   -2.5253    9.7824  C     
2    C        19.1637   -2.1320    9.1033  C     
3    C        19.1600   -0.9726    8.2840  C     
4    N        18.0333   -0.2313    8.1296  N     
5    C        16.9091   -0.5506    8.8030  C     
6    C        16.8542   -1.6499    9.6463  C     
7    C        15.5719   -1.6122   10.1701  C     
8    N        15.7025    0.0366    8.8044  N     
9    N        14.9188   -0.5654    9.6360  N     
10   N        17.8434   -3.7443   10.4198  N     
11   O        17.0213   -5.7585   12.2307  O     
12   C        16.0771   -5.2191   11.2968  C     
13   C        16.7967   -4.6749   10.0429  C     
14   C        18.7826   -4.2308   11.4147  C     
15   C        18.0581   -4.8458   12.6567  C     
16   C        17.5080   -3.8314   13.7098  C     
17   N        18.5985   -3.4116   14.6095  N     
18   C        20.4120   -2.7998    9.3132  C     
19   C        22.0528   -4.5129    8.7056  C     
20   C        22.8290   -4.1854    9.8316  C     
21   C        22.4026   -3.1627   10.6961  C     
22   C        21.2062   -2.4780   10.4401  C     
23   C        20.8517   -3.8247    8.4500  C     
24   H        20.0028   -0.6672    7.7996  H     
25   H        15.2078   -2.2203   10.9011  H     
26   H        15.4577    0.8137    8.2750  H     
27   H        15.4259   -6.0378   10.9956  H     
28   H        15.4721   -4.4347   11.7641  H     
29   H        16.0246   -4.2101    9.4092  H     
30   H        17.2330   -5.5213    9.5050  H     
31   H        19.3569   -5.0356   10.9318  H     
32   H        19.5192   -3.4939   11.7262  H     
33   H        18.7883   -5.4852   13.1636  H     
34   H        17.0325   -2.9423   13.2382  H     
35   H        16.7589   -4.3331   14.3210  H     
36   H        18.9840   -4.2294   15.0907  H     
37   H        18.2394   -2.7500   15.3003  H     
38   H        19.3408   -2.9670   14.0606  H     
39   H        22.3700   -5.2450    8.0665  H     
40   H        23.7042   -4.6785   10.0076  H     
41   H        22.9732   -2.9136   11.5081  H     
42   H        20.9178   -1.7402   11.0860  H     
43   H        20.2946   -4.0929    7.6376  H     
@<TRIPOS>BOND
     1    1    2 2
     2    1    6 1
     3    1   10 1
     4    2    3 1
     5    2   18 1
     6    3    4 2
     7    4    5 1
     8    5    6 2
     9    5    8 1
    10    6    7 1
    11    7    9 2
    12    8    9 1
    13   10   13 1
    14   10   14 1
    15   11   12 1
    16   11   15 1
    17   12   13 1
    18   14   15 1
    19   15   16 1
    20   16   17 1
    21   18   22 1
    22   18   23 2
    23   19   20 2
    24   19   23 1
    25   20   21 1
    26   21   22 2
    27    3   24 1
    28    7   25 1
    29    8   26 1
    30   12   27 1
    31   12   28 1
    32   13   29 1
    33   13   30 1
    34   14   31 1
    35   14   32 1
    36   15   33 1
    37   16   34 1
    38   16   35 1
    39   17   36 1
    40   17   37 1
    41   17   38 1
    42   19   39 1
    43   20   40 1
    44   21   41 1
    45   22   42 1
    46   23   43 1
@<TRIPOS>PROPERTY_DATA
  Total_Score	| 4.6907
  Crash		| -1.2346
  Polar		| 1.3997
  FragIndex	| 1
  FragRMSD	| 0.636

