@<TRIPOS>MOLECULE
BindingDB_33217
 43 46 0 0 0
SMALL
NO_CHARGES


@<TRIPOS>ATOM
1    C        17.6924   -2.4406    9.5896  C     
2    C        18.9240   -1.9370    9.0282  C     
3    C        18.8525   -0.7655    8.2155  C     
4    N        17.7137   -0.0413    8.0921  N     
5    C        16.5855   -0.4512    8.7036  C     
6    C        16.5361   -1.6329    9.4334  C     
7    C        15.2384   -1.6530    9.9325  C     
8    N        15.3935    0.1521    8.7804  N     
9    N        14.5906   -0.5526    9.5108  N     
10   N        17.6333   -3.4599   10.5064  N     
11   O        16.4325   -4.8373   12.6313  O     
12   C        15.9522   -5.0719   11.2881  C     
13   C        17.0767   -4.7911   10.2618  C     
14   C        18.1240   -3.2172   11.8435  C     
15   C        16.9863   -3.5204   12.8635  C     
16   C        17.4380   -3.3952   14.3411  C     
17   N        18.8702   -3.6288   14.5547  N     
18   C        20.2207   -2.5414    9.2216  C     
19   C        22.6882   -2.4331    9.3214  C     
20   C        22.7628   -3.8207    9.5248  C     
21   C        21.5822   -4.5756    9.5724  C     
22   C        20.3438   -3.9303    9.4114  C     
23   C        21.4342   -1.8062    9.1779  C     
24   H        19.6701   -0.4152    7.7118  H     
25   H        14.8302   -2.3482   10.5486  H     
26   H        15.1694    1.0095    8.3848  H     
27   H        15.6439   -6.1143   11.2205  H     
28   H        15.0744   -4.4617   11.0804  H     
29   H        16.7954   -5.0287    9.2108  H     
30   H        17.8665   -5.5166   10.4695  H     
31   H        18.9772   -3.8753   12.0257  H     
32   H        18.4652   -2.1867   11.9834  H     
33   H        16.1900   -2.7836   12.7186  H     
34   H        17.2014   -2.3973   14.7127  H     
35   H        16.8848   -4.1145   14.9481  H     
36   H        19.4150   -2.9301   14.0494  H     
37   H        19.1240   -4.5658   14.2345  H     
38   H        19.0651   -3.5392   15.5526  H     
39   H        23.5466   -1.8813    9.2760  H     
40   H        23.6715   -4.2787    9.6267  H     
41   H        21.6228   -5.5878    9.7111  H     
42   H        19.5084   -4.4670    9.4304  H     
43   H        21.4184   -0.7952    9.0363  H     
@<TRIPOS>BOND
     1    1    2 2
     2    1    6 1
     3    1   10 1
     4    2    3 1
     5    2   18 1
     6    3    4 2
     7    4    5 1
     8    5    6 2
     9    5    8 1
    10    6    7 1
    11    7    9 2
    12    8    9 1
    13   10   13 1
    14   10   14 1
    15   11   12 1
    16   11   15 1
    17   12   13 1
    18   14   15 1
    19   15   16 1
    20   16   17 1
    21   18   22 1
    22   18   23 2
    23   19   20 2
    24   19   23 1
    25   20   21 1
    26   21   22 2
    27    3   24 1
    28    7   25 1
    29    8   26 1
    30   12   27 1
    31   12   28 1
    32   13   29 1
    33   13   30 1
    34   14   31 1
    35   14   32 1
    36   15   33 1
    37   16   34 1
    38   16   35 1
    39   17   36 1
    40   17   37 1
    41   17   38 1
    42   19   39 1
    43   20   40 1
    44   21   41 1
    45   22   42 1
    46   23   43 1
@<TRIPOS>PROPERTY_DATA
  Total_Score	| 5.5239
  Crash		| -1.6430
  Polar		| 2.3140
  FragIndex	| 1
  FragRMSD	| 0.826

