@<TRIPOS>MOLECULE
BindingDB_10110
 47 50 0 0 0
SMALL
NO_CHARGES


@<TRIPOS>ATOM
1    C        14.3803   -7.6709   12.8228  C     
2    C        15.3808   -7.0885   13.6590  C     
3    C        15.6640   -7.6278   14.9317  C     
4    C        14.9642   -8.7525   15.3933  C     
5    F        16.0755   -6.0350   13.2972  F     
6    C        13.6607   -8.8066   13.2987  C     
7    C        12.6378   -9.6379   12.8237  C     
8    C        13.9805   -9.3035   14.5635  C     
9    C        12.4546  -10.5878   13.7873  C     
10   N        13.2329  -10.3657   14.8095  N     
11   O        11.7799  -11.6100   13.7737  O     
12   C        11.8947   -9.4184   11.7114  C     
13   C        10.8227  -10.1450   11.1773  C     
14   C         9.0482  -10.6684    9.8827  C     
15   C        10.0601   -9.7280   10.0698  C     
16   C         9.2428  -11.6652   10.8264  C     
17   N        10.3049  -11.3260   11.5733  N     
18   C        14.2035   -7.1414   11.6402  C     
19   C        14.1343   -6.5945   10.5788  C     
20   C        14.1526   -5.9125    9.3773  C     
21   C        15.6069   -7.5247    7.9781  C     
22   C        15.5177   -6.1315    8.6553  C     
23   C        12.9860   -6.3009    8.4239  C     
24   C        13.2192   -7.6662    7.7332  C     
25   O        14.0039   -4.5275    9.6986  O     
26   O        10.2207   -8.5441    9.3979  O     
27   C         9.8444   -8.5581    8.0093  C     
28   O        14.5027   -7.7259    7.0813  O     
29   H        16.3889   -7.2156   15.5228  H     
30   H        15.1602   -9.1578   16.3123  H     
31   H        13.3004  -10.9222   15.6035  H     
32   H        12.0845   -8.5788   11.2172  H     
33   H         8.2940  -10.6295    9.1970  H     
34   H         8.6619  -12.4968   10.9541  H     
35   H        10.6453  -11.8805   12.2904  H     
36   H        16.5303   -7.5916    7.4019  H     
37   H        15.6234   -8.3138    8.7322  H     
38   H        15.6256   -5.3702    7.8771  H     
39   H        16.3561   -6.0172    9.3552  H     
40   H        12.0363   -6.3110    8.9632  H     
41   H        12.9091   -5.5398    7.6366  H     
42   H        13.1375   -8.4663    8.4704  H     
43   H        12.4503   -7.8227    6.9728  H     
44   H        14.9101   -4.1740    9.8444  H     
45   H        10.4294   -9.3041    7.4584  H     
46   H        10.0478   -7.5713    7.5945  H     
47   H         8.7841   -8.7721    7.8807  H     
@<TRIPOS>BOND
     1    1    2 1
     2    1    6 2
     3    1   18 1
     4    2    3 2
     5    2    5 1
     6    3    4 1
     7    4    8 2
     8    6    7 1
     9    6    8 1
    10    7    9 1
    11    7   12 2
    12    8   10 1
    13    9   10 1
    14    9   11 2
    15   12   13 1
    16   13   15 2
    17   13   17 1
    18   14   15 1
    19   14   16 2
    20   15   26 1
    21   16   17 1
    22   18   19 3
    23   19   20 1
    24   20   22 1
    25   20   23 1
    26   20   25 1
    27   21   22 1
    28   21   28 1
    29   23   24 1
    30   24   28 1
    31   26   27 1
    32    3   29 1
    33    4   30 1
    34   10   31 1
    35   12   32 1
    36   14   33 1
    37   16   34 1
    38   17   35 1
    39   21   36 1
    40   21   37 1
    41   22   38 1
    42   22   39 1
    43   23   40 1
    44   23   41 1
    45   24   42 1
    46   24   43 1
    47   25   44 1
    48   27   45 1
    49   27   46 1
    50   27   47 1
@<TRIPOS>PROPERTY_DATA
  Total_Score	| 9.4612
  Crash		| -1.2606
  Polar		| 3.3850
  FragIndex	| 1
  FragRMSD	| 0.701

