@<TRIPOS>MOLECULE
BindingDB_10102
 45 47 0 0 0
SMALL
NO_CHARGES


@<TRIPOS>ATOM
1    C        14.6503   -7.6383   12.8032  C     
2    C        15.6690   -7.0418   13.6059  C     
3    C        15.9204   -7.5040   14.9161  C     
4    C        15.1736   -8.5732   15.4412  C     
5    F        16.4090   -6.0430   13.1777  F     
6    C        13.8777   -8.7049   13.3456  C     
7    C        12.7893   -9.4757   12.9150  C     
8    C        14.1759   -9.1513   14.6365  C     
9    C        12.5128  -10.3208   13.9482  C     
10   N        13.3367  -10.1303   14.9495  N     
11   O        11.5369  -11.0307   14.1253  O     
12   C        12.1176   -9.3319   11.7434  C     
13   C        11.0631  -10.0567   11.1797  C     
14   C         9.4435  -10.6974    9.7610  C     
15   C        10.4149   -9.7168    9.9772  C     
16   C         9.5406  -11.6083   10.8013  C     
17   N        10.5257  -11.2097   11.6177  N     
18   O        10.7370   -8.6125    9.2230  O     
19   C        10.1332   -8.4791    7.9208  C     
20   C        14.4635   -7.1696   11.5986  C     
21   C        14.3202   -6.7451   10.4870  C     
22   C        14.1931   -6.2609    9.2121  C     
23   C        15.4540   -6.6336    8.3781  C     
24   O        15.3551   -7.9670    7.8614  O     
25   N        13.9585   -4.8043    9.3151  N     
26   C        13.3536   -4.1390    8.1379  C     
27   H        16.6396   -7.0686   15.4959  H     
28   H        15.3337   -8.9111   16.3949  H     
29   H        13.2822  -10.5584   15.8151  H     
30   H        12.4007   -8.5715   11.1829  H     
31   H         8.7840  -10.7673    8.9726  H     
32   H         8.9905  -12.4709   10.9187  H     
33   H        10.8304  -11.7141   12.3924  H     
34   H        10.3648   -9.3422    7.2808  H     
35   H        10.5336   -7.5890    7.4453  H     
36   H         9.0470   -8.3682    7.9967  H     
37   H        13.3140   -6.7347    8.7643  H     
38   H        15.5480   -5.9288    7.5373  H     
39   H        16.3489   -6.5648    9.0039  H     
40   H        16.2301   -8.1806    7.4569  H     
41   H        13.3188   -4.6479   10.0991  H     
42   H        14.8407   -4.3286    9.5270  H     
43   H        14.1188   -3.9817    7.3701  H     
44   H        12.9445   -3.1791    8.4444  H     
45   H        12.5441   -4.7353    7.7185  H     
@<TRIPOS>BOND
     1    1    2 1
     2    1    6 2
     3    1   20 1
     4    2    3 2
     5    2    5 1
     6    3    4 1
     7    4    8 2
     8    6    7 1
     9    6    8 1
    10    7    9 1
    11    7   12 2
    12    8   10 1
    13    9   10 1
    14    9   11 2
    15   12   13 1
    16   13   15 2
    17   13   17 1
    18   14   15 1
    19   14   16 2
    20   15   18 1
    21   16   17 1
    22   18   19 1
    23   20   21 3
    24   21   22 1
    25   22   23 1
    26   22   25 1
    27   23   24 1
    28   25   26 1
    29    3   27 1
    30    4   28 1
    31   10   29 1
    32   12   30 1
    33   14   31 1
    34   16   32 1
    35   17   33 1
    36   19   34 1
    37   19   35 1
    38   19   36 1
    39   22   37 1
    40   23   38 1
    41   23   39 1
    42   24   40 1
    43   25   41 1
    44   25   42 1
    45   26   43 1
    46   26   44 1
    47   26   45 1
@<TRIPOS>PROPERTY_DATA
  Total_Score	| 10.2243
  Crash		| -0.7779
  Polar		| 4.0824
  FragIndex	| 1
  FragRMSD	| 0.467

