@<TRIPOS>MOLECULE
BindingDB_10097
 39 41 0 0 0
SMALL
NO_CHARGES


@<TRIPOS>ATOM
1    C        14.6361   -7.5705   12.8401  C     
2    C        15.7089   -6.9927   13.5761  C     
3    C        16.0253   -7.4619   14.8694  C     
4    C        15.3015   -8.5226   15.4374  C     
5    F        16.4427   -6.0189   13.0921  F     
6    C        13.8756   -8.6213   13.4299  C     
7    C        12.7610   -9.3864   13.0702  C     
8    C        14.2562   -9.0852   14.6929  C     
9    C        12.5848  -10.2811   14.0814  C     
10   N        13.4589  -10.0872   15.0357  N     
11   O        11.6593  -11.0481   14.2780  O     
12   C        11.9397   -9.1458   12.0242  C     
13   C        10.8679   -9.8970   11.5490  C     
14   C         9.0123  -10.4589   10.4048  C     
15   C         9.9075   -9.4247   10.6471  C     
16   C         9.4629  -11.5532   11.1259  C     
17   N        10.5712  -11.1903   11.7889  N     
18   O         9.8337   -8.1589   10.1392  O     
19   C        10.3244   -8.0680    8.7919  C     
20   C        14.4168   -7.1505   11.6242  C     
21   C        14.2469   -6.7620   10.5065  C     
22   C        14.0666   -6.3254    9.2207  C     
23   O        14.0757   -4.8974    9.2033  O     
24   C        15.1476   -6.8898    8.2672  C     
25   H        16.7941   -7.0410   15.3980  H     
26   H        15.5247   -8.8686   16.3720  H     
27   H        13.4827  -10.5567   15.8836  H     
28   H        12.0922   -8.3014   11.5319  H     
29   H         8.1861  -10.4235    9.8039  H     
30   H         9.0304  -12.4779   11.1504  H     
31   H        11.0862  -11.7870   12.3524  H     
32   H        11.3279   -8.4968    8.6915  H     
33   H        10.3741   -7.0118    8.5196  H     
34   H         9.6455   -8.5701    8.0980  H     
35   H        13.0840   -6.6619    8.8794  H     
36   H        14.9686   -4.6239    9.5084  H     
37   H        16.1479   -6.5861    8.5907  H     
38   H        14.9805   -6.5114    7.2562  H     
39   H        15.1064   -7.9838    8.2357  H     
@<TRIPOS>BOND
     1    1    2 1
     2    1    6 2
     3    1   20 1
     4    2    3 2
     5    2    5 1
     6    3    4 1
     7    4    8 2
     8    6    7 1
     9    6    8 1
    10    7    9 1
    11    7   12 2
    12    8   10 1
    13    9   10 1
    14    9   11 2
    15   12   13 1
    16   13   15 2
    17   13   17 1
    18   14   15 1
    19   14   16 2
    20   15   18 1
    21   16   17 1
    22   18   19 1
    23   20   21 3
    24   21   22 1
    25   22   23 1
    26   22   24 1
    27    3   25 1
    28    4   26 1
    29   10   27 1
    30   12   28 1
    31   14   29 1
    32   16   30 1
    33   17   31 1
    34   19   32 1
    35   19   33 1
    36   19   34 1
    37   22   35 1
    38   23   36 1
    39   24   37 1
    40   24   38 1
    41   24   39 1
@<TRIPOS>PROPERTY_DATA
  Total_Score	| 8.6674
  Crash		| -0.6787
  Polar		| 3.5960
  FragIndex	| 1
  FragRMSD	| 0.428

