@<TRIPOS>MOLECULE
BindingDB_10107
 51 53 0 0 0
SMALL
NO_CHARGES


@<TRIPOS>ATOM
1    C        14.6134   -7.6024   12.7723  C     
2    C        15.6927   -7.0241   13.5020  C     
3    C        16.0229   -7.5040   14.7856  C     
4    C        15.3076   -8.5737   15.3448  C     
5    F        16.3959   -6.0290   13.0355  F     
6    C        13.8794   -8.6910   13.3321  C     
7    C        12.7810   -9.4888   12.9732  C     
8    C        14.2697   -9.1444   14.5977  C     
9    C        12.5934  -10.3457   14.0086  C     
10   N        13.4700  -10.1403   14.9538  N     
11   O        11.6624  -11.1093   14.2247  O     
12   C        12.0275   -9.3450   11.8556  C     
13   C        10.9215  -10.0699   11.4140  C     
14   C         9.0184  -10.5758   10.3138  C     
15   C        10.0075   -9.6013   10.4575  C     
16   C         9.3549  -11.6251   11.1522  C     
17   N        10.4992  -11.3035   11.7809  N     
18   O        10.0550   -8.3438    9.8968  O     
19   C         9.8174   -8.2753    8.4829  C     
20   C        14.3005   -7.0818   11.6125  C     
21   C        13.9947   -6.6092   10.5580  C     
22   C        13.6185   -6.1136    9.3422  C     
23   C        14.1588   -7.0167    8.1876  C     
24   O        14.0504   -8.3992    8.5599  O     
25   C        15.6056   -6.7041    7.7291  C     
26   N        14.0487   -4.6938    9.2692  N     
27   C        13.7073   -3.9194    8.0429  C     
28   C        14.8409   -2.9421    7.6566  C     
29   H        16.7741   -7.0713   15.3218  H     
30   H        15.5299   -8.9234   16.2840  H     
31   H        13.4912  -10.5902   15.8196  H     
32   H        12.2412   -8.5772   11.2792  H     
33   H         8.1871  -10.5196    9.7309  H     
34   H         8.8270  -12.4836   11.2914  H     
35   H        10.9523  -11.8887   12.4093  H     
36   H        10.4664   -8.9604    7.9332  H     
37   H        10.0340   -7.2566    8.1519  H     
38   H         8.7737   -8.4875    8.2533  H     
39   H        12.5282   -6.1418    9.3281  H     
40   H        13.5014   -6.8989    7.3164  H     
41   H        14.4868   -8.8905    7.8188  H     
42   H        15.6681   -5.6863    7.3514  H     
43   H        15.9027   -7.3799    6.9254  H     
44   H        16.3052   -6.8177    8.5544  H     
45   H        13.6106   -4.2097   10.0508  H     
46   H        15.0588   -4.6386    9.4197  H     
47   H        13.4846   -4.5674    7.1848  H     
48   H        12.8030   -3.3346    8.2473  H     
49   H        15.0412   -2.2595    8.4769  H     
50   H        14.5387   -2.3640    6.7793  H     
51   H        15.7451   -3.4925    7.4126  H     
@<TRIPOS>BOND
     1    1    2 1
     2    1    6 2
     3    1   20 1
     4    2    3 2
     5    2    5 1
     6    3    4 1
     7    4    8 2
     8    6    7 1
     9    6    8 1
    10    7    9 1
    11    7   12 2
    12    8   10 1
    13    9   10 1
    14    9   11 2
    15   12   13 1
    16   13   15 2
    17   13   17 1
    18   14   15 1
    19   14   16 2
    20   15   18 1
    21   16   17 1
    22   18   19 1
    23   20   21 3
    24   21   22 1
    25   22   23 1
    26   22   26 1
    27   23   24 1
    28   23   25 1
    29   26   27 1
    30   27   28 1
    31    3   29 1
    32    4   30 1
    33   10   31 1
    34   12   32 1
    35   14   33 1
    36   16   34 1
    37   17   35 1
    38   19   36 1
    39   19   37 1
    40   19   38 1
    41   22   39 1
    42   23   40 1
    43   24   41 1
    44   25   42 1
    45   25   43 1
    46   25   44 1
    47   26   45 1
    48   26   46 1
    49   27   47 1
    50   27   48 1
    51   28   49 1
    52   28   50 1
    53   28   51 1
@<TRIPOS>PROPERTY_DATA
  Total_Score	| 11.0498
  Crash		| -1.4150
  Polar		| 3.8591
  FragIndex	| 1
  FragRMSD	| 0.690

