@<TRIPOS>MOLECULE
BindingDB_10105
 45 47 0 0 0
SMALL
NO_CHARGES


@<TRIPOS>ATOM
1    C        14.6501   -7.6861   12.7764  C     
2    C        15.6636   -7.0819   13.5725  C     
3    C        15.9157   -7.5468   14.8833  C     
4    C        15.1752   -8.6168   15.4112  C     
5    F        16.3901   -6.0737   13.1443  F     
6    C        13.8878   -8.7653   13.3132  C     
7    C        12.8025   -9.5452   12.8962  C     
8    C        14.1832   -9.1965   14.6091  C     
9    C        12.5508  -10.4101   13.9206  C     
10   N        13.3645  -10.1860   14.9208  N     
11   O        11.7110  -11.2963   14.0046  O     
12   C        12.0881   -9.3761   11.7519  C     
13   C        10.9686  -10.0466   11.2713  C     
14   C         9.0916  -10.4442   10.0823  C     
15   C        10.1164   -9.5296   10.2826  C     
16   C         9.3437  -11.5109   10.9256  C     
17   N        10.4629  -11.2494   11.6212  N     
18   O        10.2006   -8.3197    9.6552  O     
19   C        11.1384   -8.3127    8.5662  C     
20   C        14.4183   -7.1795   11.5946  C     
21   C        14.2033   -6.6468   10.5448  C     
22   C        13.9080   -5.9931    9.3736  C     
23   C        14.9470   -6.2602    8.2424  C     
24   O        15.1473   -5.0630    7.4906  O     
25   N        13.8454   -4.5649    9.7037  N     
26   C        14.5036   -7.3793    7.2684  C     
27   H        16.6319   -7.1007   15.4640  H     
28   H        15.3332   -8.9493   16.3607  H     
29   H        13.3597  -10.6701   15.7600  H     
30   H        12.3799   -8.6389   11.1594  H     
31   H         8.2948  -10.3444    9.4407  H     
32   H         8.7742  -12.3508   11.0224  H     
33   H        10.8581  -11.8562   12.2573  H     
34   H        12.1554   -8.4652    8.9292  H     
35   H        11.0974   -7.3366    8.0853  H     
36   H        10.8935   -9.0743    7.8189  H     
37   H        12.9018   -6.2997    9.0475  H     
38   H        15.9185   -6.5333    8.6818  H     
39   H        15.8156   -5.2876    6.8038  H     
40   H        13.2254   -4.4203   10.5066  H     
41   H        13.4811   -4.0538    8.8992  H     
42   H        14.7773   -4.2152    9.9314  H     
43   H        14.3021   -8.3017    7.8141  H     
44   H        15.2952   -7.5671    6.5396  H     
45   H        13.6028   -7.0764    6.7367  H     
@<TRIPOS>BOND
     1    1    2 1
     2    1    6 2
     3    1   20 1
     4    2    3 2
     5    2    5 1
     6    3    4 1
     7    4    8 2
     8    6    7 1
     9    6    8 1
    10    7    9 1
    11    7   12 2
    12    8   10 1
    13    9   10 1
    14    9   11 2
    15   12   13 1
    16   13   15 2
    17   13   17 1
    18   14   15 1
    19   14   16 2
    20   15   18 1
    21   16   17 1
    22   18   19 1
    23   20   21 3
    24   21   22 1
    25   22   23 1
    26   22   25 1
    27   23   24 1
    28   23   26 1
    29    3   27 1
    30    4   28 1
    31   10   29 1
    32   12   30 1
    33   14   31 1
    34   16   32 1
    35   17   33 1
    36   19   34 1
    37   19   35 1
    38   19   36 1
    39   22   37 1
    40   23   38 1
    41   24   39 1
    42   25   40 1
    43   25   41 1
    44   25   42 1
    45   26   43 1
    46   26   44 1
    47   26   45 1
@<TRIPOS>PROPERTY_DATA
  Total_Score	| 10.1426
  Crash		| -1.1983
  Polar		| 4.8104
  FragIndex	| 1
  FragRMSD	| 0.592

