@<TRIPOS>MOLECULE
BindingDB_10103
 48 50 0 0 0
SMALL
NO_CHARGES


@<TRIPOS>ATOM
1    C        14.5804   -7.6284   12.7783  C     
2    C        15.5674   -6.9860   13.5704  C     
3    C        15.8361   -7.4396   14.8845  C     
4    C        15.1692   -8.5630   15.4025  C     
5    F        16.2580   -5.9620   13.1409  F     
6    C        13.8632   -8.7276   13.3263  C     
7    C        12.8083   -9.5366   12.8995  C     
8    C        14.1997   -9.1880   14.6005  C     
9    C        12.6688  -10.4998   13.8439  C     
10   N        13.4673  -10.2691   14.8594  N     
11   O        11.7914  -11.3458   13.9747  O     
12   C        12.0113   -9.2695   11.8396  C     
13   C        11.0095  -10.0097   11.2250  C     
14   C         9.4608  -10.6193    9.7162  C     
15   C        10.4070   -9.6418   10.0135  C     
16   C         9.5335  -11.5725   10.7182  C     
17   N        10.4703  -11.1898   11.5907  N     
18   O        10.7630   -8.4922    9.3464  O     
19   C        10.2753   -8.3045    8.0073  C     
20   C        14.4342   -7.2549   11.5445  C     
21   C        14.3315   -6.9075   10.3998  C     
22   C        14.2606   -6.5523    9.0715  C     
23   C        15.4771   -7.1935    8.3290  C     
24   O        15.3904   -7.0606    6.9086  O     
25   N        14.1849   -5.0685    8.9880  N     
26   C        13.9926   -4.4926    7.6229  C     
27   C        13.6680   -2.9979    7.7103  C     
28   H        16.5394   -6.9671   15.4623  H     
29   H        15.3697   -8.9007   16.3467  H     
30   H        13.4830  -10.7827   15.6814  H     
31   H        12.1341   -8.3722   11.4512  H     
32   H         8.8379  -10.6340    8.9040  H     
33   H         8.9755  -12.4257   10.7699  H     
34   H        10.7199  -11.7225   12.3557  H     
35   H        10.5154   -9.1634    7.3623  H     
36   H        10.7557   -7.4124    7.5950  H     
37   H         9.1883   -8.1415    8.0236  H     
38   H        13.3302   -6.9878    8.6810  H     
39   H        16.4191   -6.7210    8.6275  H     
40   H        15.5355   -8.2718    8.5672  H     
41   H        14.7967   -7.8043    6.6339  H     
42   H        13.3720   -4.7749    9.5471  H     
43   H        15.0317   -4.6640    9.4156  H     
44   H        14.8879   -4.6338    7.0112  H     
45   H        13.1524   -5.0092    7.1320  H     
46   H        12.6954   -2.8529    8.1930  H     
47   H        13.6203   -2.5776    6.7012  H     
48   H        14.4382   -2.4713    8.2821  H     
@<TRIPOS>BOND
     1    1    2 1
     2    1    6 2
     3    1   20 1
     4    2    3 2
     5    2    5 1
     6    3    4 1
     7    4    8 2
     8    6    7 1
     9    6    8 1
    10    7    9 1
    11    7   12 2
    12    8   10 1
    13    9   10 1
    14    9   11 2
    15   12   13 1
    16   13   15 2
    17   13   17 1
    18   14   15 1
    19   14   16 2
    20   15   18 1
    21   16   17 1
    22   18   19 1
    23   20   21 3
    24   21   22 1
    25   22   23 1
    26   22   25 1
    27   23   24 1
    28   25   26 1
    29   26   27 1
    30    3   28 1
    31    4   29 1
    32   10   30 1
    33   12   31 1
    34   14   32 1
    35   16   33 1
    36   17   34 1
    37   19   35 1
    38   19   36 1
    39   19   37 1
    40   22   38 1
    41   23   39 1
    42   23   40 1
    43   24   41 1
    44   25   42 1
    45   25   43 1
    46   26   44 1
    47   26   45 1
    48   27   46 1
    49   27   47 1
    50   27   48 1
@<TRIPOS>PROPERTY_DATA
  Total_Score	| 10.3582
  Crash		| -0.7369
  Polar		| 3.9200
  FragIndex	| 1
  FragRMSD	| 0.467

