@<TRIPOS>MOLECULE
BindingDB_10101
 42 44 0 0 0
SMALL
NO_CHARGES


@<TRIPOS>ATOM
1    C        14.6343   -7.7058   12.7977  C     
2    C        15.6353   -7.0784   13.5947  C     
3    C        15.8738   -7.5100   14.9181  C     
4    C        15.1373   -8.5775   15.4599  C     
5    F        16.3590   -6.0739   13.1559  F     
6    C        13.8664   -8.7732   13.3514  C     
7    C        12.7862   -9.5650   12.9518  C     
8    C        14.1650   -9.1870   14.6534  C     
9    C        12.5382  -10.4036   13.9876  C     
10   N        13.3488  -10.1745   14.9845  N     
11   O        11.6387  -11.2162   14.1371  O     
12   C        12.0565   -9.4091   11.8195  C     
13   C        10.9280  -10.0934   11.3804  C     
14   C         9.0037  -10.5055   10.2916  C     
15   C        10.0003   -9.5519   10.4807  C     
16   C         9.3456  -11.6072   11.0688  C     
17   N        10.5010  -11.3383   11.6929  N     
18   O        10.0575   -8.2801    9.9697  O     
19   C         9.9208   -8.1923    8.5403  C     
20   C        14.4367   -7.2460   11.5876  C     
21   C        14.2402   -6.7928   10.4985  C     
22   C        14.0018   -6.2371    9.2700  C     
23   C        15.0223   -6.6830    8.1977  C     
24   O        14.8706   -8.0715    7.9016  O     
25   N        13.9953   -4.7765    9.4159  N     
26   H        16.5794   -7.0452   15.4982  H     
27   H        15.2967   -8.8918   16.4181  H     
28   H        13.3343  -10.6191   15.8487  H     
29   H        12.3177   -8.6493   11.2441  H     
30   H         8.1723  -10.4078    9.7088  H     
31   H         8.8137  -12.4743   11.1521  H     
32   H        10.9528  -11.9553   12.2797  H     
33   H        10.6279   -8.8534    8.0245  H     
34   H        10.1374   -7.1630    8.2380  H     
35   H         8.8968   -8.4353    8.2364  H     
36   H        13.0027   -6.5374    8.9500  H     
37   H        14.8553   -6.1157    7.2774  H     
38   H        16.0458   -6.4970    8.5360  H     
39   H        15.4927   -8.2461    7.1669  H     
40   H        13.3052   -4.5078   10.1180  H     
41   H        13.7506   -4.3452    8.5210  H     
42   H        14.9184   -4.4460    9.7063  H     
@<TRIPOS>BOND
     1    1    2 1
     2    1    6 2
     3    1   20 1
     4    2    3 2
     5    2    5 1
     6    3    4 1
     7    4    8 2
     8    6    7 1
     9    6    8 1
    10    7    9 1
    11    7   12 2
    12    8   10 1
    13    9   10 1
    14    9   11 2
    15   12   13 1
    16   13   15 2
    17   13   17 1
    18   14   15 1
    19   14   16 2
    20   15   18 1
    21   16   17 1
    22   18   19 1
    23   20   21 3
    24   21   22 1
    25   22   23 1
    26   22   25 1
    27   23   24 1
    28    3   26 1
    29    4   27 1
    30   10   28 1
    31   12   29 1
    32   14   30 1
    33   16   31 1
    34   17   32 1
    35   19   33 1
    36   19   34 1
    37   19   35 1
    38   22   36 1
    39   23   37 1
    40   23   38 1
    41   24   39 1
    42   25   40 1
    43   25   41 1
    44   25   42 1
@<TRIPOS>PROPERTY_DATA
  Total_Score	| 9.5152
  Crash		| -0.6638
  Polar		| 3.8476
  FragIndex	| 1
  FragRMSD	| 0.351

