@<TRIPOS>MOLECULE
BindingDB_10114
 46 49 0 0 0
SMALL
NO_CHARGES


@<TRIPOS>ATOM
1    C        14.8000   -7.8000   12.7525  C     
2    C        15.7568   -7.1786   13.6049  C     
3    C        15.8797   -7.5644   14.9579  C     
4    C        15.0619   -8.5775   15.4769  C     
5    F        16.5856   -6.2506   13.1772  F     
6    C        13.9308   -8.7961   13.2888  C     
7    C        12.8793   -9.5947   12.8238  C     
8    C        14.1070   -9.1559   14.6310  C     
9    C        12.5516  -10.4083   13.8675  C     
10   N        13.2689  -10.1320   14.9208  N     
11   O        11.8513  -11.3998   13.9201  O     
12   C        12.2507   -9.4599   11.6288  C     
13   C        11.1109  -10.1087   11.1197  C     
14   C         9.3422  -10.6076    9.8129  C     
15   C        10.4116   -9.7112    9.9644  C     
16   C         9.4329  -11.5377   10.8292  C     
17   N        10.4927  -11.2183   11.5759  N     
18   C        14.8585   -7.4939   11.4823  C     
19   O        10.7515   -8.6430    9.1618  O     
20   C        10.0881   -8.5395    7.8882  C     
21   C        15.0391   -7.1842   10.3403  C     
22   C        15.3240   -6.8126    9.0500  C     
23   C        14.2708   -7.3335    6.9655  C     
24   C        14.5522   -5.5616    8.5586  C     
25   C        13.5452   -6.1088    7.5418  C     
26   N        15.0008   -7.9046    8.1080  N     
27   O        12.3523   -6.5213    8.2137  O     
28   H        16.5811   -7.1319   15.5621  H     
29   H        15.1515   -8.8842   16.4457  H     
30   H        13.2577  -10.6337   15.7557  H     
31   H        12.6165   -8.7638   11.0208  H     
32   H         8.6393  -10.6169    9.0717  H     
33   H         8.8201  -12.3457   10.9651  H     
34   H        10.7889  -11.7690   12.3050  H     
35   H        10.2081   -9.4575    7.3018  H     
36   H        10.5349   -7.7259    7.3299  H     
37   H         9.0234   -8.3240    8.0202  H     
38   H        16.3980   -6.6161    8.9943  H     
39   H        13.5780   -8.0668    6.5485  H     
40   H        14.9787   -7.0276    6.1889  H     
41   H        14.0538   -5.0108    9.3643  H     
42   H        15.2357   -4.8799    8.0462  H     
43   H        13.3002   -5.3808    6.7658  H     
44   H        15.8576   -8.3650    7.7830  H     
45   H        14.4035   -8.5964    8.5739  H     
46   H        11.8894   -5.7023    8.4886  H     
@<TRIPOS>BOND
     1    1    2 1
     2    1    6 2
     3    1   18 1
     4    2    3 2
     5    2    5 1
     6    3    4 1
     7    4    8 2
     8    6    7 1
     9    6    8 1
    10    7    9 1
    11    7   12 2
    12    8   10 1
    13    9   10 1
    14    9   11 2
    15   12   13 1
    16   13   15 2
    17   13   17 1
    18   14   15 1
    19   14   16 2
    20   15   19 1
    21   16   17 1
    22   18   21 3
    23   19   20 1
    24   22   21 1
    25   22   24 1
    26   22   26 1
    27   23   25 1
    28   23   26 1
    29   24   25 1
    30   25   27 1
    31    3   28 1
    32    4   29 1
    33   10   30 1
    34   12   31 1
    35   14   32 1
    36   16   33 1
    37   17   34 1
    38   20   35 1
    39   20   36 1
    40   20   37 1
    41   22   38 1
    42   23   39 1
    43   23   40 1
    44   24   41 1
    45   24   42 1
    46   25   43 1
    47   26   44 1
    48   26   45 1
    49   27   46 1
@<TRIPOS>PROPERTY_DATA
  Total_Score	| 9.9047
  Crash		| -0.6917
  Polar		| 3.2571
  FragIndex	| 1
  FragRMSD	| 1.095

