@<TRIPOS>MOLECULE
BindingDB_10098
 42 44 0 0 0
SMALL
NO_CHARGES


@<TRIPOS>ATOM
1    C        14.6413   -7.6172   12.7320  C     
2    C        15.7326   -7.0644   13.4704  C     
3    C        16.0550   -7.5686   14.7476  C     
4    C        15.2944   -8.6023   15.3118  C     
5    F        16.4490   -6.0645   13.0185  F     
6    C        13.8777   -8.6827   13.2981  C     
7    C        12.7593   -9.4378   12.9232  C     
8    C        14.2422   -9.1441   14.5673  C     
9    C        12.4967  -10.2416   13.9885  C     
10   N        13.3825  -10.0814   14.9413  N     
11   O        11.4581  -10.8354   14.2272  O     
12   C        12.0890   -9.3556   11.7509  C     
13   C        11.0617  -10.1449   11.2393  C     
14   C         9.4870  -10.9411    9.8352  C     
15   C        10.3841   -9.8884   10.0367  C     
16   C         9.6536  -11.8315   10.8837  C     
17   N        10.6087  -11.3367   11.6901  N     
18   O        10.6249   -8.7680    9.2685  O     
19   C        10.0504   -8.6982    7.9521  C     
20   C        14.3489   -7.0735   11.5900  C     
21   C        14.1091   -6.4946   10.5716  C     
22   C        13.8611   -5.7633    9.4528  C     
23   O        13.8674   -4.3891    9.8275  O     
24   C        14.9008   -6.0435    8.3401  C     
25   N        15.1583   -4.8320    7.5665  N     
26   H        16.8271   -7.1572   15.2806  H     
27   H        15.4982   -8.9455   16.2512  H     
28   H        13.3397  -10.4793   15.8161  H     
29   H        12.3733   -8.6355   11.1422  H     
30   H         8.8461  -11.0597    9.0520  H     
31   H         9.1791  -12.7293   10.9999  H     
32   H        10.9464  -11.8022   12.4735  H     
33   H        10.3471   -9.5482    7.3346  H     
34   H        10.4156   -7.7855    7.4731  H     
35   H         8.9581   -8.6418    7.9976  H     
36   H        12.8630   -6.0095    9.0874  H     
37   H        14.8042   -4.1680   10.0295  H     
38   H        15.8561   -6.3716    8.7570  H     
39   H        14.5384   -6.8221    7.6642  H     
40   H        14.2734   -4.3965    7.2711  H     
41   H        15.7179   -5.0429    6.7356  H     
42   H        15.6806   -4.1782    8.1647  H     
@<TRIPOS>BOND
     1    1    2 1
     2    1    6 2
     3    1   20 1
     4    2    3 2
     5    2    5 1
     6    3    4 1
     7    4    8 2
     8    6    7 1
     9    6    8 1
    10    7    9 1
    11    7   12 2
    12    8   10 1
    13    9   10 1
    14    9   11 2
    15   12   13 1
    16   13   15 2
    17   13   17 1
    18   14   15 1
    19   14   16 2
    20   15   18 1
    21   16   17 1
    22   18   19 1
    23   20   21 3
    24   21   22 1
    25   22   23 1
    26   22   24 1
    27   24   25 1
    28    3   26 1
    29    4   27 1
    30   10   28 1
    31   12   29 1
    32   14   30 1
    33   16   31 1
    34   17   32 1
    35   19   33 1
    36   19   34 1
    37   19   35 1
    38   22   36 1
    39   23   37 1
    40   24   38 1
    41   24   39 1
    42   25   40 1
    43   25   41 1
    44   25   42 1
@<TRIPOS>PROPERTY_DATA
  Total_Score	| 10.1432
  Crash		| -1.0237
  Polar		| 6.4483
  FragIndex	| 1
  FragRMSD	| 0.918

