@<TRIPOS>MOLECULE
BindingDB_10099
 42 44 0 0 0
SMALL
NO_CHARGES


@<TRIPOS>ATOM
1    C        14.7008   -7.5970   12.8227  C     
2    C        15.7186   -6.9824   13.6093  C     
3    C        15.9862   -7.4379   14.9179  C     
4    C        15.2497   -8.4995   15.4648  C     
5    F        16.4599   -5.9969   13.1641  F     
6    C        13.9346   -8.6663   13.3775  C     
7    C        12.8622   -9.4820   12.9715  C     
8    C        14.2513   -9.0809   14.6769  C     
9    C        12.6415  -10.3190   14.0258  C     
10   N        13.4622  -10.0870   15.0119  N     
11   O        11.7581  -11.1454   14.2147  O     
12   C        12.1602   -9.3760   11.8191  C     
13   C        11.1035  -10.1477   11.3093  C     
14   C         9.4547  -10.8986    9.9630  C     
15   C        10.4000   -9.8760   10.1219  C     
16   C         9.6092  -11.7714   11.0252  C     
17   N        10.6132  -11.3154   11.7899  N     
18   O        10.6578   -8.7885    9.3082  O     
19   C        10.0395   -8.7765    8.0063  C     
20   C        14.5339   -7.1371   11.6152  C     
21   C        14.4538   -6.6625   10.5226  C     
22   C        14.3773   -6.0986    9.2757  C     
23   N        14.0483   -4.6724    9.4059  N     
24   C        13.3275   -6.8111    8.3860  C     
25   O        12.0353   -6.8108    9.0228  O     
26   H        16.7263   -7.0019   15.4755  H     
27   H        15.4385   -8.8357   16.4115  H     
28   H        13.4597  -10.5455   15.8688  H     
29   H        12.4255   -8.6224   11.2315  H     
30   H         8.7785  -11.0102    9.2114  H     
31   H         9.0870  -12.6368   11.1784  H     
32   H        10.9494  -11.8172   12.5426  H     
33   H        10.3572   -9.6330    7.4100  H     
34   H        10.3557   -7.8655    7.4873  H     
35   H         8.9464   -8.7445    8.0884  H     
36   H        15.3599   -6.1819    8.8006  H     
37   H        13.1844   -4.5591    9.9397  H     
38   H        13.9343   -4.2662    8.4814  H     
39   H        14.8111   -4.1923    9.8904  H     
40   H        13.2548   -6.3046    7.4139  H     
41   H        13.6294   -7.8449    8.1994  H     
42   H        11.6780   -5.9022    8.8973  H     
@<TRIPOS>BOND
     1    1    2 1
     2    1    6 2
     3    1   20 1
     4    2    3 2
     5    2    5 1
     6    3    4 1
     7    4    8 2
     8    6    7 1
     9    6    8 1
    10    7    9 1
    11    7   12 2
    12    8   10 1
    13    9   10 1
    14    9   11 2
    15   12   13 1
    16   13   15 2
    17   13   17 1
    18   14   15 1
    19   14   16 2
    20   15   18 1
    21   16   17 1
    22   18   19 1
    23   20   21 3
    24   21   22 1
    25   22   23 1
    26   22   24 1
    27   24   25 1
    28    3   26 1
    29    4   27 1
    30   10   28 1
    31   12   29 1
    32   14   30 1
    33   16   31 1
    34   17   32 1
    35   19   33 1
    36   19   34 1
    37   19   35 1
    38   22   36 1
    39   23   37 1
    40   23   38 1
    41   23   39 1
    42   24   40 1
    43   24   41 1
    44   25   42 1
@<TRIPOS>PROPERTY_DATA
  Total_Score	| 9.4570
  Crash		| -0.6919
  Polar		| 4.8689
  FragIndex	| 1
  FragRMSD	| 0.658

