@<TRIPOS>MOLECULE
BindingDB_10113
 46 49 0 0 0
SMALL
NO_CHARGES


@<TRIPOS>ATOM
1    C        14.8180   -7.7557   12.7110  C     
2    C        15.7919   -7.1244   13.5310  C     
3    C        15.9474   -7.4882   14.8871  C     
4    C        15.1402   -8.5030   15.4500  C     
5    F        16.5880   -6.1985   13.0635  F     
6    C        13.9434   -8.7199   13.3045  C     
7    C        12.8587   -9.4889   12.8679  C     
8    C        14.1518   -9.0911   14.6407  C     
9    C        12.5369  -10.3158   13.9082  C     
10   N        13.2843  -10.0595   14.9529  N     
11   O        11.6793  -11.1782   13.9681  O     
12   C        12.1996   -9.3076   11.7084  C     
13   C        11.0843   -9.9541   11.1873  C     
14   C         9.2842  -10.3820    9.9106  C     
15   C        10.3125   -9.4539   10.1303  C     
16   C         9.4709  -11.4163   10.8215  C     
17   N        10.5454  -11.1353   11.5753  N     
18   C        14.8458   -7.5198   11.4291  C     
19   O        10.5504   -8.2402    9.5236  O     
20   C        10.2229   -8.1558    8.1280  C     
21   C        14.9314   -7.3224   10.2538  C     
22   C        15.0963   -7.1406    8.9106  C     
23   C        14.0129   -7.4503    6.8079  C     
24   C        14.6808   -5.7266    8.3951  C     
25   C        13.7710   -5.9848    7.1767  C     
26   N        14.3040   -8.0948    8.1101  N     
27   O        14.0332   -5.0991    6.0710  O     
28   H        16.6812   -7.0554   15.4659  H     
29   H        15.2764   -8.8014   16.4246  H     
30   H        13.2245  -10.5108   15.8056  H     
31   H        12.4893   -8.5451   11.1609  H     
32   H         8.5195  -10.2921    9.2383  H     
33   H         8.8903  -12.2589   10.9040  H     
34   H        10.8942  -11.7367   12.2454  H     
35   H        10.7537   -8.9279    7.5344  H     
36   H        10.5308   -7.1559    7.7924  H     
37   H         9.1298   -8.2532    8.0028  H     
38   H        16.1460   -7.3022    8.6664  H     
39   H        13.1437   -7.9227    6.3377  H     
40   H        14.8848   -7.5528    6.1471  H     
41   H        14.1373   -5.1370    9.1316  H     
42   H        15.5612   -5.1714    8.0892  H     
43   H        12.7064   -5.8666    7.4657  H     
44   H        14.8226   -8.9714    7.9680  H     
45   H        13.4097   -8.2938    8.5928  H     
46   H        14.9943   -5.1973    5.8735  H     
@<TRIPOS>BOND
     1    1    2 1
     2    1    6 2
     3    1   18 1
     4    2    3 2
     5    2    5 1
     6    3    4 1
     7    4    8 2
     8    6    7 1
     9    6    8 1
    10    7    9 1
    11    7   12 2
    12    8   10 1
    13    9   10 1
    14    9   11 2
    15   12   13 1
    16   13   15 2
    17   13   17 1
    18   14   15 1
    19   14   16 2
    20   15   19 1
    21   16   17 1
    22   18   21 3
    23   19   20 1
    24   22   21 1
    25   22   24 1
    26   22   26 1
    27   23   25 1
    28   23   26 1
    29   24   25 1
    30   25   27 1
    31    3   28 1
    32    4   29 1
    33   10   30 1
    34   12   31 1
    35   14   32 1
    36   16   33 1
    37   17   34 1
    38   20   35 1
    39   20   36 1
    40   20   37 1
    41   22   38 1
    42   23   39 1
    43   23   40 1
    44   24   41 1
    45   24   42 1
    46   25   43 1
    47   26   44 1
    48   26   45 1
    49   27   46 1
@<TRIPOS>PROPERTY_DATA
  Total_Score	| 9.9044
  Crash		| -0.5959
  Polar		| 3.2920
  FragIndex	| 1
  FragRMSD	| 0.950

