@<TRIPOS>MOLECULE
BindingDB_10096
 39 41 0 0 0
SMALL
NO_CHARGES


@<TRIPOS>ATOM
1    C        14.8986   -7.6339   12.8564  C     
2    C        15.9308   -7.0978   13.6796  C     
3    C        16.0946   -7.5440   15.0057  C     
4    C        15.2428   -8.5284   15.5313  C     
5    F        16.7443   -6.1560   13.2593  F     
6    C        14.0359   -8.6461   13.3756  C     
7    C        12.9132   -9.3671   12.9379  C     
8    C        14.2456   -9.0558   14.6999  C     
9    C        12.5485  -10.1556   13.9871  C     
10   N        13.3271   -9.9593   15.0182  N     
11   O        11.6209  -10.9492   14.0868  O     
12   C        12.2674   -9.2010   11.7577  C     
13   C        11.0787   -9.7674   11.3041  C     
14   C         9.0711   -9.9637   10.3040  C     
15   C        10.1906   -9.1423   10.4200  C     
16   C         9.3227  -11.0995   11.0657  C     
17   N        10.5279  -10.9572   11.6351  N     
18   O        10.3870   -7.8862    9.8942  O     
19   C        10.1064   -7.7552    8.4952  C     
20   C        14.7661   -7.1449   11.6572  C     
21   C        14.6692   -6.6772   10.5609  C     
22   C        14.5546   -6.1692    9.2950  C     
23   O        14.0415   -4.8364    9.3591  O     
24   C        13.6261   -7.0719    8.4532  C     
25   H        16.8229   -7.1463   15.5982  H     
26   H        15.3353   -8.8407   16.4973  H     
27   H        13.2360  -10.3931   15.8869  H     
28   H        12.6443   -8.5304   11.1423  H     
29   H         8.2027   -9.7617    9.8039  H     
30   H         8.6890  -11.8897   11.1985  H     
31   H        10.9322  -11.6188   12.2183  H     
32   H        10.7030   -8.4411    7.8956  H     
33   H        10.3553   -6.7348    8.2026  H     
34   H         9.0461   -7.9238    8.2875  H     
35   H        15.5461   -6.1397    8.8328  H     
36   H        14.7704   -4.2961    9.7206  H     
37   H        14.0570   -8.0745    8.3585  H     
38   H        13.5325   -6.6623    7.4456  H     
39   H        12.6148   -7.1420    8.9029  H     
@<TRIPOS>BOND
     1    1    2 1
     2    1    6 2
     3    1   20 1
     4    2    3 2
     5    2    5 1
     6    3    4 1
     7    4    8 2
     8    6    7 1
     9    6    8 1
    10    7    9 1
    11    7   12 2
    12    8   10 1
    13    9   10 1
    14    9   11 2
    15   12   13 1
    16   13   15 2
    17   13   17 1
    18   14   15 1
    19   14   16 2
    20   15   18 1
    21   16   17 1
    22   18   19 1
    23   20   21 3
    24   21   22 1
    25   22   23 1
    26   22   24 1
    27    3   25 1
    28    4   26 1
    29   10   27 1
    30   12   28 1
    31   14   29 1
    32   16   30 1
    33   17   31 1
    34   19   32 1
    35   19   33 1
    36   19   34 1
    37   22   35 1
    38   23   36 1
    39   24   37 1
    40   24   38 1
    41   24   39 1
@<TRIPOS>PROPERTY_DATA
  Total_Score	| 8.6605
  Crash		| -0.4024
  Polar		| 3.6407
  FragIndex	| 1
  FragRMSD	| 0.634

