@<TRIPOS>MOLECULE
BindingDB_10106
 48 50 0 0 0
SMALL
NO_CHARGES


@<TRIPOS>ATOM
1    C        14.5673   -7.5901   12.5890  C     
2    C        15.7059   -7.0601   13.2594  C     
3    C        16.0800   -7.5382   14.5321  C     
4    C        15.3358   -8.5529   15.1538  C     
5    F        16.4526   -6.1175   12.7313  F     
6    C        13.8061   -8.6137   13.2241  C     
7    C        12.6654   -9.3609   12.9172  C     
8    C        14.2235   -9.0704   14.4787  C     
9    C        12.4722  -10.1945   13.9774  C     
10   N        13.3932  -10.0143   14.8903  N     
11   O        11.4900  -10.8737   14.2435  O     
12   C        11.8879   -9.2185   11.8198  C     
13   C        10.8716  -10.0412   11.3387  C     
14   C         9.2013  -10.8150   10.0427  C     
15   C        10.0093   -9.7138   10.2824  C     
16   C         9.5951  -11.8014   10.9320  C     
17   N        10.5879  -11.3122   11.6905  N     
18   O         9.9397   -8.5333    9.6006  O     
19   C        10.8242   -8.4927    8.4706  C     
20   C        14.2819   -7.1200   11.4020  C     
21   C        14.0729   -6.6580   10.3187  C     
22   C        13.8860   -6.1077    9.0729  C     
23   C        14.9974   -6.5975    8.0814  C     
24   O        15.0211   -5.7875    6.8969  O     
25   C        14.8561   -8.0722    7.6492  C     
26   N        13.8524   -4.6311    9.2499  N     
27   C        13.3526   -3.8281    8.1102  C     
28   H        16.8995   -7.1524   15.0082  H     
29   H        15.5982   -8.9036   16.0768  H     
30   H        13.4182  -10.4384   15.7653  H     
31   H        12.0696   -8.4324   11.2539  H     
32   H         8.4776  -10.8927    9.3263  H     
33   H         9.2105  -12.7477   10.9880  H     
34   H        11.0560  -11.8254   12.3605  H     
35   H        11.8658   -8.5561    8.7937  H     
36   H        10.6832   -7.5435    7.9595  H     
37   H        10.6173   -9.2986    7.7582  H     
38   H        12.9032   -6.4471    8.7142  H     
39   H        15.9781   -6.4579    8.5552  H     
40   H        14.2381   -6.0842    6.3679  H     
41   H        14.8459   -8.7306    8.5179  H     
42   H        15.7038   -8.3418    7.0135  H     
43   H        13.9323   -8.2176    7.0782  H     
44   H        13.2442   -4.4277   10.0509  H     
45   H        14.7955   -4.3068    9.4882  H     
46   H        14.1364   -3.7353    7.3474  H     
47   H        13.0913   -2.8254    8.4559  H     
48   H        12.4638   -4.2829    7.6590  H     
@<TRIPOS>BOND
     1    1    2 1
     2    1    6 2
     3    1   20 1
     4    2    3 2
     5    2    5 1
     6    3    4 1
     7    4    8 2
     8    6    7 1
     9    6    8 1
    10    7    9 1
    11    7   12 2
    12    8   10 1
    13    9   10 1
    14    9   11 2
    15   12   13 1
    16   13   15 2
    17   13   17 1
    18   14   15 1
    19   14   16 2
    20   15   18 1
    21   16   17 1
    22   18   19 1
    23   20   21 3
    24   21   22 1
    25   22   23 1
    26   22   26 1
    27   23   24 1
    28   23   25 1
    29   26   27 1
    30    3   28 1
    31    4   29 1
    32   10   30 1
    33   12   31 1
    34   14   32 1
    35   16   33 1
    36   17   34 1
    37   19   35 1
    38   19   36 1
    39   19   37 1
    40   22   38 1
    41   23   39 1
    42   24   40 1
    43   25   41 1
    44   25   42 1
    45   25   43 1
    46   26   44 1
    47   26   45 1
    48   27   46 1
    49   27   47 1
    50   27   48 1
@<TRIPOS>PROPERTY_DATA
  Total_Score	| 9.7772
  Crash		| -1.4115
  Polar		| 4.0319
  FragIndex	| 1
  FragRMSD	| 0.782

