@<TRIPOS>MOLECULE
BindingDB_10111
 49 52 0 0 0
SMALL
NO_CHARGES


@<TRIPOS>ATOM
1    C        14.3537   -7.6670   12.7993  C     
2    C        15.3575   -7.0754   13.6226  C     
3    C        15.6491   -7.5989   14.8980  C     
4    C        14.9600   -8.7250   15.3716  C     
5    F        16.0454   -6.0236   13.2503  F     
6    C        13.6370   -8.8021   13.2806  C     
7    C        12.6041   -9.6401   12.8209  C     
8    C        13.9720   -9.2859   14.5529  C     
9    C        12.4193  -10.5564   13.8192  C     
10   N        13.2204  -10.3382   14.8273  N     
11   O        11.7464  -11.5801   13.8502  O     
12   C        11.8672   -9.4625   11.6941  C     
13   C        10.7772  -10.1890   11.1876  C     
14   C         8.9607  -10.7607    9.9650  C     
15   C         9.9686   -9.8037   10.1026  C     
16   C         9.2099  -11.7444   10.9000  C     
17   N        10.2989  -11.3835   11.5952  N     
18   C        14.1704   -7.1250   11.6277  C     
19   C        14.1242   -6.5668   10.5724  C     
20   C        14.1628   -5.8903    9.3705  C     
21   C        15.6163   -7.5605    8.0394  C     
22   C        15.5194   -6.1353    8.6379  C     
23   C        12.9725   -6.2701    8.4458  C     
24   C        13.1483   -7.6484    7.7690  C     
25   O        14.0384   -4.4973    9.6725  O     
26   O        10.0439   -8.6448    9.3771  O     
27   C         9.6310   -8.7843    7.9974  C     
28   N        14.4744   -7.8285    7.1435  N     
29   H        16.3689   -7.1677   15.4830  H     
30   H        15.1688   -9.1168   16.2938  H     
31   H        13.2949  -10.8831   15.6279  H     
32   H        12.0920   -8.6628   11.1538  H     
33   H         8.1886  -10.7618    9.2955  H     
34   H         8.6722  -12.6029   11.0449  H     
35   H        10.6859  -11.9363   12.2846  H     
36   H        16.5378   -7.6592    7.4653  H     
37   H        15.6368   -8.3064    8.8408  H     
38   H        15.6117   -5.4164    7.8214  H     
39   H        16.3558   -5.9793    9.3220  H     
40   H        12.0327   -6.2552    9.0079  H     
41   H        12.8813   -5.5167    7.6572  H     
42   H        12.9987   -8.4410    8.5084  H     
43   H        12.4075   -7.7483    6.9838  H     
44   H        14.9463   -4.1735    9.8670  H     
45   H        10.2599   -9.5286    7.4767  H     
46   H         9.7529   -7.8135    7.5072  H     
47   H         8.5816   -9.0826    7.8998  H     
48   H        14.5437   -7.2063    6.3326  H     
49   H        14.5503   -8.7973    6.8099  H     
@<TRIPOS>BOND
     1    1    2 1
     2    1    6 2
     3    1   18 1
     4    2    3 2
     5    2    5 1
     6    3    4 1
     7    4    8 2
     8    6    7 1
     9    6    8 1
    10    7    9 1
    11    7   12 2
    12    8   10 1
    13    9   10 1
    14    9   11 2
    15   12   13 1
    16   13   15 2
    17   13   17 1
    18   14   15 1
    19   14   16 2
    20   15   26 1
    21   16   17 1
    22   18   19 3
    23   19   20 1
    24   20   22 1
    25   20   23 1
    26   20   25 1
    27   21   22 1
    28   21   28 1
    29   23   24 1
    30   24   28 1
    31   26   27 1
    32    3   29 1
    33    4   30 1
    34   10   31 1
    35   12   32 1
    36   14   33 1
    37   16   34 1
    38   17   35 1
    39   21   36 1
    40   21   37 1
    41   22   38 1
    42   22   39 1
    43   23   40 1
    44   23   41 1
    45   24   42 1
    46   24   43 1
    47   25   44 1
    48   27   45 1
    49   27   46 1
    50   27   47 1
    51   28   48 1
    52   28   49 1
@<TRIPOS>PROPERTY_DATA
  Total_Score	| 10.0643
  Crash		| -1.3219
  Polar		| 3.4326
  FragIndex	| 1
  FragRMSD	| 0.746

