@<TRIPOS>MOLECULE
BindingDB_10100
 45 47 0 0 0
SMALL
NO_CHARGES


@<TRIPOS>ATOM
1    C        14.7604   -7.5883   12.7469  C     
2    C        15.8216   -7.0370   13.5200  C     
3    C        16.0675   -7.4895   14.8327  C     
4    C        15.2640   -8.4877   15.4017  C     
5    F        16.6049   -6.0915   13.0591  F     
6    C        13.9281   -8.5911   13.3275  C     
7    C        12.7909   -9.3216   12.9491  C     
8    C        14.2215   -9.0152   14.6305  C     
9    C        12.4557  -10.0674   14.0390  C     
10   N        13.3202   -9.9089   15.0083  N     
11   O        11.3935  -10.6091   14.2889  O     
12   C        12.1542   -9.2810   11.7539  C     
13   C        11.1009  -10.0693   11.2709  C     
14   C         9.4178  -10.8558    9.9923  C     
15   C        10.3341   -9.8082   10.1197  C     
16   C         9.6605  -11.7397   11.0234  C     
17   N        10.6751  -11.2572   11.7487  N     
18   O        10.5195   -8.7167    9.3062  O     
19   C         9.9250   -8.7281    7.9935  C     
20   C        14.5867   -7.1173   11.5416  C     
21   C        14.4798   -6.6422   10.4482  C     
22   C        14.3611   -6.0864    9.1938  C     
23   C        13.3273   -6.8828    8.3560  C     
24   O        12.0213   -6.8064    8.9295  O     
25   N        14.0250   -4.6475    9.3491  N     
26   C        13.6503   -3.8952    8.1311  C     
27   H        16.8248   -7.0810   15.3845  H     
28   H        15.4156   -8.7983   16.3643  H     
29   H        13.2375  -10.2732   15.9068  H     
30   H        12.4765   -8.5992   11.1145  H     
31   H         8.7167  -10.9765    9.2615  H     
32   H         9.1747  -12.6214   11.1839  H     
33   H        11.0732  -11.7427   12.4864  H     
34   H        10.2785   -9.5796    7.4102  H     
35   H        10.2018   -7.8129    7.4693  H     
36   H         8.8300   -8.7589    8.0736  H     
37   H        15.3396   -6.1640    8.7128  H     
38   H        13.2958   -6.4906    7.3365  H     
39   H        13.6243   -7.9340    8.2907  H     
40   H        11.7520   -5.8626    8.8678  H     
41   H        13.2584   -4.5575   10.0239  H     
42   H        14.8458   -4.1768    9.7359  H     
43   H        14.3945   -4.0422    7.3416  H     
44   H        13.6011   -2.8340    8.3701  H     
45   H        12.6664   -4.2069    7.7762  H     
@<TRIPOS>BOND
     1    1    2 1
     2    1    6 2
     3    1   20 1
     4    2    3 2
     5    2    5 1
     6    3    4 1
     7    4    8 2
     8    6    7 1
     9    6    8 1
    10    7    9 1
    11    7   12 2
    12    8   10 1
    13    9   10 1
    14    9   11 2
    15   12   13 1
    16   13   15 2
    17   13   17 1
    18   14   15 1
    19   14   16 2
    20   15   18 1
    21   16   17 1
    22   18   19 1
    23   20   21 3
    24   21   22 1
    25   22   23 1
    26   22   25 1
    27   23   24 1
    28   25   26 1
    29    3   27 1
    30    4   28 1
    31   10   29 1
    32   12   30 1
    33   14   31 1
    34   16   32 1
    35   17   33 1
    36   19   34 1
    37   19   35 1
    38   19   36 1
    39   22   37 1
    40   23   38 1
    41   23   39 1
    42   24   40 1
    43   25   41 1
    44   25   42 1
    45   26   43 1
    46   26   44 1
    47   26   45 1
@<TRIPOS>PROPERTY_DATA
  Total_Score	| 9.5905
  Crash		| -0.9083
  Polar		| 5.0168
  FragIndex	| 1
  FragRMSD	| 0.653

