@<TRIPOS>MOLECULE
BindingDB_10109
 49 51 0 0 0
SMALL
NO_CHARGES


@<TRIPOS>ATOM
1    C        15.0400   -7.8565   12.8287  C     
2    C        16.0467   -7.2592   13.6405  C     
3    C        16.1640   -7.6060   15.0007  C     
4    C        15.2786   -8.5308   15.5772  C     
5    F        16.8843   -6.3695   13.1670  F     
6    C        14.1205   -8.7704   13.4137  C     
7    C        12.9948   -9.4847   12.9984  C     
8    C        14.2774   -9.0821   14.7688  C     
9    C        12.5833  -10.2054   14.0755  C     
10   N        13.3391   -9.9512   15.1182  N     
11   O        11.6173  -10.9399   14.2033  O     
12   C        12.3929   -9.3922   11.7783  C     
13   C        11.2810  -10.0515   11.2594  C     
14   C         9.5132  -10.5260    9.9538  C     
15   C        10.5519   -9.6090   10.1399  C     
16   C         9.6524  -11.5066   10.9286  C     
17   N        10.7164  -11.2017   11.6868  N     
18   O        10.8423   -8.4627    9.4506  O     
19   C        10.2517   -8.2985    8.1505  C     
20   C        15.0105   -7.5470   11.5682  C     
21   C        15.0359   -7.2468   10.4121  C     
22   C        15.0984   -6.8594    9.1006  C     
23   C        13.9374   -5.9070    8.6867  C     
24   O        15.1051   -8.0351    8.2966  O     
25   N        13.7742   -4.8036    9.6581  N     
26   C        14.1185   -5.3167    7.2507  C     
27   C        12.8361   -4.6462    6.6983  C     
28   O        15.1687   -4.3415    7.2005  O     
29   H        16.8965   -7.1852   15.5748  H     
30   H        15.3479   -8.7681   16.5686  H     
31   H        13.2222  -10.3385   15.9996  H     
32   H        12.7747   -8.7155   11.1560  H     
33   H         8.7644  -10.4865    9.2593  H     
34   H         9.0522  -12.3266   11.0530  H     
35   H        11.0432  -11.7620   12.4061  H     
36   H        10.5099   -9.1284    7.4873  H     
37   H        10.6453   -7.3784    7.6981  H     
38   H         9.1603   -8.2115    8.2298  H     
39   H        16.0563   -6.3563    8.9700  H     
40   H        13.0068   -6.4833    8.7108  H     
41   H        14.2232   -8.4513    8.4140  H     
42   H        13.6450   -5.1822   10.5966  H     
43   H        12.9472   -4.2556    9.4091  H     
44   H        14.6069   -4.2040    9.6470  H     
45   H        14.3895   -6.1280    6.5628  H     
46   H        12.0145   -5.3634    6.6734  H     
47   H        13.0067   -4.2834    5.6865  H     
48   H        12.5454   -3.8017    7.3227  H     
49   H        15.6699   -4.4128    8.0366  H     
@<TRIPOS>BOND
     1    1    2 1
     2    1    6 2
     3    1   20 1
     4    2    3 2
     5    2    5 1
     6    3    4 1
     7    4    8 2
     8    6    7 1
     9    6    8 1
    10    7    9 1
    11    7   12 2
    12    8   10 1
    13    9   10 1
    14    9   11 2
    15   12   13 1
    16   13   15 2
    17   13   17 1
    18   14   15 1
    19   14   16 2
    20   15   18 1
    21   16   17 1
    22   18   19 1
    23   20   21 3
    24   21   22 1
    25   22   23 1
    26   22   24 1
    27   23   25 1
    28   23   26 1
    29   26   27 1
    30   26   28 1
    31    3   29 1
    32    4   30 1
    33   10   31 1
    34   12   32 1
    35   14   33 1
    36   16   34 1
    37   17   35 1
    38   19   36 1
    39   19   37 1
    40   19   38 1
    41   22   39 1
    42   23   40 1
    43   24   41 1
    44   25   42 1
    45   25   43 1
    46   25   44 1
    47   26   45 1
    48   27   46 1
    49   27   47 1
    50   27   48 1
    51   28   49 1
@<TRIPOS>PROPERTY_DATA
  Total_Score	| 10.4609
  Crash		| -1.2973
  Polar		| 5.4187
  FragIndex	| 1
  FragRMSD	| 1.402

