@<TRIPOS>MOLECULE
BindingDB_11364
 45 46 0 0 0
SMALL
NO_CHARGES


@<TRIPOS>ATOM
1    C         2.6960   -5.1683   -1.2708  C     
2    N         3.3987   -6.0213   -1.9901  N     
3    O         4.6783   -6.1986   -1.8845  O     
4    O         1.4958   -5.2139   -1.5106  O     
5    C         3.1797   -4.2384   -0.2302  C     
6    N         4.6218   -3.9817   -0.1754  N     
7    O         4.4070   -1.5187   -1.2585  O     
8    O         6.6999   -2.3909   -1.0973  O     
9    C         5.5720   -4.8178    0.5545  C     
10   C         6.5543   -4.1420    1.4772  C     
11   C         7.3830   -3.4076    3.6846  C     
12   C         6.3919   -4.0268    2.8903  C     
13   C         7.7899   -3.7017    0.9401  C     
14   C         8.7805   -3.0921    1.7290  C     
15   C         2.5171   -4.5909    1.1309  C     
16   C         8.5731   -2.9364    3.1063  C     
17   Cl        5.0789   -4.6752    3.7432  Cl    
18   S         5.2154   -2.8933   -1.3502  S     
19   C         5.2524   -3.5117   -2.9771  C     
20   C         4.4362   -2.9687   -3.9900  C     
21   C         6.1484   -4.5541   -3.2934  C     
22   C         6.2134   -5.0671   -4.6001  C     
23   C         5.4118   -4.5047   -5.6160  C     
24   C         4.5132   -3.4666   -5.3032  C     
25   O         5.4704   -4.9817   -6.8951  O     
26   C         6.6769   -4.6179   -7.5972  C     
27   H         2.9179   -6.5708   -2.6369  H     
28   H         4.8315   -7.0942   -2.2629  H     
29   H         2.7100   -3.2748   -0.4658  H     
30   H         5.0314   -5.5776    1.1177  H     
31   H         6.1443   -5.3918   -0.1784  H     
32   H         7.2640   -3.3160    4.6958  H     
33   H         7.9911   -3.8494   -0.0421  H     
34   H         9.6541   -2.7805    1.2981  H     
35   H         1.4235   -4.5335    1.0575  H     
36   H         2.8261   -3.8664    1.8881  H     
37   H         2.7762   -5.5955    1.4558  H     
38   H         9.2917   -2.4953    3.6819  H     
39   H         3.7889   -2.2085   -3.7832  H     
40   H         6.7621   -4.9537   -2.5786  H     
41   H         6.8600   -5.8309   -4.8156  H     
42   H         3.9323   -3.0566   -6.0314  H     
43   H         6.8339   -3.5401   -7.6201  H     
44   H         6.5823   -4.9716   -8.6253  H     
45   H         7.5554   -5.1032   -7.1524  H     
@<TRIPOS>BOND
     1    1    2 am
     2    1    4 2
     3    1    5 1
     4    2    3 1
     5    5    6 1
     6    5   15 1
     7    6    9 1
     8    6   18 1
     9    7   18 2
    10    8   18 2
    11    9   10 1
    12   10   12 1
    13   10   13 2
    14   11   12 2
    15   11   16 1
    16   12   17 1
    17   13   14 1
    18   14   16 2
    19   18   19 1
    20   19   20 1
    21   19   21 2
    22   20   24 2
    23   21   22 1
    24   22   23 2
    25   23   24 1
    26   23   25 1
    27   25   26 1
    28    2   27 1
    29    3   28 1
    30    5   29 1
    31    9   30 1
    32    9   31 1
    33   11   32 1
    34   13   33 1
    35   14   34 1
    36   15   35 1
    37   15   36 1
    38   15   37 1
    39   16   38 1
    40   20   39 1
    41   21   40 1
    42   22   41 1
    43   24   42 1
    44   26   43 1
    45   26   44 1
    46   26   45 1
@<TRIPOS>PROPERTY_DATA
  Total_Score	| 5.6772
  Crash		| -1.8555
  Polar		| 4.4599
  FragIndex	| 1
  FragRMSD	| 1.214

