@<TRIPOS>MOLECULE
BindingDB_8465
 50 51 0 0 0
SMALL
NO_CHARGES


@<TRIPOS>ATOM
1    C         2.7184   -5.2209   -1.1060  C     
2    O         1.5123   -5.2360   -1.3307  O     
3    N         3.3753   -6.0705   -1.8845  N     
4    O         4.6630   -6.2195   -1.9137  O     
5    C         3.2394   -4.2933   -0.0718  C     
6    N         4.6815   -4.0430   -0.1095  N     
7    S         5.2726   -2.9887   -1.3106  S     
8    O         6.7886   -2.6499   -0.9820  O     
9    O         4.6551   -1.5334   -1.1709  O     
10   C         5.3148   -3.5484   -2.9572  C     
11   C         5.4741   -4.4412   -5.6417  C     
12   C         4.5762   -3.4138   -5.2884  C     
13   C         4.4997   -2.9694   -3.9517  C     
14   C         6.2278   -4.5568   -3.3241  C     
15   C         6.2900   -5.0219   -4.6533  C     
16   O         5.5102   -4.8832   -6.9320  O     
17   C         6.7173   -4.5310   -7.6254  C     
18   C         5.6377   -4.8599    0.6098  C     
19   C         6.7113   -4.2219    1.4425  C     
20   C         8.6989   -4.5566    2.8550  C     
21   C         7.5612   -5.0610    2.1999  C     
22   C         7.0460   -2.8535    1.4027  C     
23   C         8.9921   -3.1872    2.7293  C     
24   C         2.5870   -4.5706    1.3486  C     
25   N         8.1630   -2.3971    2.0062  N     
26   C         2.4047   -6.0525    1.7831  C     
27   C         3.2910   -3.8067    2.4994  C     
28   H         2.8554   -6.6349   -2.4831  H     
29   H         4.8033   -7.1143   -2.3023  H     
30   H         2.7822   -3.3329   -0.3440  H     
31   H         3.9889   -2.9841   -6.0021  H     
32   H         3.8504   -2.2100   -3.7226  H     
33   H         6.8514   -4.9779   -2.6322  H     
34   H         6.9453   -5.7671   -4.8985  H     
35   H         6.9227   -3.4598   -7.5752  H     
36   H         6.5921   -4.8040   -8.6703  H     
37   H         7.5742   -5.0838   -7.2301  H     
38   H         5.1046   -5.5975    1.2033  H     
39   H         6.1809   -5.4676   -0.1264  H     
40   H         9.3168   -5.1686    3.3928  H     
41   H         7.3615   -6.0544    2.2924  H     
42   H         6.4612   -2.1780    0.9123  H     
43   H         9.8275   -2.7919    3.1655  H     
44   H         1.5736   -4.1666    1.3110  H     
45   H         2.0638   -6.6712    0.9479  H     
46   H         1.6571   -6.1200    2.5783  H     
47   H         3.3359   -6.4565    2.1829  H     
48   H         4.3000   -4.2007    2.6734  H     
49   H         2.7280   -3.8816    3.4281  H     
50   H         3.3789   -2.7529    2.2449  H     
@<TRIPOS>BOND
     1    1    2 2
     2    1    3 am
     3    1    5 1
     4    3    4 1
     5    5    6 1
     6    5   24 1
     7    6    7 1
     8    6   18 1
     9    7    8 2
    10    7    9 2
    11    7   10 1
    12   10   13 1
    13   10   14 2
    14   11   12 1
    15   11   15 2
    16   11   16 1
    17   12   13 2
    18   14   15 1
    19   16   17 1
    20   18   19 1
    21   19   21 1
    22   19   22 2
    23   20   21 2
    24   20   23 1
    25   22   25 1
    26   23   25 2
    27   24   26 1
    28   24   27 1
    29    3   28 1
    30    4   29 1
    31    5   30 1
    32   12   31 1
    33   13   32 1
    34   14   33 1
    35   15   34 1
    36   17   35 1
    37   17   36 1
    38   17   37 1
    39   18   38 1
    40   18   39 1
    41   20   40 1
    42   21   41 1
    43   22   42 1
    44   23   43 1
    45   24   44 1
    46   26   45 1
    47   26   46 1
    48   26   47 1
    49   27   48 1
    50   27   49 1
    51   27   50 1
@<TRIPOS>PROPERTY_DATA
  Total_Score	| 4.6833
  Crash		| -2.7713
  Polar		| 4.0819
  FragIndex	| 1
  FragRMSD	| 1.431

