@<TRIPOS>MOLECULE
BindingDB_50088095
 44 45 0 0 0
SMALL
NO_CHARGES


@<TRIPOS>ATOM
1    S         5.2754   -2.9418   -1.3898  S     
2    N         4.6132   -4.0392   -0.2786  N     
3    N         9.0764   -2.3112    4.1368  N     
4    C         3.1726   -4.2318   -0.2657  C     
5    C         2.5996   -5.1560   -1.2526  C     
6    C         5.3894   -3.4850   -3.0380  C     
7    O         6.7399   -2.5087   -0.9486  O     
8    O         4.5271   -1.5419   -1.2887  O     
9    C         8.2202   -2.9123    3.2611  C     
10   O        10.2641   -1.8892    3.7798  O     
11   C         5.5037   -4.8919    0.4807  C     
12   O         8.7906   -2.1129    5.2906  O     
13   O         1.3830   -5.2454   -1.3326  O     
14   N         3.2496   -6.0426   -1.9778  N     
15   C         4.5828   -2.9078   -4.0369  C     
16   C         6.3079   -4.4948   -3.3978  C     
17   C         6.9212   -3.3306    3.6619  C     
18   C         8.5876   -3.1330    1.9100  C     
19   C         6.4133   -4.1678    1.4151  C     
20   C         5.5468   -4.3969   -5.7269  C     
21   C         7.7039   -3.7468    1.0048  C     
22   C         6.0320   -3.9317    2.7533  C     
23   C         6.3904   -4.9456   -4.7285  C     
24   C         4.6609   -3.3614   -5.3641  C     
25   O         4.5482   -6.1409   -2.0120  O     
26   O         5.5329   -4.7675   -7.0498  O     
27   C         6.4041   -5.8030   -7.5199  C     
28   H         2.8526   -4.5782    0.7194  H     
29   H         2.6946   -3.2531   -0.3905  H     
30   H         4.9347   -5.6125    1.0759  H     
31   H         6.0900   -5.4878   -0.2216  H     
32   H         2.7339   -6.6728   -2.5145  H     
33   H         3.9264   -2.1590   -3.8067  H     
34   H         6.9137   -4.9211   -2.6922  H     
35   H         6.6119   -3.1945    4.6273  H     
36   H         9.5088   -2.8384    1.5675  H     
37   H         8.0100   -3.8863    0.0436  H     
38   H         5.1054   -4.2200    3.0837  H     
39   H         7.0598   -5.6805   -4.9666  H     
40   H         4.0577   -2.9309   -6.0721  H     
41   H         4.7251   -7.0359   -2.3960  H     
42   H         7.4465   -5.5136   -7.4000  H     
43   H         6.2149   -5.9623   -8.5867  H     
44   H         6.2197   -6.7425   -6.9973  H     
@<TRIPOS>BOND
     1    1    2 1
     2    1    6 1
     3    1    7 2
     4    1    8 2
     5    2    4 1
     6    2   11 1
     7    3    9 am
     8    3   10 1
     9    3   12 2
    10    4    5 1
    11    5   13 2
    12    5   14 am
    13    6   15 2
    14    6   16 1
    15    9   17 2
    16    9   18 1
    17   11   19 1
    18   14   25 1
    19   15   24 1
    20   16   23 2
    21   17   22 1
    22   18   21 2
    23   19   21 1
    24   19   22 2
    25   20   23 1
    26   20   24 2
    27   20   26 1
    28   26   27 1
    29    4   28 1
    30    4   29 1
    31   11   30 1
    32   11   31 1
    33   14   32 1
    34   15   33 1
    35   16   34 1
    36   17   35 1
    37   18   36 1
    38   21   37 1
    39   22   38 1
    40   23   39 1
    41   24   40 1
    42   25   41 1
    43   27   42 1
    44   27   43 1
    45   27   44 1
@<TRIPOS>PROPERTY_DATA
  Total_Score	| 5.3388
  Crash		| -1.6411
  Polar		| 4.3843
  FragIndex	| 1
  FragRMSD	| 1.296

