@<TRIPOS>MOLECULE
BindingDB_50131530
 46 47 0 0 0
SMALL
NO_CHARGES


@<TRIPOS>ATOM
1    S         5.2965   -2.9319   -1.1639  S     
2    N         4.6973   -4.0218   -0.0052  N     
3    C         4.1225   -5.2861   -0.4199  C     
4    C         2.9807   -5.1762   -1.3134  C     
5    C         5.3549   -3.4992   -2.8174  C     
6    O         6.8081   -2.5758   -0.8152  O     
7    O         4.5123   -1.5463   -1.0854  O     
8    C         7.3869   -5.9722   -7.2732  C     
9    C         8.0265   -6.9529   -7.0313  C     
10   C         4.9273   -3.7187    1.3898  C     
11   O         3.1750   -5.2349   -2.5354  O     
12   N         8.6012   -4.6345    1.6268  N     
13   N         1.7751   -4.9734   -0.8157  N     
14   C         6.3394   -3.8340    1.8609  C     
15   C         4.6015   -2.8727   -3.8310  C     
16   C         6.2054   -4.5747   -3.1515  C     
17   C         5.4516   -4.4610   -5.4745  C     
18   C         6.2243   -5.0753   -4.4649  C     
19   C         4.6473   -3.3498   -5.1521  C     
20   O         0.7047   -4.9755   -1.5678  O     
21   C         7.3189   -4.5736    1.1691  C     
22   C         6.6103   -4.8861   -7.5493  C     
23   O         5.4064   -4.9342   -6.7629  O     
24   C         8.7180   -8.0799   -6.7032  C     
25   C         9.0069   -3.9944    2.7490  C     
26   C         6.7388   -3.1903    3.0535  C     
27   C         8.0789   -3.2520    3.4964  C     
28   H         4.9197   -5.8654   -0.8928  H     
29   H         3.8179   -5.8808    0.4473  H     
30   H         4.5744   -2.6962    1.5629  H     
31   H         4.3127   -4.3477    2.0393  H     
32   H         1.6660   -4.8916    0.1506  H     
33   H         3.9985   -2.0723   -3.6160  H     
34   H         6.7648   -5.0338   -2.4410  H     
35   H         6.7944   -5.8982   -4.6839  H     
36   H         4.0819   -2.9084   -5.8713  H     
37   H         0.1675   -4.2053   -1.2355  H     
38   H         7.0895   -5.0750    0.3118  H     
39   H         7.1722   -3.9604   -7.3850  H     
40   H         6.3200   -4.9310   -8.5940  H     
41   H         8.5081   -8.8546   -7.4383  H     
42   H         8.4071   -8.4257   -5.7145  H     
43   H         9.7851   -7.8626   -6.6908  H     
44   H         9.9844   -4.0570    3.0506  H     
45   H         6.0661   -2.6618    3.6096  H     
46   H         8.3647   -2.7705    4.3575  H     
@<TRIPOS>BOND
     1    1    2 1
     2    1    5 1
     3    1    6 2
     4    1    7 2
     5    2    3 1
     6    2   10 1
     7    3    4 1
     8    4   11 2
     9    4   13 am
    10    5   15 1
    11    5   16 2
    12    8    9 3
    13    8   22 1
    14    9   24 1
    15   10   14 1
    16   12   21 2
    17   12   25 1
    18   13   20 1
    19   14   21 1
    20   14   26 2
    21   15   19 2
    22   16   18 1
    23   17   18 2
    24   17   19 1
    25   17   23 1
    26   22   23 1
    27   25   27 2
    28   26   27 1
    29    3   28 1
    30    3   29 1
    31   10   30 1
    32   10   31 1
    33   13   32 1
    34   15   33 1
    35   16   34 1
    36   18   35 1
    37   19   36 1
    38   20   37 1
    39   21   38 1
    40   22   39 1
    41   22   40 1
    42   24   41 1
    43   24   42 1
    44   24   43 1
    45   25   44 1
    46   26   45 1
    47   27   46 1
@<TRIPOS>PROPERTY_DATA
  Total_Score	| 6.5882
  Crash		| -2.2491
  Polar		| 4.4863
  FragIndex	| 1
  FragRMSD	| 1.118

