@<TRIPOS>MOLECULE
BindingDB_11358
 47 48 0 0 0
SMALL
NO_CHARGES


@<TRIPOS>ATOM
1    C         2.9234   -4.2805   -0.2426  C     
2    N         1.9611   -4.7766   -1.0057  N     
3    O         1.9269   -5.9654   -1.5485  O     
4    O         2.6920   -3.1752    0.2318  O     
5    C         4.1947   -4.9164    0.1174  C     
6    N         5.3660   -4.0349    0.0554  N     
7    O         4.4873   -1.6964   -1.0634  O     
8    O         6.8721   -2.1682   -1.1941  O     
9    C         6.5875   -4.3705    0.7859  C     
10   C         6.7459   -3.8702    2.1953  C     
11   C         7.9593   -3.6002    4.3104  C     
12   C         7.9559   -4.0305    2.9554  C     
13   C         5.6342   -3.2492    2.8235  C     
14   C         5.6656   -2.8399    4.1606  C     
15   C         6.8319   -3.0201    4.9118  C     
16   S         5.4787   -2.9284   -1.2366  S     
17   C         5.4543   -3.5784   -2.8473  C     
18   C         4.6707   -2.9833   -3.8638  C     
19   C         6.2351   -4.7125   -3.1657  C     
20   C         6.2200   -5.2485   -4.4609  C     
21   C         5.4697   -4.6294   -5.4944  C     
22   C         4.6787   -3.5077   -5.1656  C     
23   O         5.3898   -5.1403   -6.7641  O     
24   C         6.5068   -4.8287   -7.6335  C     
25   C         3.9494   -5.6538    1.4738  C     
26   O        10.1989   -4.7254    3.2165  O     
27   N         9.1259   -4.5623    2.4805  N     
28   O         9.3124   -4.8856    1.3424  O     
29   H         1.1942   -4.2028   -1.1780  H     
30   H         2.5335   -6.5433   -1.0368  H     
31   H         4.4130   -5.7005   -0.6124  H     
32   H         6.6765   -5.4584    0.8143  H     
33   H         7.4531   -4.0383    0.2205  H     
34   H         8.7868   -3.7039    4.9025  H     
35   H         4.7548   -3.1117    2.3220  H     
36   H         4.8357   -2.4324    4.6001  H     
37   H         6.8498   -2.7380    5.9002  H     
38   H         4.1082   -2.1553   -3.6530  H     
39   H         6.8250   -5.1659   -2.4663  H     
40   H         6.7314   -6.1078   -4.6877  H     
41   H         4.0814   -3.0732   -5.8783  H     
42   H         6.6841   -3.7435   -7.7103  H     
43   H         6.2763   -5.2150   -8.6188  H     
44   H         7.4403   -5.3144   -7.2830  H     
45   H         3.7542   -4.9406    2.2791  H     
46   H         4.8006   -6.2769    1.7433  H     
47   H         3.0785   -6.3174    1.3760  H     
@<TRIPOS>BOND
     1    1    2 am
     2    1    4 2
     3    1    5 1
     4    2    3 1
     5    5    6 1
     6    5   25 1
     7    6    9 1
     8    6   16 1
     9    7   16 2
    10    8   16 2
    11    9   10 1
    12   10   12 1
    13   10   13 2
    14   11   12 2
    15   11   15 1
    16   12   27 am
    17   13   14 1
    18   14   15 2
    19   16   17 1
    20   17   18 1
    21   17   19 2
    22   18   22 2
    23   19   20 1
    24   20   21 2
    25   21   22 1
    26   21   23 1
    27   23   24 1
    28   26   27 1
    29   27   28 2
    30    2   29 1
    31    3   30 1
    32    5   31 1
    33    9   32 1
    34    9   33 1
    35   11   34 1
    36   13   35 1
    37   14   36 1
    38   15   37 1
    39   18   38 1
    40   19   39 1
    41   20   40 1
    42   22   41 1
    43   24   42 1
    44   24   43 1
    45   24   44 1
    46   25   45 1
    47   25   46 1
    48   25   47 1
@<TRIPOS>PROPERTY_DATA
  Total_Score	| 4.7067
  Crash		| -3.2701
  Polar		| 4.7567
  FragIndex	| 1
  FragRMSD	| 1.382

