@<TRIPOS>MOLECULE
BindingDB_11355
 44 45 0 0 0
SMALL
NO_CHARGES


@<TRIPOS>ATOM
1    C         2.6852   -5.2699   -1.2373  C     
2    N         3.3157   -6.1471   -1.9706  N     
3    O         4.6176   -6.2576   -1.9655  O     
4    O         1.4617   -5.3030   -1.3718  O     
5    C         3.2522   -4.4774   -0.1343  C     
6    N         4.6610   -4.1431   -0.2317  N     
7    O         4.3045   -1.6152   -1.1651  O     
8    O         6.5821   -2.4131   -0.9871  O     
9    C         5.6759   -4.9462    0.4234  C     
10   C         6.4825   -4.2174    1.4421  C     
11   C         8.5426   -3.0579    2.1089  C     
12   C         7.7495   -3.6924    1.1153  C     
13   C         6.0083   -4.0932    2.7678  C     
14   C         6.8062   -3.5006    3.7615  C     
15   C         8.0921   -2.9621    3.4449  C     
16   N         8.8663   -2.4063    4.4118  N     
17   O         8.4791   -2.3010    5.6540  O     
18   O         9.9358   -1.8874    4.1700  O     
19   S         5.1226   -2.9610   -1.3623  S     
20   C         5.2420   -3.4764   -3.0156  C     
21   C         4.4651   -2.8572   -4.0191  C     
22   C         6.1158   -4.5268   -3.3603  C     
23   C         6.1793   -4.9896   -4.6959  C     
24   C         5.4034   -4.3758   -5.6936  C     
25   C         4.5424   -3.3023   -5.3460  C     
26   O         5.4109   -4.8300   -6.9758  O     
27   C         6.6130   -4.5275   -7.7028  C     
28   H         2.8123   -6.6885   -2.6079  H     
29   H         4.7956   -7.0702   -2.5010  H     
30   H         2.6858   -3.5362   -0.0356  H     
31   H         3.0479   -5.0246    0.7937  H     
32   H         5.2332   -5.8180    0.9158  H     
33   H         6.3368   -5.3448   -0.3341  H     
34   H         9.4466   -2.6782    1.8254  H     
35   H         8.1186   -3.7603    0.1736  H     
36   H         5.0876   -4.4757    3.0194  H     
37   H         6.4408   -3.4512    4.7113  H     
38   H         3.8307   -2.0865   -3.7826  H     
39   H         6.6971   -4.9813   -2.6582  H     
40   H         6.7904   -5.7789   -4.9144  H     
41   H         3.9678   -2.8496   -6.0627  H     
42   H         6.8364   -3.4571   -7.7035  H     
43   H         6.4607   -4.8357   -8.7414  H     
44   H         7.4679   -5.0732   -7.3106  H     
@<TRIPOS>BOND
     1    1    2 am
     2    1    4 2
     3    1    5 1
     4    2    3 1
     5    5    6 1
     6    6    9 1
     7    6   19 1
     8    7   19 2
     9    8   19 2
    10    9   10 1
    11   10   12 1
    12   10   13 2
    13   11   12 2
    14   11   15 1
    15   13   14 1
    16   14   15 2
    17   15   16 am
    18   16   17 1
    19   16   18 2
    20   19   20 1
    21   20   21 1
    22   20   22 2
    23   21   25 2
    24   22   23 1
    25   23   24 2
    26   24   25 1
    27   24   26 1
    28   26   27 1
    29    2   28 1
    30    3   29 1
    31    5   30 1
    32    5   31 1
    33    9   32 1
    34    9   33 1
    35   11   34 1
    36   12   35 1
    37   13   36 1
    38   14   37 1
    39   21   38 1
    40   22   39 1
    41   23   40 1
    42   25   41 1
    43   27   42 1
    44   27   43 1
    45   27   44 1
@<TRIPOS>PROPERTY_DATA
  Total_Score	| 5.4862
  Crash		| -1.7886
  Polar		| 4.4635
  FragIndex	| 1
  FragRMSD	| 1.285

