@<TRIPOS>MOLECULE
BindingDB_11361
 47 48 0 0 0
SMALL
NO_CHARGES


@<TRIPOS>ATOM
1    C         2.6732   -5.1215   -1.2672  C     
2    N         3.3590   -6.0122   -1.9590  N     
3    O         4.6440   -6.2018   -1.8345  O     
4    O         1.4787   -5.1273   -1.5278  O     
5    C         3.1809   -4.1924   -0.2380  C     
6    N         4.6288   -3.9621   -0.2348  N     
7    O         4.3714   -1.4947   -1.3249  O     
8    O         6.6394   -2.2793   -1.0017  O     
9    C         5.5878   -4.8401    0.4251  C     
10   C         6.4839   -4.2019    1.4404  C     
11   C         6.9729   -3.5966    3.7673  C     
12   C         6.1031   -4.1338    2.8002  C     
13   C         7.7781   -3.7446    1.0968  C     
14   C         8.6338   -3.1722    2.0536  C     
15   S         5.2097   -2.8469   -1.3854  S     
16   C         2.5547   -4.5262    1.1455  C     
17   C         8.2486   -3.0870    3.4138  C     
18   N         9.0787   -2.5279    4.3402  N     
19   O        10.2462   -2.0299    4.0299  O     
20   O         8.7889   -2.4412    5.5041  O     
21   C         5.3198   -3.4534   -3.0121  C     
22   C         4.5265   -2.9173   -4.0499  C     
23   C         6.1950   -4.5227   -3.2905  C     
24   C         6.2351   -5.0907   -4.5732  C     
25   C         5.4533   -4.5477   -5.6132  C     
26   C         4.6011   -3.4602   -5.3459  C     
27   O         5.4817   -5.0969   -6.8650  O     
28   C         6.6511   -4.7501   -7.6270  C     
29   H         2.8775   -6.5632   -2.6057  H     
30   H         4.8183   -7.0765   -2.2620  H     
31   H         2.7238   -3.2243   -0.4688  H     
32   H         5.0773   -5.6733    0.9090  H     
33   H         6.2004   -5.3214   -0.3376  H     
34   H         6.6596   -3.5805    4.7415  H     
35   H         5.1959   -4.4977    3.0966  H     
36   H         8.1078   -3.8083    0.1335  H     
37   H         9.5469   -2.8264    1.7448  H     
38   H         1.4626   -4.4479    1.1009  H     
39   H         2.9099   -3.8128    1.8920  H     
40   H         2.8087   -5.5391    1.4653  H     
41   H         3.8938   -2.1354   -3.8733  H     
42   H         6.7929   -4.9140   -2.5616  H     
43   H         6.8401   -5.8942   -4.7493  H     
44   H         4.0281   -3.0596   -6.0913  H     
45   H         6.7513   -3.6682   -7.7437  H     
46   H         6.5457   -5.1923   -8.6166  H     
47   H         7.5599   -5.1507   -7.1712  H     
@<TRIPOS>BOND
     1    1    2 am
     2    1    4 2
     3    1    5 1
     4    2    3 1
     5    5    6 1
     6    5   16 1
     7    6    9 1
     8    6   15 1
     9    7   15 2
    10    8   15 2
    11    9   10 1
    12   10   12 1
    13   10   13 2
    14   11   12 2
    15   11   17 1
    16   13   14 1
    17   14   17 2
    18   15   21 1
    19   17   18 am
    20   18   19 1
    21   18   20 2
    22   21   22 1
    23   21   23 2
    24   22   26 2
    25   23   24 1
    26   24   25 2
    27   25   26 1
    28   25   27 1
    29   27   28 1
    30    2   29 1
    31    3   30 1
    32    5   31 1
    33    9   32 1
    34    9   33 1
    35   11   34 1
    36   12   35 1
    37   13   36 1
    38   14   37 1
    39   16   38 1
    40   16   39 1
    41   16   40 1
    42   22   41 1
    43   23   42 1
    44   24   43 1
    45   26   44 1
    46   28   45 1
    47   28   46 1
    48   28   47 1
@<TRIPOS>PROPERTY_DATA
  Total_Score	| 5.5238
  Crash		| -1.6646
  Polar		| 4.4062
  FragIndex	| 1
  FragRMSD	| 1.260

