@<TRIPOS>MOLECULE
BindingDB_11349
 54 55 0 0 0
SMALL
NO_CHARGES


@<TRIPOS>ATOM
1    C         2.8054   -4.4554   -0.5400  C     
2    N         2.7647   -5.7521   -0.7879  N     
3    O         2.0148   -6.2749   -1.7248  O     
4    O         2.1334   -3.6890   -1.2245  O     
5    C         3.6686   -3.9231    0.5216  C     
6    N         5.0776   -3.8780    0.0724  N     
7    O         4.5087   -1.5975   -1.2367  O     
8    O         6.8042   -2.1697   -1.1668  O     
9    C         3.2727   -4.6346    1.8855  C     
10   C         3.1417   -3.7381    3.1731  C     
11   C         2.1135   -4.3747    4.1594  C     
12   C         4.4558   -3.4106    3.9403  C     
13   S         5.4076   -2.9124   -1.2973  S     
14   C         6.1715   -4.6960    0.5954  C     
15   C         7.1637   -4.0870    1.5391  C     
16   C         9.1950   -2.7508    1.9463  C     
17   C         8.2011   -3.2408    1.0745  C     
18   C         7.2209   -4.5069    2.8923  C     
19   C         8.2224   -4.0359    3.7638  C     
20   C         9.1926   -3.1326    3.2966  C     
21   C         5.3832   -3.6046   -2.9086  C     
22   C         4.6546   -2.9970   -3.9551  C     
23   C         6.1617   -4.7440   -3.2075  C     
24   C         6.1978   -5.2771   -4.5083  C     
25   C         4.7030   -3.5188   -5.2626  C     
26   C         5.4902   -4.6488   -5.5546  C     
27   O         5.4899   -5.1606   -6.8226  O     
28   C         6.5893   -4.7376   -7.6457  C     
29   H         3.2926   -6.3443   -0.2240  H     
30   H         2.5680   -7.0015   -2.1041  H     
31   H         3.3956   -2.8723    0.6561  H     
32   H         2.2748   -5.1023    1.7910  H     
33   H         3.9144   -5.4912    2.0841  H     
34   H         2.7210   -2.7762    2.8572  H     
35   H         1.1409   -4.5086    3.6734  H     
36   H         1.9721   -3.7374    5.0346  H     
37   H         2.4723   -5.3581    4.4955  H     
38   H         4.9080   -4.3130    4.3833  H     
39   H         4.2423   -2.7008    4.7542  H     
40   H         5.1876   -2.9418    3.2706  H     
41   H         5.7697   -5.5671    1.0948  H     
42   H         6.7350   -5.1132   -0.2379  H     
43   H         9.9288   -2.1343    1.5920  H     
44   H         8.2895   -3.0139    0.0834  H     
45   H         6.5713   -5.2118    3.2388  H     
46   H         8.2484   -4.3599    4.7353  H     
47   H         9.9222   -2.7928    3.9318  H     
48   H         4.0829   -2.1657   -3.7798  H     
49   H         6.7219   -5.2053   -2.4873  H     
50   H         6.7584   -6.1118   -4.6986  H     
51   H         4.1722   -3.0625   -6.0084  H     
52   H         6.6673   -3.6484   -7.6971  H     
53   H         6.4183   -5.1119   -8.6544  H     
54   H         7.5360   -5.1489   -7.2868  H     
@<TRIPOS>BOND
     1    1    2 am
     2    1    4 2
     3    1    5 1
     4    2    3 1
     5    5    6 1
     6    5    9 1
     7    6   13 1
     8    6   14 1
     9    7   13 2
    10    8   13 2
    11    9   10 1
    12   10   11 1
    13   10   12 1
    14   13   21 1
    15   14   15 1
    16   15   17 1
    17   15   18 2
    18   16   17 2
    19   16   20 1
    20   18   19 1
    21   19   20 2
    22   21   22 1
    23   21   23 2
    24   22   25 2
    25   23   24 1
    26   24   26 2
    27   25   26 1
    28   26   27 1
    29   27   28 1
    30    2   29 1
    31    3   30 1
    32    5   31 1
    33    9   32 1
    34    9   33 1
    35   10   34 1
    36   11   35 1
    37   11   36 1
    38   11   37 1
    39   12   38 1
    40   12   39 1
    41   12   40 1
    42   14   41 1
    43   14   42 1
    44   16   43 1
    45   17   44 1
    46   18   45 1
    47   19   46 1
    48   20   47 1
    49   22   48 1
    50   23   49 1
    51   24   50 1
    52   25   51 1
    53   28   52 1
    54   28   53 1
    55   28   54 1
@<TRIPOS>PROPERTY_DATA
  Total_Score	| 5.7717
  Crash		| -2.8695
  Polar		| 4.2063
  FragIndex	| 1
  FragRMSD	| 0.716

