@<TRIPOS>MOLECULE
BindingDB_50066658
 50 51 0 0 0
SMALL
NO_CHARGES


@<TRIPOS>ATOM
1    S         5.4267   -2.8966   -1.1827  S     
2    N         5.0200   -3.8484    0.1709  N     
3    C         3.6145   -3.8666    0.5814  C     
4    C         2.8036   -4.3967   -0.5207  C     
5    C         5.3501   -3.6020   -2.7751  C     
6    O         6.9276   -2.3888   -1.0761  O     
7    O         4.6355   -1.5188   -1.1226  O     
8    C         6.0209   -4.7871    0.6485  C     
9    O         2.1451   -3.6275   -1.2103  O     
10   N         2.7689   -5.6885   -0.7847  N     
11   N         8.7138   -4.7923    3.2890  N     
12   C         7.0855   -4.2802    1.5714  C     
13   C         3.2039   -4.5388    1.9551  C     
14   C         4.5554   -3.0306   -3.7966  C     
15   C         6.1824   -4.7028   -3.0900  C     
16   C         5.4647   -4.6048   -5.4227  C     
17   C         6.2229   -5.2115   -4.3997  C     
18   C         4.6132   -3.5265   -5.1139  C     
19   O         2.0105   -6.1918   -1.7283  O     
20   C         7.6895   -5.1801    2.4857  C     
21   O         5.5473   -5.0399   -6.7156  O     
22   C         9.2102   -3.5320    3.2716  C     
23   C         7.5484   -2.9437    1.6048  C     
24   C         3.7955   -3.8000    3.1912  C     
25   C         1.6590   -4.6453    2.1289  C     
26   C         6.7324   -4.5808   -7.3845  C     
27   C         8.6356   -2.5719    2.4198  C     
28   H         3.3426   -2.8142    0.7201  H     
29   H         5.5449   -5.6195    1.1572  H     
30   H         6.5219   -5.2211   -0.2146  H     
31   H         3.3000   -6.2943   -0.2476  H     
32   H         3.5799   -5.5662    1.9823  H     
33   H         3.9499   -2.2313   -3.5968  H     
34   H         6.7918   -5.1252   -2.3819  H     
35   H         6.8419   -5.9959   -4.6192  H     
36   H         4.0597   -3.0831   -5.8549  H     
37   H         2.5064   -6.9711   -2.0569  H     
38   H         7.3687   -6.1425    2.5563  H     
39   H         9.9958   -3.2882    3.8811  H     
40   H         7.1131   -2.2261    1.0207  H     
41   H         4.8853   -3.8260    3.1810  H     
42   H         3.4714   -4.2831    4.1175  H     
43   H         3.4666   -2.7600    3.2110  H     
44   H         1.1939   -3.6650    1.9932  H     
45   H         1.3997   -5.0275    3.1187  H     
46   H         1.2364   -5.3372    1.3946  H     
47   H         6.8194   -3.4903   -7.3467  H     
48   H         6.6740   -4.8926   -8.4312  H     
49   H         7.6271   -5.0361   -6.9458  H     
50   H         9.0006   -1.6167    2.3934  H     
@<TRIPOS>BOND
     1    1    2 1
     2    1    5 1
     3    1    6 2
     4    1    7 2
     5    2    3 1
     6    2    8 1
     7    3    4 1
     8    3   13 1
     9    4    9 2
    10    4   10 am
    11    5   14 1
    12    5   15 2
    13    8   12 1
    14   10   19 1
    15   11   20 1
    16   11   22 2
    17   12   20 2
    18   12   23 1
    19   13   24 1
    20   13   25 1
    21   14   18 2
    22   15   17 1
    23   16   17 2
    24   16   18 1
    25   16   21 1
    26   21   26 1
    27   22   27 1
    28   23   27 2
    29    3   28 1
    30    8   29 1
    31    8   30 1
    32   10   31 1
    33   13   32 1
    34   14   33 1
    35   15   34 1
    36   17   35 1
    37   18   36 1
    38   19   37 1
    39   20   38 1
    40   22   39 1
    41   23   40 1
    42   24   41 1
    43   24   42 1
    44   24   43 1
    45   25   44 1
    46   25   45 1
    47   25   46 1
    48   26   47 1
    49   26   48 1
    50   26   49 1
    51   27   50 1
@<TRIPOS>PROPERTY_DATA
  Total_Score	| 5.2956
  Crash		| -2.4458
  Polar		| 4.2924
  FragIndex	| 1
  FragRMSD	| 0.742

