@<TRIPOS>MOLECULE
BindingDB_11331
 42 43 0 0 0
SMALL
NO_CHARGES


@<TRIPOS>ATOM
1    C         2.6181   -5.1809   -1.2119  C     
2    N         3.2613   -6.0739   -1.9346  N     
3    O         4.5546   -6.2114   -1.9146  O     
4    O         1.4048   -5.2158   -1.3510  O     
5    C         3.1963   -4.3448   -0.1485  C     
6    N         4.6285   -4.0711   -0.2011  N     
7    O         4.3591   -1.5696   -1.1672  O     
8    O         6.6424   -2.4025   -0.9401  O     
9    S         5.1640   -2.9332   -1.3274  S     
10   C         5.5898   -4.8955    0.4994  C     
11   C         6.5197   -4.1626    1.4081  C     
12   C         7.0794   -3.3541    3.6539  C     
13   C         6.1769   -3.9726    2.7691  C     
14   C         7.7712   -3.7039    0.9453  C     
15   C         8.6731   -3.0508    1.8382  C     
16   C         8.3306   -2.9000    3.1860  C     
17   C         5.3088   -3.4728   -2.9683  C     
18   C         4.5095   -2.9063   -3.9791  C     
19   C         6.2298   -4.4896   -3.2918  C     
20   C         6.3204   -4.9707   -4.6170  C     
21   C         5.5065   -4.4117   -5.6232  C     
22   C         4.6038   -3.3777   -5.3011  C     
23   O         5.5316   -4.8916   -6.9035  O     
24   C         6.7172   -4.5464   -7.6337  C     
25   H         2.7569   -6.6442   -2.5411  H     
26   H         4.7219   -7.0850   -2.3396  H     
27   H         2.6705   -3.3830   -0.1300  H     
28   H         2.9406   -4.8294    0.7947  H     
29   H         5.0854   -5.6634    1.0929  H     
30   H         6.1709   -5.4497   -0.2370  H     
31   H         6.8322   -3.2421    4.6380  H     
32   H         5.2786   -4.3089    3.1208  H     
33   H         8.0513   -3.8012   -0.0142  H     
34   H         9.5658   -2.7000    1.4823  H     
35   H         8.9856   -2.4523    3.8291  H     
36   H         3.8561   -2.1482   -3.7649  H     
37   H         6.8328   -4.9002   -2.5803  H     
38   H         6.9815   -5.7212   -4.8273  H     
39   H         4.0115   -2.9607   -6.0254  H     
40   H         6.8955   -3.4679   -7.6506  H     
41   H         6.5770   -4.8821   -8.6604  H     
42   H         7.5950   -5.0522   -7.2281  H     
@<TRIPOS>BOND
     1    1    2 am
     2    1    4 2
     3    1    5 1
     4    2    3 1
     5    5    6 1
     6    6    9 1
     7    6   10 1
     8    7    9 2
     9    8    9 2
    10    9   17 1
    11   10   11 1
    12   11   13 1
    13   11   14 2
    14   12   13 2
    15   12   16 1
    16   14   15 1
    17   15   16 2
    18   17   18 2
    19   17   19 1
    20   18   22 1
    21   19   20 2
    22   20   21 1
    23   21   22 2
    24   21   23 1
    25   23   24 1
    26    2   25 1
    27    3   26 1
    28    5   27 1
    29    5   28 1
    30   10   29 1
    31   10   30 1
    32   12   31 1
    33   13   32 1
    34   14   33 1
    35   15   34 1
    36   16   35 1
    37   18   36 1
    38   19   37 1
    39   20   38 1
    40   22   39 1
    41   24   40 1
    42   24   41 1
    43   24   42 1
@<TRIPOS>PROPERTY_DATA
  Total_Score	| 5.5681
  Crash		| -1.7789
  Polar		| 4.3164
  FragIndex	| 1
  FragRMSD	| 1.209

