@<TRIPOS>MOLECULE
BindingDB_50380140
 31 32 0 0 0
SMALL
NO_CHARGES


@<TRIPOS>ATOM
1    S        -4.1166    0.8492   14.9979  S     
2    O        -5.0757   -0.4153   15.2001  O     
3    O        -2.8952    0.6319   15.9871  O     
4    C        -6.3861    4.1403   15.7282  C     
5    C        -5.8758    2.8386   15.8464  C     
6    C        -4.6925    2.4913   15.1337  C     
7    C        -3.9668    3.5145   14.4720  C     
8    C        -4.4639    4.8346   14.3764  C     
9    C        -5.7219    5.1136   14.9525  C     
10   C        -3.7630    5.8349   13.7056  C     
11   C        -2.6187    6.4898   14.3263  C     
12   O        -4.3674    6.4899   12.8591  O     
13   S        -1.4133    7.0513   13.0772  S     
14   C        -0.8650    8.5860   13.6785  C     
15   N        -0.6334    8.8420   14.9939  N     
16   C        -0.1668   10.0421   15.4156  C     
17   C         0.0741   11.0762   14.5026  C     
18   C        -0.1578   10.8002   13.1374  C     
19   N        -0.6115    9.5709   12.7724  N     
20   Cl       -6.7572    1.7780   16.8547  Cl    
21   N        -3.4197    0.6182   13.4909  N     
22   H        -7.2563    4.3915   16.2234  H     
23   H        -3.0956    3.2772   14.0047  H     
24   H        -6.1579    6.0341   14.8537  H     
25   H        -2.9929    7.3431   14.9024  H     
26   H        -2.0837    5.8242   15.0025  H     
27   H         0.0068   10.1944   16.4172  H     
28   H         0.4340   11.9916   14.8061  H     
29   H         0.0306   11.5149   12.4313  H     
30   H        -2.4892    0.8914   13.3650  H     
31   H        -3.8788    0.0979   12.8029  H     
@<TRIPOS>BOND
     1    1    2 2
     2    1    3 2
     3    1    6 1
     4    1   21 am
     5    4    5 2
     6    4    9 1
     7    5    6 1
     8    5   20 1
     9    6    7 2
    10    7    8 1
    11    8    9 2
    12    8   10 1
    13   10   11 1
    14   10   12 2
    15   11   13 1
    16   13   14 1
    17   14   15 2
    18   14   19 1
    19   15   16 1
    20   16   17 2
    21   17   18 1
    22   18   19 2
    23    4   22 1
    24    7   23 1
    25    9   24 1
    26   11   25 1
    27   11   26 1
    28   16   27 1
    29   17   28 1
    30   18   29 1
    31   21   30 1
    32   21   31 1
@<TRIPOS>PROPERTY_DATA
  Total_Score	| 4.3861
  Crash		| -1.6909
  Polar		| 3.0479
  FragIndex	| 1
  FragRMSD	| 1.037

