@<TRIPOS>MOLECULE
BindingDB_50380156
 48 50 0 0 0
SMALL
NO_CHARGES


@<TRIPOS>ATOM
1    S        -5.6262    1.3869   16.2421  S     
2    O        -4.7801    1.0764   17.5507  O     
3    O        -5.6069    0.0182   15.4340  O     
4    N        -7.2128    1.5920   16.7471  N     
5    C        -5.7902    3.6696   14.7459  C     
6    C        -4.9428    2.7206   15.3497  C     
7    C        -3.5500    2.9214   15.3081  C     
8    C        -3.0140    4.0874   14.7264  C     
9    C        -3.8595    5.0805   14.1689  C     
10   C        -5.2552    4.8290   14.1587  C     
11   C        -3.3559    6.2865   13.6614  C     
12   C        -2.3528    7.1109   14.3249  C     
13   O        -3.9281    6.8087   12.7031  O     
14   S        -0.9899    7.5366   13.2079  S     
15   C        -0.8727    9.2238   13.5895  C     
16   N        -1.6256   10.1372   12.9343  N     
17   C        -1.5962   11.4239   13.2662  C     
18   C        -0.8226   11.8837   14.3262  C     
19   C        -0.0137   10.9688   14.9404  C     
20   N        -0.0626    9.6708   14.5752  N     
21   C        -1.0265   13.2587   14.8441  C     
22   C         0.1965   14.0619   15.1062  C     
23   C         0.6201   14.3378   16.4253  C     
24   C         1.7825   15.0947   16.6642  C     
25   C         2.5299   15.5927   15.5817  C     
26   C         2.1071   15.3460   14.2654  C     
27   C         0.9413   14.5905   14.0262  C     
28   O        -2.3065   12.1562   12.5862  O     
29   C         0.9127   11.2723   16.0253  C     
30   H        -7.9305    1.1283   16.2794  H     
31   H        -7.3894    2.0289   17.5956  H     
32   H        -6.8030    3.5458   14.7613  H     
33   H        -2.9191    2.2372   15.7321  H     
34   H        -1.9958    4.2045   14.7189  H     
35   H        -5.9031    5.5164   13.7677  H     
36   H        -2.8558    8.0089   14.6982  H     
37   H        -1.9226    6.6116   15.1950  H     
38   H        -2.1974    9.8515   12.2040  H     
39   H        -1.6237   13.8662   14.1616  H     
40   H        -1.6225   13.1645   15.7519  H     
41   H         0.0926   13.9816   17.2295  H     
42   H         2.0815   15.2773   17.6225  H     
43   H         3.3811   16.1319   15.7532  H     
44   H         2.6439   15.7159   13.4791  H     
45   H         0.6448   14.4268   13.0605  H     
46   H         1.6442   12.0056   15.6913  H     
47   H         1.4687   10.3877   16.3544  H     
48   H         0.3711   11.6636   16.8863  H     
@<TRIPOS>BOND
     1    1    2 2
     2    1    3 2
     3    1    4 am
     4    1    6 1
     5    5    6 2
     6    5   10 1
     7    6    7 1
     8    7    8 2
     9    8    9 1
    10    9   10 2
    11    9   11 1
    12   11   12 1
    13   11   13 2
    14   12   14 1
    15   14   15 1
    16   15   16 1
    17   15   20 2
    18   16   17 1
    19   17   18 1
    20   17   28 2
    21   18   19 2
    22   18   21 1
    23   19   20 1
    24   19   29 1
    25   21   22 1
    26   22   23 2
    27   22   27 1
    28   23   24 1
    29   24   25 2
    30   25   26 1
    31   26   27 2
    32    4   30 1
    33    4   31 1
    34    5   32 1
    35    7   33 1
    36    8   34 1
    37   10   35 1
    38   12   36 1
    39   12   37 1
    40   16   38 1
    41   21   39 1
    42   21   40 1
    43   23   41 1
    44   24   42 1
    45   25   43 1
    46   26   44 1
    47   27   45 1
    48   29   46 1
    49   29   47 1
    50   29   48 1
@<TRIPOS>PROPERTY_DATA
  Total_Score	| 6.8086
  Crash		| -1.5733
  Polar		| 2.9728
  FragIndex	| 1
  FragRMSD	| 1.029

