@<TRIPOS>MOLECULE
BindingDB_50380150
 40 41 0 0 0
SMALL
NO_CHARGES


@<TRIPOS>ATOM
1    S        -5.6634    1.2394   16.3703  S     
2    O        -4.6768    0.5738   17.4160  O     
3    O        -5.8983    0.0409   15.3609  O     
4    N        -7.1324    1.4566   17.1561  N     
5    C        -3.6044    2.8128   15.4318  C     
6    C        -4.9976    2.6217   15.5530  C     
7    C        -5.8683    3.5912   15.0198  C     
8    C        -5.3592    4.7361   14.3891  C     
9    C        -3.9627    4.9627   14.2939  C     
10   C        -3.0949    3.9667   14.8087  C     
11   C        -3.4777    6.1438   13.7211  C     
12   C        -2.4146    6.9399   14.3151  C     
13   O        -4.1427    6.6981   12.8494  O     
14   S        -1.1540    7.4278   13.0960  S     
15   C        -0.8928    9.0509   13.6677  C     
16   N         0.1831    9.3794   14.4294  N     
17   C         0.3671   10.6480   14.8860  C     
18   C        -0.5592   11.6666   14.5803  C     
19   C        -1.6695   11.2848   13.7921  C     
20   N        -1.8033   10.0077   13.3576  N     
21   C        -0.4414   13.0594   15.0974  C     
22   C        -0.5636   14.1493   13.9988  C     
23   C        -0.4237   15.5841   14.5649  C     
24   H        -7.9667    1.3471   16.6651  H     
25   H        -7.1567    1.5555   18.1256  H     
26   H        -2.9537    2.1308   15.8222  H     
27   H        -6.8802    3.4861   15.1151  H     
28   H        -6.0269    5.4250   14.0357  H     
29   H        -2.0820    4.0757   14.7306  H     
30   H        -2.8772    7.8267   14.7608  H     
31   H        -1.8998    6.4140   15.1194  H     
32   H         1.1854   10.8404   15.4654  H     
33   H        -2.3954   11.9595   13.5519  H     
34   H        -1.2250   13.2094   15.8437  H     
35   H         0.5155   13.1949   15.6062  H     
36   H         0.2144   13.9946   13.2471  H     
37   H        -1.5350   14.0803   13.4999  H     
38   H        -1.2179   15.7786   15.2910  H     
39   H        -0.5061   16.3154   13.7563  H     
40   H         0.5450   15.7149   15.0541  H     
@<TRIPOS>BOND
     1    1    2 2
     2    1    3 2
     3    1    4 am
     4    1    6 1
     5    5    6 2
     6    5   10 1
     7    6    7 1
     8    7    8 2
     9    8    9 1
    10    9   10 2
    11    9   11 1
    12   11   12 1
    13   11   13 2
    14   12   14 1
    15   14   15 1
    16   15   16 2
    17   15   20 1
    18   16   17 1
    19   17   18 2
    20   18   19 1
    21   18   21 1
    22   19   20 2
    23   21   22 1
    24   22   23 1
    25    4   24 1
    26    4   25 1
    27    5   26 1
    28    7   27 1
    29    8   28 1
    30   10   29 1
    31   12   30 1
    32   12   31 1
    33   17   32 1
    34   19   33 1
    35   21   34 1
    36   21   35 1
    37   22   36 1
    38   22   37 1
    39   23   38 1
    40   23   39 1
    41   23   40 1
@<TRIPOS>PROPERTY_DATA
  Total_Score	| 6.4944
  Crash		| -1.0928
  Polar		| 3.2546
  FragIndex	| 1
  FragRMSD	| 0.799

