@<TRIPOS>MOLECULE
BindingDB_50380147
 33 34 0 0 0
SMALL
NO_CHARGES


@<TRIPOS>ATOM
1    S        -5.6980    1.3577   16.3036  S     
2    O        -4.9472    1.1895   17.6974  O     
3    O        -5.4986   -0.0534   15.6009  O     
4    N        -7.3419    1.4320   16.6219  N     
5    C        -5.8221    3.5640   14.6933  C     
6    C        -4.9984    2.6161   15.3404  C     
7    C        -3.5972    2.7932   15.3014  C     
8    C        -3.0355    3.9268   14.7159  C     
9    C        -3.8589    4.9417   14.1283  C     
10   C        -5.2575    4.6930   14.0887  C     
11   C        -3.3332    6.1573   13.6784  C     
12   C        -2.3472    6.9354   14.4205  C     
13   O        -3.8468    6.6423   12.6580  O     
14   S        -0.9666    7.5021   13.4056  S     
15   C        -1.4926    9.1436   13.1935  C     
16   C        -2.1212    9.5499   11.9964  C     
17   C        -2.5683   10.8761   11.8446  C     
18   C        -2.4127   11.7963   12.9020  C     
19   C        -1.8002   11.3962   14.1041  C     
20   C        -1.3481   10.0689   14.2500  C     
21   H        -7.9336    0.7435   16.2761  H     
22   H        -7.6892    2.0853   17.2444  H     
23   H        -6.8396    3.4616   14.7115  H     
24   H        -2.9822    2.1114   15.7675  H     
25   H        -2.0193    4.0573   14.7388  H     
26   H        -5.8912    5.3998   13.6886  H     
27   H        -2.8755    7.7639   14.9103  H     
28   H        -1.9188    6.3389   15.2276  H     
29   H        -2.2445    8.8903   11.2250  H     
30   H        -3.0052   11.1738   10.9713  H     
31   H        -2.7332   12.7641   12.7888  H     
32   H        -1.6812   12.0643   14.8671  H     
33   H        -0.9107    9.7887   15.1325  H     
@<TRIPOS>BOND
     1    1    2 2
     2    1    3 2
     3    1    4 am
     4    1    6 1
     5    5    6 2
     6    5   10 1
     7    6    7 1
     8    7    8 2
     9    8    9 1
    10    9   10 2
    11    9   11 1
    12   11   12 1
    13   11   13 2
    14   12   14 1
    15   14   15 1
    16   15   16 2
    17   15   20 1
    18   16   17 1
    19   17   18 2
    20   18   19 1
    21   19   20 2
    22    4   21 1
    23    4   22 1
    24    5   23 1
    25    7   24 1
    26    8   25 1
    27   10   26 1
    28   12   27 1
    29   12   28 1
    30   16   29 1
    31   17   30 1
    32   18   31 1
    33   19   32 1
    34   20   33 1
@<TRIPOS>PROPERTY_DATA
  Total_Score	| 6.5703
  Crash		| -0.8023
  Polar		| 2.8343
  FragIndex	| 1
  FragRMSD	| 0.994

