@<TRIPOS>MOLECULE
BindingDB_50380152
 37 38 0 0 0
SMALL
NO_CHARGES


@<TRIPOS>ATOM
1    S        -4.1118    0.8928   14.8631  S     
2    O        -5.1389   -0.2900   15.1282  O     
3    O        -2.9844    0.6735   15.9614  O     
4    C        -6.3929    4.1468   15.7508  C     
5    C        -5.8962    2.8294   15.7508  C     
6    C        -4.7269    2.5251   15.0114  C     
7    C        -4.0220    3.5723   14.3693  C     
8    C        -4.5191    4.9008   14.3732  C     
9    C        -5.7390    5.1579   15.0430  C     
10   C        -3.8366    5.9343   13.7482  C     
11   C        -2.7733    6.6501   14.4272  C     
12   O        -4.4188    6.5244   12.8420  O     
13   S        -1.4185    7.0686   13.2967  S     
14   C        -1.1145    8.7175   13.7727  C     
15   N        -0.0786    9.0303   14.5932  N     
16   C         0.1702   10.3100   14.9718  C     
17   C        -0.6660   11.3665   14.5329  C     
18   C        -1.7310   11.0109   13.6753  C     
19   N        -1.9245    9.7115   13.3283  N     
20   Cl       -6.7354    1.6909   16.6851  Cl    
21   N        -3.3640    0.5802   13.3928  N     
22   C        -0.4881   12.7690   15.0146  C     
23   C        -0.5834   13.8516   13.9122  C     
24   H        -7.2310    4.3725   16.2885  H     
25   H        -3.1483    3.3753   13.8738  H     
26   H        -6.1431    6.0995   15.0467  H     
27   H        -3.1860    7.5433   14.9030  H     
28   H        -2.3395    6.0363   15.2193  H     
29   H         0.9554   10.4862   15.6053  H     
30   H        -2.3772   11.7192   13.3231  H     
31   H        -2.4388    0.8398   13.2815  H     
32   H        -3.8621    0.1878   12.6552  H     
33   H        -1.2583   12.9723   15.7638  H     
34   H         0.4783   12.8805   15.5201  H     
35   H         0.0888   13.6082   13.0886  H     
36   H        -0.2963   14.8246   14.3227  H     
37   H        -1.6059   13.9199   13.5364  H     
@<TRIPOS>BOND
     1    1    2 2
     2    1    3 2
     3    1    6 1
     4    1   21 am
     5    4    5 2
     6    4    9 1
     7    5    6 1
     8    5   20 1
     9    6    7 2
    10    7    8 1
    11    8    9 2
    12    8   10 1
    13   10   11 1
    14   10   12 2
    15   11   13 1
    16   13   14 1
    17   14   15 2
    18   14   19 1
    19   15   16 1
    20   16   17 2
    21   17   18 1
    22   17   22 1
    23   18   19 2
    24   22   23 1
    25    4   24 1
    26    7   25 1
    27    9   26 1
    28   11   27 1
    29   11   28 1
    30   16   29 1
    31   18   30 1
    32   21   31 1
    33   21   32 1
    34   22   33 1
    35   22   34 1
    36   23   35 1
    37   23   36 1
    38   23   37 1
@<TRIPOS>PROPERTY_DATA
  Total_Score	| 4.9847
  Crash		| -1.8785
  Polar		| 2.9590
  FragIndex	| 1
  FragRMSD	| 0.770

