@<TRIPOS>MOLECULE
BindingDB_50380148
 31 32 0 0 0
SMALL
NO_CHARGES


@<TRIPOS>ATOM
1    S        -5.6757    1.2479   16.3646  S     
2    O        -4.7451    0.6001   17.4753  O     
3    O        -5.8347    0.0212   15.3696  O     
4    N        -7.2203    1.4135   16.9962  N     
5    C        -3.6000    2.7954   15.4020  C     
6    C        -4.9934    2.6203   15.5416  C     
7    C        -5.8540    3.6033   15.0101  C     
8    C        -5.3341    4.7403   14.3742  C     
9    C        -3.9375    4.9530   14.2649  C     
10   C        -3.0772    3.9426   14.7796  C     
11   C        -3.4346    6.1121   13.6867  C     
12   C        -2.4314    6.9450   14.3180  C     
13   O        -4.0463    6.6119   12.7433  O     
14   S        -1.1322    7.4271   13.1452  S     
15   C        -0.8653    9.0440   13.7311  C     
16   N         0.2056    9.3364   14.5200  N     
17   C         0.4056   10.5875   15.0053  C     
18   C        -0.5051   11.6134   14.6952  C     
19   C        -1.6018   11.2944   13.8742  C     
20   N        -1.7508   10.0239   13.4152  N     
21   H        -7.9897    1.1125   16.4817  H     
22   H        -7.3381    1.6720   17.9249  H     
23   H        -2.9521    2.0808   15.7627  H     
24   H        -6.8633    3.4996   15.0894  H     
25   H        -5.9924    5.4412   14.0134  H     
26   H        -2.0607    4.0363   14.6875  H     
27   H        -2.9441    7.8190   14.7155  H     
28   H        -1.9415    6.4528   15.1544  H     
29   H         1.2112   10.7719   15.6077  H     
30   H        -0.3803   12.5577   15.0647  H     
31   H        -2.2949   12.0065   13.6346  H     
@<TRIPOS>BOND
     1    1    2 2
     2    1    3 2
     3    1    4 am
     4    1    6 1
     5    5    6 2
     6    5   10 1
     7    6    7 1
     8    7    8 2
     9    8    9 1
    10    9   10 2
    11    9   11 1
    12   11   12 1
    13   11   13 2
    14   12   14 1
    15   14   15 1
    16   15   16 2
    17   15   20 1
    18   16   17 1
    19   17   18 2
    20   18   19 1
    21   19   20 2
    22    4   21 1
    23    4   22 1
    24    5   23 1
    25    7   24 1
    26    8   25 1
    27   10   26 1
    28   12   27 1
    29   12   28 1
    30   17   29 1
    31   18   30 1
    32   19   31 1
@<TRIPOS>PROPERTY_DATA
  Total_Score	| 5.7165
  Crash		| -0.9788
  Polar		| 3.2164
  FragIndex	| 1
  FragRMSD	| 0.849

