@<TRIPOS>MOLECULE
BindingDB_50380143
 37 38 0 0 0
SMALL
NO_CHARGES


@<TRIPOS>ATOM
1    S        -5.6254    1.3387   16.3814  S     
2    O        -4.5794    0.6280   17.3403  O     
3    O        -6.0098    0.1404   15.4144  O     
4    N        -6.9657    1.6403   17.3436  N     
5    C        -5.7976    3.6694   15.0041  C     
6    C        -4.9338    2.6919   15.5370  C     
7    C        -3.5369    2.8792   15.4186  C     
8    C        -3.0149    4.0377   14.8127  C     
9    C        -3.8802    5.0476   14.3041  C     
10   C        -5.2743    4.8199   14.3905  C     
11   C        -3.4067    6.2369   13.7398  C     
12   C        -2.3549    7.0585   14.3117  C     
13   O        -4.0734    6.7674   12.8530  O     
14   S        -1.1553    7.5740   13.0488  S     
15   C        -0.9466    9.2193   13.5630  C     
16   N        -1.6724   10.2080   12.9849  N     
17   C        -1.5476   11.5138   13.3528  C     
18   C        -0.6354   11.8410   14.3751  C     
19   C         0.1197   10.8071   14.9656  C     
20   N        -0.0596    9.5268   14.5413  N     
21   C         1.1030   11.1088   16.0205  C     
22   C        -2.3391   12.5412   12.6485  C     
23   H        -7.8505    1.6989   16.9463  H     
24   H        -6.8814    1.6077   18.3117  H     
25   H        -6.8107    3.5727   15.0899  H     
26   H        -2.8918    2.1837   15.8051  H     
27   H        -2.0025    4.1392   14.7391  H     
28   H        -5.9415    5.5155   14.0446  H     
29   H        -2.8313    7.9319   14.7676  H     
30   H        -1.8044    6.5472   15.1036  H     
31   H        -0.5103   12.8116   14.6736  H     
32   H         1.8443   11.8098   15.6352  H     
33   H         1.6169   10.2048   16.3465  H     
34   H         0.5948   11.5544   16.8768  H     
35   H        -2.1136   12.5057   11.5817  H     
36   H        -2.1186   13.5477   13.0108  H     
37   H        -3.4028   12.3532   12.7927  H     
@<TRIPOS>BOND
     1    1    2 2
     2    1    3 2
     3    1    4 am
     4    1    6 1
     5    5    6 2
     6    5   10 1
     7    6    7 1
     8    7    8 2
     9    8    9 1
    10    9   10 2
    11    9   11 1
    12   11   12 1
    13   11   13 2
    14   12   14 1
    15   14   15 1
    16   15   16 2
    17   15   20 1
    18   16   17 1
    19   17   18 2
    20   17   22 1
    21   18   19 1
    22   19   20 2
    23   19   21 1
    24    4   23 1
    25    4   24 1
    26    5   25 1
    27    7   26 1
    28    8   27 1
    29   10   28 1
    30   12   29 1
    31   12   30 1
    32   18   31 1
    33   21   32 1
    34   21   33 1
    35   21   34 1
    36   22   35 1
    37   22   36 1
    38   22   37 1
@<TRIPOS>PROPERTY_DATA
  Total_Score	| 6.6502
  Crash		| -1.2776
  Polar		| 3.4725
  FragIndex	| 1
  FragRMSD	| 0.882

