@<TRIPOS>MOLECULE
BindingDB_50380151
 40 41 0 0 0
SMALL
NO_CHARGES


@<TRIPOS>ATOM
1    S        -4.1619    0.8628   14.8962  S     
2    O        -5.1252   -0.3689   15.2128  O     
3    O        -2.9743    0.7345   15.9556  O     
4    C        -6.4088    4.1473   15.7959  C     
5    C        -5.9418    2.8185   15.7961  C     
6    C        -4.7679    2.4872   15.0689  C     
7    C        -4.0428    3.5224   14.4246  C     
8    C        -4.5034    4.8617   14.4396  C     
9    C        -5.7181    5.1478   15.1008  C     
10   C        -3.8079    5.8485   13.7696  C     
11   C        -2.6579    6.5218   14.3652  C     
12   O        -4.4477    6.4760   12.9344  O     
13   S        -1.4268    6.9798   13.1128  S     
14   C        -0.9538    8.5546   13.6933  C     
15   N        -0.5857    8.7488   14.9819  N     
16   C        -0.1885    9.9734   15.4239  C     
17   C        -0.1438   11.0865   14.5544  C     
18   C        -0.5090   10.8373   13.2109  C     
19   N        -0.8905    9.5907   12.8185  N     
20   Cl       -6.8198    1.7003   16.7305  Cl    
21   N        -3.3957    0.6029   13.4247  N     
22   C         0.2834   12.4366   15.0312  C     
23   C        -0.8015   13.5526   14.8892  C     
24   C        -0.2802   14.9985   15.0873  C     
25   H        -7.2597    4.3974   16.3127  H     
26   H        -3.1819    3.3051   13.9220  H     
27   H        -6.1045    6.0933   15.0939  H     
28   H        -3.0147    7.4187   14.8765  H     
29   H        -2.1717    5.8710   15.0992  H     
30   H         0.0926   10.0699   16.3974  H     
31   H        -0.4660   11.5979   12.5233  H     
32   H        -2.4592    0.8354   13.3374  H     
33   H        -3.9136    0.3473   12.6422  H     
34   H         0.5431   12.3783   16.0982  H     
35   H         1.2033   12.7319   14.5057  H     
36   H        -1.2794   13.4740   13.9023  H     
37   H        -1.5747   13.3762   15.6484  H     
38   H         0.1374   15.1163   16.0915  H     
39   H        -1.1142   15.6999   14.9745  H     
40   H         0.4934   15.2337   14.3413  H     
@<TRIPOS>BOND
     1    1    2 2
     2    1    3 2
     3    1    6 1
     4    1   21 am
     5    4    5 2
     6    4    9 1
     7    5    6 1
     8    5   20 1
     9    6    7 2
    10    7    8 1
    11    8    9 2
    12    8   10 1
    13   10   11 1
    14   10   12 2
    15   11   13 1
    16   13   14 1
    17   14   15 2
    18   14   19 1
    19   15   16 1
    20   16   17 2
    21   17   18 1
    22   17   22 1
    23   18   19 2
    24   22   23 1
    25   23   24 1
    26    4   25 1
    27    7   26 1
    28    9   27 1
    29   11   28 1
    30   11   29 1
    31   16   30 1
    32   18   31 1
    33   21   32 1
    34   21   33 1
    35   22   34 1
    36   22   35 1
    37   23   36 1
    38   23   37 1
    39   24   38 1
    40   24   39 1
    41   24   40 1
@<TRIPOS>PROPERTY_DATA
  Total_Score	| 5.6630
  Crash		| -2.0101
  Polar		| 3.0943
  FragIndex	| 1
  FragRMSD	| 1.019

