@<TRIPOS>MOLECULE
BindingDB_50380142
 37 38 0 0 0
SMALL
NO_CHARGES


@<TRIPOS>ATOM
1    S        -5.7240    1.3057   16.3365  S     
2    O        -4.9452    1.0884   17.7065  O     
3    O        -5.5481   -0.0897   15.5908  O     
4    N        -7.3533    1.3945   16.7198  N     
5    C        -3.6226    2.7838   15.3885  C     
6    C        -5.0215    2.6241   15.4429  C     
7    C        -5.8453    3.5939   14.8412  C     
8    C        -5.2799    4.7290   14.2360  C     
9    C        -3.8758    4.9377   14.2175  C     
10   C        -3.0587    3.9234   14.7831  C     
11   C        -3.3402    6.1285   13.6958  C     
12   C        -2.2773    6.8695   14.3515  C     
13   O        -3.9989    6.7718   12.8822  O     
14   S        -0.9917    7.3835   13.1578  S     
15   C        -0.8061    9.0261   13.6766  C     
16   N        -1.7945    9.9187   13.4307  N     
17   C        -1.7227   11.2059   13.8468  C     
18   C        -0.5905   11.6617   14.5535  C     
19   C         0.4376   10.7157   14.7846  C     
20   N         0.3023    9.4336   14.3473  N     
21   C        -0.5250   13.0507   15.0778  C     
22   C        -0.6858   14.1294   13.9831  C     
23   H        -8.0086    0.9060   16.1975  H     
24   H        -7.6445    1.8991   17.4986  H     
25   H        -3.0045    2.0924   15.8202  H     
26   H        -6.8619    3.5052   14.8743  H     
27   H        -5.9162    5.4276   13.8463  H     
28   H        -2.0344    4.0041   14.7608  H     
29   H        -2.7332    7.7387   14.8531  H     
30   H        -1.7639    6.2892   15.1279  H     
31   H        -2.5123   11.8223   13.6552  H     
32   H         1.2814   10.9770   15.2988  H     
33   H        -1.3139   13.1902   15.8216  H     
34   H         0.4303   13.2319   15.5806  H     
35   H         0.0917   14.0189   13.2231  H     
36   H        -0.5954   15.1256   14.4263  H     
37   H        -1.6641   14.0603   13.5004  H     
@<TRIPOS>BOND
     1    1    2 2
     2    1    3 2
     3    1    4 am
     4    1    6 1
     5    5    6 2
     6    5   10 1
     7    6    7 1
     8    7    8 2
     9    8    9 1
    10    9   10 2
    11    9   11 1
    12   11   12 1
    13   11   13 2
    14   12   14 1
    15   14   15 1
    16   15   16 2
    17   15   20 1
    18   16   17 1
    19   17   18 2
    20   18   19 1
    21   18   21 1
    22   19   20 2
    23   21   22 1
    24    4   23 1
    25    4   24 1
    26    5   25 1
    27    7   26 1
    28    8   27 1
    29   10   28 1
    30   12   29 1
    31   12   30 1
    32   17   31 1
    33   19   32 1
    34   21   33 1
    35   21   34 1
    36   22   35 1
    37   22   36 1
    38   22   37 1
@<TRIPOS>PROPERTY_DATA
  Total_Score	| 6.3851
  Crash		| -0.8649
  Polar		| 2.8941
  FragIndex	| 1
  FragRMSD	| 0.805

