@<TRIPOS>MOLECULE
BindingDB_50380157
 35 36 0 0 0
SMALL
NO_CHARGES


@<TRIPOS>ATOM
1    O        -4.5076    0.6487   17.2760  O     
2    S        -5.5851    1.3583   16.3474  S     
3    O        -6.0558    0.1179   15.4603  O     
4    C        -4.9391    2.6648   15.3955  C     
5    C        -3.5452    2.8817   15.3035  C     
6    C        -3.0507    4.0562   14.6980  C     
7    C        -3.9242    5.0382   14.1537  C     
8    C        -5.3154    4.7585   14.1877  C     
9    C        -5.8177    3.5948   14.7994  C     
10   C        -3.4464    6.2518   13.6456  C     
11   O        -4.1031    6.8299   12.7832  O     
12   C        -2.3709    7.0277   14.2281  C     
13   S        -1.1736    7.5673   12.9730  S     
14   C        -0.8700    9.1526   13.6371  C     
15   N        -1.3644   10.2545   13.0169  N     
16   C        -1.1883   11.4934   13.5218  C     
17   C        -0.4895   11.6497   14.6710  C     
18   C         0.0296   10.5462   15.2932  C     
19   N        -0.1640    9.3259   14.7866  N     
20   O         0.6526   10.6507   16.3407  O     
21   C        -1.7997   12.5978   12.8114  C     
22   N        -6.8687    1.7594   17.3555  N     
23   H        -2.8874    2.2201   15.7211  H     
24   H        -2.0383    4.1864   14.6677  H     
25   H        -5.9857    5.4278   13.8127  H     
26   H        -6.8241    3.4531   14.8476  H     
27   H        -2.8198    7.9009   14.7203  H     
28   H        -1.8226    6.4809   15.0000  H     
29   H        -0.3756   12.5460   15.0831  H     
30   H         0.1870    8.5503   15.2506  H     
31   H        -1.3924   12.6557   11.7987  H     
32   H        -1.6300   13.5566   13.3032  H     
33   H        -2.8751   12.4335   12.7459  H     
34   H        -7.7865    1.6478   17.0499  H     
35   H        -6.6959    2.0899   18.2541  H     
@<TRIPOS>BOND
     1    1    2 2
     2    2    3 2
     3    2    4 1
     4    2   22 am
     5    4    5 1
     6    4    9 2
     7    5    6 2
     8    6    7 1
     9    7    8 2
    10    7   10 1
    11    8    9 1
    12   10   11 2
    13   10   12 1
    14   12   13 1
    15   13   14 1
    16   14   15 2
    17   14   19 1
    18   15   16 1
    19   16   17 2
    20   16   21 1
    21   17   18 1
    22   18   19 1
    23   18   20 2
    24    5   23 1
    25    6   24 1
    26    8   25 1
    27    9   26 1
    28   12   27 1
    29   12   28 1
    30   17   29 1
    31   19   30 1
    32   21   31 1
    33   21   32 1
    34   21   33 1
    35   22   34 1
    36   22   35 1
@<TRIPOS>PROPERTY_DATA
  Total_Score	| 5.9118
  Crash		| -1.4302
  Polar		| 3.5597
  FragIndex	| 1
  FragRMSD	| 1.256

