@<TRIPOS>MOLECULE
BindingDB_50380145
 41 42 0 0 0
SMALL
NO_CHARGES


@<TRIPOS>ATOM
1    S        -5.6345    1.3110   16.3405  S     
2    O        -4.6604    0.6305   17.3937  O     
3    O        -5.9105    0.0994   15.3563  O     
4    N        -7.0992    1.5465   17.1221  N     
5    C        -5.8243    3.6424   14.9493  C     
6    C        -4.9516    2.6875   15.5084  C     
7    C        -3.5591    2.8812   15.4107  C     
8    C        -3.0449    4.0500   14.8093  C     
9    C        -3.9154    5.0469   14.2789  C     
10   C        -5.3073    4.7970   14.3364  C     
11   C        -3.4291    6.2321   13.7240  C     
12   C        -2.3587    7.0360   14.2937  C     
13   O        -4.0646    6.7441   12.8062  O     
14   S        -1.0934    7.4258   13.0533  S     
15   C        -0.6350    9.0016   13.6291  C     
16   N        -0.6227   10.0631   12.7749  N     
17   C        -0.3038   11.3066   13.1936  C     
18   C         0.0342   11.5033   14.4908  C     
19   C         0.0425   10.4421   15.3455  C     
20   N        -0.2951    9.2244   14.9274  N     
21   O         0.3527   10.5944   16.5168  O     
22   C        -0.3836   12.4096   12.2399  C     
23   C        -1.5688   13.3798   12.4971  C     
24   C        -2.9549   12.6984   12.4123  C     
25   H        -7.9324    1.3686   16.6515  H     
26   H        -7.1118    1.6822   18.0876  H     
27   H        -6.8372    3.5068   15.0022  H     
28   H        -2.9115    2.1800   15.7871  H     
29   H        -2.0327    4.1587   14.7509  H     
30   H        -5.9775    5.4807   13.9662  H     
31   H        -2.8122    7.9529   14.6756  H     
32   H        -1.8616    6.5429   15.1255  H     
33   H         0.2690   12.4178   14.8241  H     
34   H        -0.3004    8.4844   15.5524  H     
35   H         0.5509   12.9769   12.2690  H     
36   H        -0.4770   12.0181   11.2210  H     
37   H        -1.4643   13.8475   13.4779  H     
38   H        -1.5365   14.1737   11.7442  H     
39   H        -3.0725   12.1842   11.4598  H     
40   H        -3.7471   13.4473   12.5062  H     
41   H        -3.0701   11.9748   13.2246  H     
@<TRIPOS>BOND
     1    1    2 2
     2    1    3 2
     3    1    4 am
     4    1    6 1
     5    5    6 2
     6    5   10 1
     7    6    7 1
     8    7    8 2
     9    8    9 1
    10    9   10 2
    11    9   11 1
    12   11   12 1
    13   11   13 2
    14   12   14 1
    15   14   15 1
    16   15   16 2
    17   15   20 1
    18   16   17 1
    19   17   18 2
    20   17   22 1
    21   18   19 1
    22   19   20 1
    23   19   21 2
    24   22   23 1
    25   23   24 1
    26    4   25 1
    27    4   26 1
    28    5   27 1
    29    7   28 1
    30    8   29 1
    31   10   30 1
    32   12   31 1
    33   12   32 1
    34   18   33 1
    35   20   34 1
    36   22   35 1
    37   22   36 1
    38   23   37 1
    39   23   38 1
    40   24   39 1
    41   24   40 1
    42   24   41 1
@<TRIPOS>PROPERTY_DATA
  Total_Score	| 6.4152
  Crash		| -1.5324
  Polar		| 3.3567
  FragIndex	| 1
  FragRMSD	| 1.314

