@<TRIPOS>MOLECULE
BindingDB_50380149
 43 44 0 0 0
SMALL
NO_CHARGES


@<TRIPOS>ATOM
1    C        -3.3969    6.1153   13.6984  C     
2    C        -2.3884    6.9459   14.3339  C     
3    O        -4.0317    6.6425   12.7851  O     
4    S        -1.0966    7.4482   13.1521  S     
5    C        -0.8606    9.0795   13.7099  C     
6    N         0.2256    9.4266   14.4484  N     
7    C         0.3983   10.6954   14.8950  C     
8    C        -0.5476   11.7032   14.5957  C     
9    C        -1.6645   11.3082   13.8293  C     
10   N        -1.7864   10.0204   13.4070  N     
11   C        -0.4291   13.0978   15.1111  C     
12   C        -0.5733   14.1944   14.0144  C     
13   C        -0.4992   15.6560   14.5456  C     
14   C         0.7119   15.9711   15.4571  C     
15   S        -5.6953    1.2463   16.3531  S     
16   O        -4.7590    0.5829   17.4516  O     
17   O        -5.8598    0.0329   15.3411  O     
18   N        -7.2229    1.4166   17.0149  N     
19   C        -5.8501    3.6053   15.0007  C     
20   C        -4.9961    2.6196   15.5416  C     
21   C        -3.5979    2.7895   15.4266  C     
22   C        -3.0604    3.9368   14.8099  C     
23   C        -3.9124    4.9511   14.2773  C     
24   C        -5.3143    4.7449   14.3746  C     
25   H        -2.8974    7.8259   14.7514  H     
26   H        -1.8934    6.4319   15.1617  H     
27   H         1.2212   10.9116   15.4600  H     
28   H        -2.4102   11.9701   13.5946  H     
29   H        -1.2037   13.2500   15.8667  H     
30   H         0.5318   13.2331   15.6101  H     
31   H         0.2013   14.0512   13.2557  H     
32   H        -1.5442   14.0668   13.5261  H     
33   H        -0.4460   16.3296   13.6870  H     
34   H        -1.4165   15.8965   15.0869  H     
35   H         0.7036   15.3473   16.3491  H     
36   H         0.6754   17.0155   15.7720  H     
37   H         1.6467   15.8071   14.9182  H     
38   H        -8.0004    1.1357   16.5056  H     
39   H        -7.3174    1.5827   17.9659  H     
40   H        -6.8605    3.5058   15.0649  H     
41   H        -2.9579    2.0770   15.8012  H     
42   H        -2.0421    4.0300   14.7324  H     
43   H        -5.9675    5.4479   14.0086  H     
@<TRIPOS>BOND
     1    1    2 1
     2    1    3 2
     3    1   23 1
     4    2    4 1
     5    4    5 1
     6    5    6 2
     7    5   10 1
     8    6    7 1
     9    7    8 2
    10    8    9 1
    11    8   11 1
    12    9   10 2
    13   11   12 1
    14   12   13 1
    15   13   14 1
    16   15   16 2
    17   15   17 2
    18   15   18 am
    19   15   20 1
    20   19   20 2
    21   19   24 1
    22   20   21 1
    23   21   22 2
    24   22   23 1
    25   23   24 2
    26    2   25 1
    27    2   26 1
    28    7   27 1
    29    9   28 1
    30   11   29 1
    31   11   30 1
    32   12   31 1
    33   12   32 1
    34   13   33 1
    35   13   34 1
    36   14   35 1
    37   14   36 1
    38   14   37 1
    39   18   38 1
    40   18   39 1
    41   19   40 1
    42   21   41 1
    43   22   42 1
    44   24   43 1
@<TRIPOS>PROPERTY_DATA
  Total_Score	| 6.6282
  Crash		| -1.0383
  Polar		| 3.2308
  FragIndex	| 1
  FragRMSD	| 0.773

