@<TRIPOS>MOLECULE
BindingDB_50380154
 41 42 0 0 0
SMALL
NO_CHARGES


@<TRIPOS>ATOM
1    C        -3.4646    6.0330   13.5897  C     
2    C        -2.3926    6.8411   14.1313  C     
3    O        -4.1826    6.5899   12.7578  O     
4    S        -1.3002    7.4624   12.8134  S     
5    C        -0.9373    8.9983   13.5333  C     
6    N        -1.3122   10.1166   12.8793  N     
7    C        -1.0787   11.3329   13.4055  C     
8    C        -0.4560   11.4866   14.6019  C     
9    C        -0.0785   10.3214   15.2507  C     
10   N        -0.3179    9.1237   14.7323  N     
11   O         0.4556   10.3128   16.3498  O     
12   C        -0.2110   12.7773   15.1128  C     
13   O        -0.7150   13.8838   14.5061  O     
14   O         0.5319   12.9513   16.2403  O     
15   C         0.9108   14.1640   16.8963  C     
16   C         1.8997   15.0142   16.0786  C     
17   S        -5.7213    1.2199   16.3901  S     
18   O        -4.7646    0.5565   17.4671  O     
19   O        -5.8759    0.0188   15.3646  O     
20   N        -7.2517    1.3532   17.0597  N     
21   C        -3.6417    2.7355   15.3941  C     
22   C        -5.0327    2.5878   15.5625  C     
23   C        -5.8876    3.5869   15.0591  C     
24   C        -5.3539    4.7077   14.4012  C     
25   C        -3.9591    4.8865   14.2314  C     
26   C        -3.1085    3.8658   14.7448  C     
27   H        -2.8633    7.6762   14.6825  H     
28   H        -1.7753    6.2766   14.8466  H     
29   H        -1.3883   12.1145   12.8758  H     
30   H        -0.0724    8.3263   15.2152  H     
31   H         0.0185   14.7469   17.1414  H     
32   H         1.3898   13.8796   17.8367  H     
33   H         2.7795   14.4232   15.8251  H     
34   H         2.2150   15.8773   16.6683  H     
35   H         1.4320   15.3676   15.1601  H     
36   H        -8.0254    1.0993   16.5323  H     
37   H        -7.3504    1.4584   18.0193  H     
38   H        -3.0040    2.0195   15.7594  H     
39   H        -6.8972    3.5170   15.1583  H     
40   H        -6.0075    5.4220   14.0612  H     
41   H        -2.0927    3.9339   14.6273  H     
@<TRIPOS>BOND
     1    1    2 1
     2    1    3 2
     3    1   25 1
     4    2    4 1
     5    4    5 1
     6    5    6 2
     7    5   10 1
     8    6    7 1
     9    7    8 2
    10    8    9 1
    11    8   12 1
    12    9   10 1
    13    9   11 2
    14   12   13 2
    15   12   14 1
    16   14   15 1
    17   15   16 1
    18   17   18 2
    19   17   19 2
    20   17   20 am
    21   17   22 1
    22   21   22 2
    23   21   26 1
    24   22   23 1
    25   23   24 2
    26   24   25 1
    27   25   26 2
    28    2   27 1
    29    2   28 1
    30    7   29 1
    31   10   30 1
    32   15   31 1
    33   15   32 1
    34   16   33 1
    35   16   34 1
    36   16   35 1
    37   20   36 1
    38   20   37 1
    39   21   38 1
    40   23   39 1
    41   24   40 1
    42   26   41 1
@<TRIPOS>PROPERTY_DATA
  Total_Score	| 6.6415
  Crash		| -1.3756
  Polar		| 3.2281
  FragIndex	| 1
  FragRMSD	| 1.225

