@<TRIPOS>MOLECULE
BindingDB_50080643
 45 46 0 0 0
SMALL
NO_CHARGES


@<TRIPOS>ATOM
1    S        -3.2828    4.7878   11.3763  S     
2    S        -6.0494    1.2169   16.9276  S     
3    N        -4.6315    4.7302   12.3786  N     
4    C        -2.2869    6.1368   11.8247  C     
5    C        -5.5458    2.3459   15.7075  C     
6    O        -3.8704    5.1416    9.9448  O     
7    O        -2.5208    3.4007   11.1496  O     
8    O        -5.8789   -0.1964   16.2282  O     
9    O        -5.1362    1.1711   18.2252  O     
10   C        -0.0935   10.7109   13.1114  C     
11   N         0.1160    9.4078   12.9550  N     
12   N        -7.6855    1.2182   17.2805  N     
13   O        -1.1565   11.2665   12.8774  O     
14   C        -0.9003    5.9974   12.0407  C     
15   C        -2.8976    7.3930   12.0019  C     
16   C        -4.8357    3.9835   13.5009  C     
17   C        -6.4373    3.3354   15.2421  C     
18   C        -4.2704    2.2241   15.1192  C     
19   C        -0.7270    8.3929   12.5770  C     
20   C        -6.0789    4.1506   14.1559  C     
21   C        -3.9196    3.0367   14.0245  C     
22   C        -0.1354    7.1205   12.4107  C     
23   C        -2.1271    8.5050   12.3784  C     
24   N         0.6909   12.1364   14.9305  N     
25   C         0.9835   11.5566   13.5953  C     
26   C         0.7129   11.1921   16.0721  C     
27   H        -5.3349    5.3625   12.1515  H     
28   H         1.0210    9.1124   13.1590  H     
29   H        -8.1813    0.3835   17.2016  H     
30   H        -8.1700    2.0574   17.2920  H     
31   H        -0.4454    5.0886   11.9306  H     
32   H        -3.9057    7.5171   11.8613  H     
33   H        -7.3618    3.4538   15.6694  H     
34   H        -3.6045    1.5228   15.4557  H     
35   H        -6.7528    4.8429   13.8207  H     
36   H        -3.0039    2.9002   13.5967  H     
37   H         0.8729    6.9995   12.5582  H     
38   H        -2.6188    9.3872   12.4939  H     
39   H         1.3847   12.8644   15.1104  H     
40   H        -0.2263   12.5875   14.9002  H     
41   H         1.9345   11.0109   13.6368  H     
42   H         1.1179   12.3867   12.8914  H     
43   H        -0.0396   10.4103   15.9499  H     
44   H         0.5069   11.7462   16.9939  H     
45   H         1.7036   10.7324   16.1577  H     
@<TRIPOS>BOND
     1    1    3 1
     2    1    4 1
     3    1    6 2
     4    1    7 2
     5    2    5 1
     6    2    8 2
     7    2    9 2
     8    2   12 am
     9    3   16 1
    10    4   14 1
    11    4   15 2
    12    5   17 2
    13    5   18 1
    14   10   11 am
    15   10   13 2
    16   10   25 1
    17   11   19 1
    18   14   22 2
    19   15   23 1
    20   16   20 2
    21   16   21 1
    22   17   20 1
    23   18   21 2
    24   19   22 1
    25   19   23 2
    26   24   25 1
    27   24   26 1
    28    3   27 1
    29   11   28 1
    30   12   29 1
    31   12   30 1
    32   14   31 1
    33   15   32 1
    34   17   33 1
    35   18   34 1
    36   20   35 1
    37   21   36 1
    38   22   37 1
    39   23   38 1
    40   24   39 1
    41   24   40 1
    42   25   41 1
    43   25   42 1
    44   26   43 1
    45   26   44 1
    46   26   45 1
@<TRIPOS>PROPERTY_DATA
  Total_Score	| 3.2067
  Crash		| -1.5422
  Polar		| 3.3336
  FragIndex	| 1
  FragRMSD	| 1.409

