@<TRIPOS>MOLECULE
BindingDB_50080699
 42 43 0 0 0
SMALL
NO_CHARGES


@<TRIPOS>ATOM
1    S        -3.7302    5.2214   11.8372  S     
2    S        -6.1026    1.0969   17.0425  S     
3    N        -3.2495    4.8079   13.3966  N     
4    C        -4.0023    6.9272   11.5917  C     
5    C        -5.2894    2.1962   15.9705  C     
6    O        -5.0195    4.3884   11.4152  O     
7    O        -2.6053    4.6691   10.8500  O     
8    O        -6.0086   -0.3412   16.3736  O     
9    O        -5.4152    0.9595   18.4699  O     
10   C        -5.6738   11.8191   10.9244  C     
11   N        -4.5949   11.0496   10.9226  N     
12   N        -7.7544    1.3489   17.1576  N     
13   O        -6.7777   11.3642   11.1894  O     
14   C        -2.9229    7.8088   11.3710  C     
15   C        -5.3140    7.4431   11.6154  C     
16   C        -3.9484    3.9893   14.2263  C     
17   C        -6.0281    3.1134   15.1930  C     
18   C        -3.8825    2.1873   15.8830  C     
19   C        -4.4610    9.7084   11.1656  C     
20   C        -5.3623    4.0048   14.3281  C     
21   C        -3.2240    3.0888   15.0305  C     
22   C        -3.1558    9.1798   11.1591  C     
23   C        -5.5443    8.8177   11.3910  C     
24   N        -4.6016   13.9195   11.4918  N     
25   C        -5.5597   13.2355   10.6157  C     
26   H        -2.2997    4.9220   13.6012  H     
27   H        -3.7562   11.5144   10.7350  H     
28   H        -8.3465    0.7007   16.7495  H     
29   H        -8.0740    2.2518   17.3023  H     
30   H        -1.9571    7.4621   11.3610  H     
31   H        -6.1114    6.8325   11.7861  H     
32   H        -7.0474    3.1497   15.2457  H     
33   H        -3.3328    1.5288   16.4436  H     
34   H        -5.9223    4.6697   13.7952  H     
35   H        -2.2002    3.0783   14.9913  H     
36   H        -2.3549    9.8001   10.9902  H     
37   H        -6.5158    9.1678   11.3759  H     
38   H        -4.8715   13.7948   12.4693  H     
39   H        -4.5962   14.9179   11.2706  H     
40   H        -3.6622   13.5436   11.3503  H     
41   H        -5.2408   13.3595    9.5806  H     
42   H        -6.5283   13.7369   10.7331  H     
@<TRIPOS>BOND
     1    1    3 1
     2    1    4 1
     3    1    6 2
     4    1    7 2
     5    2    5 1
     6    2    8 2
     7    2    9 2
     8    2   12 am
     9    3   16 1
    10    4   14 1
    11    4   15 2
    12    5   17 2
    13    5   18 1
    14   10   11 am
    15   10   13 2
    16   10   25 1
    17   11   19 1
    18   14   22 2
    19   15   23 1
    20   16   20 2
    21   16   21 1
    22   17   20 1
    23   18   21 2
    24   19   22 1
    25   19   23 2
    26   24   25 1
    27    3   26 1
    28   11   27 1
    29   12   28 1
    30   12   29 1
    31   14   30 1
    32   15   31 1
    33   17   32 1
    34   18   33 1
    35   20   34 1
    36   21   35 1
    37   22   36 1
    38   23   37 1
    39   24   38 1
    40   24   39 1
    41   24   40 1
    42   25   41 1
    43   25   42 1
@<TRIPOS>PROPERTY_DATA
  Total_Score	| 3.5594
  Crash		| -1.5637
  Polar		| 2.1427
  FragIndex	| 1
  FragRMSD	| 1.235

