@<TRIPOS>MOLECULE
BindingDB_26999
 32 33 0 0 0
SMALL
NO_CHARGES


@<TRIPOS>ATOM
1    C        -4.3803    4.3629   14.0407  C     
2    C        -4.0152    2.4464   15.5040  C     
3    C        -3.5087    3.4225   14.6305  C     
4    C        -5.7547    4.3304   14.3559  C     
5    C        -6.2560    3.3641   15.2390  C     
6    C        -2.0661    6.9901   13.2623  C     
7    C        -1.5454    6.4210   11.9064  C     
8    C        -2.6473    6.1513   10.8553  C     
9    C        -3.5268    6.6105   13.6393  C     
10   N        -3.8978    5.2976   13.1936  N     
11   S        -3.8052    4.9471   11.5406  S     
12   O        -5.2263    5.0620   10.8351  O     
13   O        -3.1307    3.5294   11.3105  O     
14   C        -5.3896    2.4212   15.8293  C     
15   N        -7.6001    1.4018   17.4489  N     
16   S        -6.0349    1.2042   16.8860  S     
17   O        -5.9424   -0.2195   16.1939  O     
18   O        -5.1056    1.1544   18.1748  O     
19   H        -3.3680    1.7713   15.9155  H     
20   H        -2.5109    3.4385   14.4038  H     
21   H        -6.3924    5.0061   13.9253  H     
22   H        -7.2524    3.3560   15.4525  H     
23   H        -1.3983    6.6459   14.0574  H     
24   H        -1.9971    8.0814   13.2373  H     
25   H        -0.8132    7.1114   11.4839  H     
26   H        -1.0197    5.4805   12.0972  H     
27   H        -3.1773    7.0766   10.6259  H     
28   H        -2.2145    5.7553    9.9350  H     
29   H        -3.6426    6.7176   14.7241  H     
30   H        -4.2119    7.3309   13.1786  H     
31   H        -7.7963    1.2120   18.3781  H     
32   H        -8.2610    1.8474   16.9019  H     
@<TRIPOS>BOND
     1    1    3 2
     2    1    4 1
     3    1   10 1
     4    2    3 1
     5    2   14 2
     6    4    5 2
     7    5   14 1
     8    6    7 1
     9    6    9 1
    10    7    8 1
    11    8   11 1
    12    9   10 1
    13   10   11 1
    14   11   12 2
    15   11   13 2
    16   14   16 1
    17   15   16 am
    18   16   17 2
    19   16   18 2
    20    2   19 1
    21    3   20 1
    22    4   21 1
    23    5   22 1
    24    6   23 1
    25    6   24 1
    26    7   25 1
    27    7   26 1
    28    8   27 1
    29    8   28 1
    30    9   29 1
    31    9   30 1
    32   15   31 1
    33   15   32 1
@<TRIPOS>PROPERTY_DATA
  Total_Score	| 4.5361
  Crash		| -1.0283
  Polar		| 2.8047
  FragIndex	| 1
  FragRMSD	| 1.264

