@<TRIPOS>MOLECULE
BindingDB_50337747
 47 49 0 0 0
SMALL
NO_CHARGES


@<TRIPOS>ATOM
1    C        -5.1280    5.7135   10.1175  C     
2    C        -5.4424    7.2208   10.3993  C     
3    C        -6.5313    7.4720   11.3433  C     
4    C        -7.0127    8.8248   11.2338  C     
5    C        -6.1154    9.3031   10.0492  C     
6    C        -4.6832    9.5468   10.6162  C     
7    C        -4.2261    8.0867   10.8976  C     
8    O        -6.8279    6.7376   12.2916  O     
9    C        -5.9711    8.0290    9.1592  C     
10   C        -7.3196    7.5274    8.5113  C     
11   C        -4.9898    8.1960    7.9332  C     
12   S        -4.0530    4.8647   11.3033  S     
13   O        -4.2837    3.3093   11.0700  O     
14   O        -2.5237    5.1053   10.9471  O     
15   S        -6.0032    1.1793   16.8512  S     
16   O        -5.1033    1.1233   18.1603  O     
17   O        -5.8537   -0.2412   16.1623  O     
18   C        -4.1387    2.4182   15.2783  C     
19   C        -5.4750    2.4153   15.7534  C     
20   C        -6.3796    3.3941   15.2865  C     
21   C        -5.9627    4.3542   14.3529  C     
22   C        -4.6374    4.3461   13.8555  C     
23   C        -3.7298    3.3681   14.3319  C     
24   N        -4.3067    5.2657   12.9213  N     
25   N        -7.6064    1.2361   17.3411  N     
26   H        -6.0610    5.1557   10.0542  H     
27   H        -4.6390    5.6192    9.1475  H     
28   H        -8.0749    8.8479   10.9807  H     
29   H        -6.8479    9.3948   12.1544  H     
30   H        -6.5246   10.1736    9.5337  H     
31   H        -4.0435   10.0391    9.8764  H     
32   H        -4.6855   10.1610   11.5226  H     
33   H        -4.0328    7.9429   11.9677  H     
34   H        -3.3048    7.8528   10.3563  H     
35   H        -7.1579    6.6118    7.9350  H     
36   H        -7.7279    8.2930    7.8434  H     
37   H        -8.0967    7.2950    9.2376  H     
38   H        -5.3470    8.9967    7.2769  H     
39   H        -3.9686    8.4404    8.2137  H     
40   H        -4.9333    7.2717    7.3505  H     
41   H        -3.4745    1.7096   15.6014  H     
42   H        -7.3486    3.4044   15.6169  H     
43   H        -6.6328    5.0465   14.0095  H     
44   H        -2.7689    3.3450   13.9727  H     
45   H        -4.5855    6.1798   13.0877  H     
46   H        -8.2850    0.8123   16.7949  H     
47   H        -7.8255    1.5145   18.2427  H     
@<TRIPOS>BOND
     1    2    1 1
     2    1   12 1
     3    2    3 1
     4    2    7 1
     5    2    9 1
     6    3    4 1
     7    3    8 2
     8    4    5 1
     9    5    6 1
    10    5    9 1
    11    6    7 1
    12    9   10 1
    13    9   11 1
    14   12   13 2
    15   12   14 2
    16   12   24 1
    17   15   16 2
    18   15   17 2
    19   15   19 1
    20   15   25 am
    21   18   19 2
    22   18   23 1
    23   19   20 1
    24   20   21 2
    25   21   22 1
    26   22   23 2
    27   22   24 1
    28    1   26 1
    29    1   27 1
    30    4   28 1
    31    4   29 1
    32    5   30 1
    33    6   31 1
    34    6   32 1
    35    7   33 1
    36    7   34 1
    37   10   35 1
    38   10   36 1
    39   10   37 1
    40   11   38 1
    41   11   39 1
    42   11   40 1
    43   18   41 1
    44   20   42 1
    45   21   43 1
    46   23   44 1
    47   24   45 1
    48   25   46 1
    49   25   47 1
@<TRIPOS>PROPERTY_DATA
  Total_Score	| 6.1911
  Crash		| -1.3281
  Polar		| 3.4900
  FragIndex	| 1
  FragRMSD	| 1.156

