@<TRIPOS>MOLECULE
BindingDB_50080700
 50 51 0 0 0
SMALL
NO_CHARGES


@<TRIPOS>ATOM
1    S        -3.9062    5.4353   11.8126  S     
2    S        -6.0784    1.1384   16.9230  S     
3    C        -8.9352   13.3347   10.0197  C     
4    N        -3.5235    5.1657   13.4243  N     
5    N        -7.6967   12.9806    9.5233  N     
6    C        -5.5662   12.0648   10.4200  C     
7    C        -4.4710    7.0595   11.5664  C     
8    C        -5.3650    2.3732   15.9346  C     
9    O        -4.9652    4.3690   11.2960  O     
10   O        -2.6019    5.1144   10.9596  O     
11   O        -5.8457   -0.2054   16.1017  O     
12   O        -5.3157    0.9321   18.3038  O     
13   N        -9.1170   13.9700   11.1973  N     
14   C        -6.4821   13.1922   10.3034  C     
15   N        -6.0126   10.9510   10.9916  N     
16   N        -7.7442    1.2127   17.0986  N     
17   O        -4.4344   12.1817    9.9651  O     
18   N       -10.0872   13.0960    9.3587  N     
19   C        -5.8173    7.3877   11.8255  C     
20   C        -3.5842    8.0797   11.1699  C     
21   C        -4.1598    4.3008   14.2531  C     
22   C        -6.1613    3.3583   15.3128  C     
23   C        -3.9695    2.3825   15.7481  C     
24   C        -5.4147    9.7278   11.1857  C     
25   C        -5.5604    4.3159   14.4707  C     
26   C        -3.3743    3.3519   14.9300  C     
27   C        -6.2780    8.7044   11.6388  C     
28   C        -4.0503    9.3984   10.9855  C     
29   C        -7.6055   12.5113    8.1577  C     
30   H        -2.6838    5.5525   13.7473  H     
31   H       -10.0114   14.2152   11.4799  H     
32   H        -5.9776   14.0634    9.8650  H     
33   H        -6.7308   13.4678   11.3287  H     
34   H        -6.9339   10.9934   11.2885  H     
35   H        -8.2824    0.4905   16.7372  H     
36   H        -8.1560    2.0655   17.2835  H     
37   H       -10.9346   13.3772    9.7395  H     
38   H       -10.0782   12.6524    8.5009  H     
39   H        -6.4756    6.6756   12.1482  H     
40   H        -2.5955    7.8741   11.0109  H     
41   H        -7.1719    3.3862   15.4565  H     
42   H        -3.3826    1.6836   16.2085  H     
43   H        -6.1543    5.0250   14.0329  H     
44   H        -2.3565    3.3474   14.8087  H     
45   H        -7.2622    8.9095   11.8302  H     
46   H        -3.3734   10.1056   10.7001  H     
47   H        -8.0965   11.5375    8.0611  H     
48   H        -6.5893   12.4126    7.7935  H     
49   H        -8.1141   13.2179    7.4751  H     
50   H        -8.3580   14.2391   11.7370  H     
@<TRIPOS>BOND
     1    1    4 1
     2    1    7 1
     3    1    9 2
     4    1   10 2
     5    2    8 1
     6    2   11 2
     7    2   12 2
     8    2   16 am
     9    3    5 1
    10    3   13 2
    11    3   18 1
    12    4   21 1
    13    5   14 1
    14    5   29 1
    15    6   14 1
    16    6   15 am
    17    6   17 2
    18    7   19 1
    19    7   20 2
    20    8   22 2
    21    8   23 1
    22   15   24 1
    23   19   27 2
    24   20   28 1
    25   21   25 2
    26   21   26 1
    27   22   25 1
    28   23   26 2
    29   24   27 1
    30   24   28 2
    31    4   30 1
    32   13   31 1
    33   14   32 1
    34   14   33 1
    35   15   34 1
    36   16   35 1
    37   16   36 1
    38   18   37 1
    39   18   38 1
    40   19   39 1
    41   20   40 1
    42   22   41 1
    43   23   42 1
    44   25   43 1
    45   26   44 1
    46   27   45 1
    47   28   46 1
    48   29   47 1
    49   29   48 1
    50   29   49 1
    51   13   50 1
@<TRIPOS>PROPERTY_DATA
  Total_Score	| 6.1433
  Crash		| -2.3238
  Polar		| 5.0472
  FragIndex	| 1
  FragRMSD	| 1.348

