@<TRIPOS>MOLECULE
BindingDB_10899
 44 45 0 0 0
SMALL
NO_CHARGES


@<TRIPOS>ATOM
1    C        -5.3130    2.3104   15.9233  C     
2    C        -6.0632    3.1851   15.1102  C     
3    C        -5.4050    4.0870   14.2540  C     
4    C        -3.9927    4.1276   14.2136  C     
5    C        -3.2499    3.2742   15.0516  C     
6    C        -3.9060    2.3536   15.8820  C     
7    S        -6.0970    1.1837   16.9825  S     
8    O        -5.9580   -0.2196   16.2548  O     
9    O        -5.3479    1.0015   18.3728  O     
10   N        -7.7546    1.3620   17.1378  N     
11   N        -3.3219    4.9507   13.3781  N     
12   S        -3.6096    4.9926   11.7172  S     
13   O        -2.1834    4.7746   11.0432  O     
14   O        -4.4270    3.7061   11.2629  O     
15   C        -4.2581    6.4720   11.1041  C     
16   C        -5.2470    6.4526   10.1067  C     
17   C        -5.8084    7.6559    9.6342  C     
18   C        -5.4099    8.9271   10.1376  C     
19   C        -4.3509    8.9177   11.0802  C     
20   C        -3.7924    7.7193   11.5690  C     
21   C        -6.0246   10.2334    9.6624  C     
22   C        -4.9933   10.9407    8.7260  C     
23   C        -7.3605   10.0649    8.8625  C     
24   C        -6.3669   11.1750   10.8722  C     
25   H        -7.0869    3.1755   15.1287  H     
26   H        -5.9574    4.7196   13.6651  H     
27   H        -2.2277    3.2963   15.0427  H     
28   H        -3.3426    1.7151   16.4600  H     
29   H        -8.3243    0.6510   16.8099  H     
30   H        -8.1225    2.2542   17.2422  H     
31   H        -2.4411    5.2538   13.6822  H     
32   H        -5.5737    5.5649    9.7186  H     
33   H        -6.5271    7.5778    8.8985  H     
34   H        -3.9717    9.7960   11.4459  H     
35   H        -3.0434    7.7647   12.2739  H     
36   H        -4.0608   11.1589    9.2584  H     
37   H        -5.3762   11.8799    8.3332  H     
38   H        -4.7455   10.2950    7.8765  H     
39   H        -7.1983    9.5633    7.9153  H     
40   H        -7.8109   11.0436    8.6218  H     
41   H        -8.0961    9.4964    9.4365  H     
42   H        -6.9768   10.6467   11.6099  H     
43   H        -6.9167   12.0649   10.5530  H     
44   H        -5.4679   11.5386   11.3685  H     
@<TRIPOS>BOND
     1    1    2 2
     2    1    6 1
     3    1    7 1
     4    2    3 1
     5    3    4 2
     6    4    5 1
     7    4   11 1
     8    5    6 2
     9    7    8 2
    10    7    9 2
    11    7   10 am
    12   11   12 1
    13   12   13 2
    14   12   14 2
    15   12   15 1
    16   15   16 2
    17   15   20 1
    18   16   17 1
    19   17   18 2
    20   18   19 1
    21   18   21 1
    22   19   20 2
    23   21   22 1
    24   21   23 1
    25   21   24 1
    26    2   25 1
    27    3   26 1
    28    5   27 1
    29    6   28 1
    30   10   29 1
    31   10   30 1
    32   11   31 1
    33   16   32 1
    34   17   33 1
    35   19   34 1
    36   20   35 1
    37   22   36 1
    38   22   37 1
    39   22   38 1
    40   23   39 1
    41   23   40 1
    42   23   41 1
    43   24   42 1
    44   24   43 1
    45   24   44 1
@<TRIPOS>PROPERTY_DATA
  Total_Score	| 4.3482
  Crash		| -1.4031
  Polar		| 2.4736
  FragIndex	| 1
  FragRMSD	| 1.257

