@<TRIPOS>MOLECULE
BindingDB_16658
 32 33 0 0 0
SMALL
NO_CHARGES


@<TRIPOS>ATOM
1    C        -5.5467    2.2473   15.7169  C     
2    C        -6.3871    3.2829   15.2424  C     
3    C        -6.0081    4.0394   14.1152  C     
4    C        -4.7857    3.7756   13.4508  C     
5    C        -3.9153    2.7864   13.9862  C     
6    C        -4.2903    2.0314   15.1086  C     
7    S        -6.0857    1.1779   16.9766  S     
8    O        -5.9213   -0.2678   16.3294  O     
9    O        -5.1485    1.1672   18.2655  O     
10   N        -7.7279    1.1845   17.3224  N     
11   N        -4.5729    4.4292   12.2753  N     
12   S        -3.0782    4.9207   11.6663  S     
13   O        -1.9949    3.7468   11.6184  O     
14   O        -3.3135    5.2246   10.1155  O     
15   C        -2.5031    6.3335   12.4857  C     
16   C        -2.6412    7.6107   11.8975  C     
17   C        -1.9368    6.2141   13.7769  C     
18   C        -1.5055    7.3623   14.4690  C     
19   C        -1.6299    8.6327   13.8734  C     
20   C        -2.1963    8.7576   12.5887  C     
21   H        -7.2930    3.4752   15.6829  H     
22   H        -6.6460    4.7591   13.7568  H     
23   H        -3.0377    2.5265   13.5225  H     
24   H        -3.6668    1.2812   15.4406  H     
25   H        -8.2256    0.3574   17.1953  H     
26   H        -8.2141    2.0252   17.3050  H     
27   H        -5.3376    4.8939   11.8833  H     
28   H        -3.0646    7.7210   10.9729  H     
29   H        -1.8479    5.3006   14.2255  H     
30   H        -1.1062    7.2768   15.4070  H     
31   H        -1.3150    9.4676   14.3740  H     
32   H        -2.2929    9.6758   12.1593  H     
@<TRIPOS>BOND
     1    1    2 1
     2    1    6 2
     3    1    7 1
     4    2    3 2
     5    3    4 1
     6    4    5 2
     7    4   11 1
     8    5    6 1
     9    7    8 2
    10    7    9 2
    11    7   10 am
    12   11   12 1
    13   12   13 2
    14   12   14 2
    15   12   15 1
    16   15   16 1
    17   15   17 2
    18   16   20 2
    19   17   18 1
    20   18   19 2
    21   19   20 1
    22    2   21 1
    23    3   22 1
    24    5   23 1
    25    6   24 1
    26   10   25 1
    27   10   26 1
    28   11   27 1
    29   16   28 1
    30   17   29 1
    31   18   30 1
    32   19   31 1
    33   20   32 1
@<TRIPOS>PROPERTY_DATA
  Total_Score	| 3.4817
  Crash		| -1.4622
  Polar		| 2.6625
  FragIndex	| 1
  FragRMSD	| 1.490

