@<TRIPOS>MOLECULE
BindingDB_50337746
 47 49 0 0 0
SMALL
NO_CHARGES


@<TRIPOS>ATOM
1    C        -4.7546    4.8955   10.1165  C     
2    C        -4.8034    6.0882    9.0743  C     
3    C        -4.6289    5.7003    7.6644  C     
4    C        -5.1281    6.7191    6.7675  C     
5    C        -5.6297    7.7512    7.8261  C     
6    C        -4.3738    8.4412    8.4488  C     
7    C        -3.7677    7.2581    9.2929  C     
8    O        -4.1809    4.6374    7.2505  O     
9    C        -6.1844    6.8471    8.9787  C     
10   C        -7.4528    6.0036    8.5531  C     
11   C        -6.6538    7.6397   10.2591  C     
12   S        -3.3666    4.7297   11.2706  S     
13   O        -2.7129    3.2709   11.1163  O     
14   O        -2.1501    5.6438   10.8207  O     
15   S        -6.0331    1.2647   16.7900  S     
16   O        -5.8934   -0.1782   16.1409  O     
17   O        -5.2060    1.1619   18.1464  O     
18   C        -3.9744    2.3181   15.3349  C     
19   C        -5.3532    2.3689   15.6309  C     
20   C        -6.1628    3.3258   14.9875  C     
21   C        -5.6025    4.2219   14.0575  C     
22   C        -4.2287    4.1562   13.7419  C     
23   C        -3.4211    3.1999   14.3879  C     
24   N        -3.7105    5.0724   12.8835  N     
25   N        -7.6799    1.3785   17.0658  N     
26   H        -5.6448    4.9332   10.7446  H     
27   H        -4.8182    3.9374    9.5949  H     
28   H        -4.3404    7.1111    6.1224  H     
29   H        -5.9398    6.3462    6.1375  H     
30   H        -6.3548    8.4636    7.4236  H     
31   H        -3.6769    8.8042    7.6800  H     
32   H        -4.6526    9.3001    9.0706  H     
33   H        -3.6545    7.5343   10.3338  H     
34   H        -2.7801    7.0191    8.9051  H     
35   H        -7.2793    5.3464    7.7039  H     
36   H        -8.2692    6.6756    8.2790  H     
37   H        -7.7944    5.3708    9.3724  H     
38   H        -7.0032    6.9547   11.0287  H     
39   H        -7.4781    8.3052   10.0009  H     
40   H        -5.8790    8.2483   10.7159  H     
41   H        -3.3704    1.6397   15.8064  H     
42   H        -7.1637    3.3790   15.1878  H     
43   H        -6.2052    4.9174   13.6124  H     
44   H        -2.4158    3.1681   14.2003  H     
45   H        -3.9094    6.0082   13.0752  H     
46   H        -8.0502    2.2283   17.3406  H     
47   H        -8.2657    0.7148   16.6705  H     
@<TRIPOS>BOND
     1    2    1 1
     2    1   12 1
     3    2    3 1
     4    2    7 1
     5    2    9 1
     6    3    4 1
     7    3    8 2
     8    4    5 1
     9    5    6 1
    10    5    9 1
    11    6    7 1
    12    9   10 1
    13    9   11 1
    14   12   13 2
    15   12   14 2
    16   12   24 1
    17   15   16 2
    18   15   17 2
    19   15   19 1
    20   15   25 am
    21   18   19 2
    22   18   23 1
    23   19   20 1
    24   20   21 2
    25   21   22 1
    26   22   23 2
    27   22   24 1
    28    1   26 1
    29    1   27 1
    30    4   28 1
    31    4   29 1
    32    5   30 1
    33    6   31 1
    34    6   32 1
    35    7   33 1
    36    7   34 1
    37   10   35 1
    38   10   36 1
    39   10   37 1
    40   11   38 1
    41   11   39 1
    42   11   40 1
    43   18   41 1
    44   20   42 1
    45   21   43 1
    46   23   44 1
    47   24   45 1
    48   25   46 1
    49   25   47 1
@<TRIPOS>PROPERTY_DATA
  Total_Score	| 6.3855
  Crash		| -1.6827
  Polar		| 4.4321
  FragIndex	| 1
  FragRMSD	| 1.333

