@<TRIPOS>MOLECULE
BindingDB_50157950
 41 42 0 0 0
SMALL
NO_CHARGES


@<TRIPOS>ATOM
1    C        -5.2859    2.1041   16.5625  C     
2    S        -6.5538    1.3481   17.4020  S     
3    S        -5.5532    3.4328   15.5395  S     
4    C        -3.8240    3.4717   15.4242  C     
5    N        -4.0681    1.7689   16.7420  N     
6    N        -3.2507    2.4821   16.1207  N     
7    N        -3.0445    4.3686   14.7750  N     
8    C        -3.4040    5.4479   14.0852  C     
9    N        -0.2397    5.3129   12.5325  N     
10   N        -1.0219    5.3174    9.6750  N     
11   O        -6.6763   -0.1343   16.8482  O     
12   O        -6.2831    1.2700   18.9656  O     
13   C        -2.4409    6.4177   13.5681  C     
14   N        -8.0598    2.0107   17.0857  N     
15   O        -4.5837    5.7356   13.9265  O     
16   C        -0.9109    6.1036   13.6274  C     
17   C         0.4841    6.1129   11.4872  C     
18   C        -1.0017    4.1729   11.9236  C     
19   C        -0.4204    6.5310   10.3039  C     
20   C        -1.8347    4.5406   10.6587  C     
21   C        -1.7738    5.6295    8.4290  C     
22   H        -2.0948    4.2079   14.8598  H     
23   H         0.5220    4.8545   13.0396  H     
24   H        -0.2450    4.7109    9.3967  H     
25   H        -2.6995    6.6382   12.5384  H     
26   H        -2.6102    7.3424   14.1333  H     
27   H        -8.7405    1.4627   16.6703  H     
28   H        -8.1843    2.9700   17.1462  H     
29   H        -0.7004    5.5767   14.5560  H     
30   H        -0.3920    7.0605   13.7415  H     
31   H         0.9589    7.0021   11.9127  H     
32   H         1.2978    5.4923   11.0962  H     
33   H        -0.2694    3.4138   11.6301  H     
34   H        -1.6523    3.7024   12.6643  H     
35   H         0.1974    7.0634    9.5735  H     
36   H        -1.1931    7.2186   10.6611  H     
37   H        -2.7181    5.1209   10.9295  H     
38   H        -2.1795    3.6082   10.1988  H     
39   H        -2.1251    4.7095    7.9606  H     
40   H        -1.1237    6.1374    7.7126  H     
41   H        -2.6337    6.2702    8.6355  H     
@<TRIPOS>BOND
     1    1    2 1
     2    1    3 1
     3    1    5 2
     4    2   11 2
     5    2   12 2
     6    2   14 am
     7    3    4 1
     8    4    6 2
     9    4    7 1
    10    5    6 1
    11    7    8 am
    12    8   13 1
    13    8   15 2
    14    9   16 1
    15    9   17 1
    16    9   18 1
    17   10   19 1
    18   10   20 1
    19   10   21 1
    20   13   16 1
    21   17   19 1
    22   18   20 1
    23    7   22 1
    24    9   23 1
    25   10   24 1
    26   13   25 1
    27   13   26 1
    28   14   27 1
    29   14   28 1
    30   16   29 1
    31   16   30 1
    32   17   31 1
    33   17   32 1
    34   18   33 1
    35   18   34 1
    36   19   35 1
    37   19   36 1
    38   20   37 1
    39   20   38 1
    40   21   39 1
    41   21   40 1
    42   21   41 1
@<TRIPOS>PROPERTY_DATA
  Total_Score	| 7.8681
  Crash		| -1.5827
  Polar		| 7.0071
  FragIndex	| 1
  FragRMSD	| 1.040

