@<TRIPOS>MOLECULE
BindingDB_10880
 19 19 0 0 0
SMALL
NO_CHARGES


@<TRIPOS>ATOM
1    C        -5.2594    2.1312   16.6072  C     
2    C        -3.7109    3.4962   15.5773  C     
3    S        -5.4463    3.5153   15.6307  S     
4    N        -3.1882    2.4672   16.2617  N     
5    N        -4.0558    1.7539   16.8180  N     
6    N        -7.9890    2.2426   17.1493  N     
7    S        -6.5709    1.3810   17.3934  S     
8    O        -6.7970   -0.0505   16.7442  O     
9    O        -6.2857    1.2901   18.9555  O     
10   N        -2.8883    4.3679   14.9437  N     
11   C        -3.2001    5.4543   14.2458  C     
12   C        -2.1196    6.2286   13.6716  C     
13   O        -4.3552    5.8458   14.0896  O     
14   H        -8.8478    1.8125   17.2984  H     
15   H        -7.9507    3.1402   16.7631  H     
16   H        -1.9327    4.1862   15.0303  H     
17   H        -1.4383    6.5601   14.4589  H     
18   H        -2.4812    7.1169   13.1425  H     
19   H        -1.5626    5.6047   12.9634  H     
@<TRIPOS>BOND
     1    1    3 1
     2    1    5 2
     3    1    7 1
     4    2    3 1
     5    2    4 2
     6    2   10 1
     7    4    5 1
     8    6    7 am
     9    7    8 2
    10    7    9 2
    11   10   11 am
    12   11   12 1
    13   11   13 2
    14    6   14 1
    15    6   15 1
    16   10   16 1
    17   12   17 1
    18   12   18 1
    19   12   19 1
@<TRIPOS>PROPERTY_DATA
  Total_Score	| 5.4699
  Crash		| -1.4668
  Polar		| 5.6892
  FragIndex	| 1
  FragRMSD	| 1.061

