@<TRIPOS>MOLECULE
BindingDB_11048
 44 45 0 0 0
SMALL
NO_CHARGES


@<TRIPOS>ATOM
1    C        -5.3178    2.1840   16.5800  C     
2    C        -3.8663    3.5215   15.4036  C     
3    N        -4.0988    1.8403   16.7540  N     
4    N        -3.2853    2.5430   16.1099  N     
5    S        -5.5938    3.5059   15.5453  S     
6    N        -6.3058    1.3091   19.0312  N     
7    S        -6.5777    1.3679   17.3772  S     
8    O        -7.9779    2.0882   17.1363  O     
9    O        -6.7322   -0.1063   16.8097  O     
10   N        -3.0967    4.3567   14.6699  N     
11   C        -3.4696    5.3970   13.9357  C     
12   C        -2.4643    6.1102   13.1632  C     
13   O        -4.6327    5.7783   13.8601  O     
14   C        -1.4244    6.8781   14.0153  C     
15   S        -2.2060    8.1461   15.0445  S     
16   S        -0.6403    9.3509   15.6701  S     
17   C         0.1518    9.9686   14.1582  C     
18   C        -0.6121   11.0902   13.4027  C     
19   C        -1.8413   10.6731   12.7445  C     
20   O        -2.8751   11.2546   13.0483  O     
21   N        -1.8163    9.6887   11.8532  N     
22   C        -2.8493    9.1352   11.1710  C     
23   S        -4.5385    9.5225   11.2723  S     
24   N        -2.6236    8.1190   10.3270  N     
25   N        -3.6714    7.6574    9.8046  N     
26   C        -4.7470    8.2384   10.1748  C     
27   N        -7.5206    8.8243    9.9974  N     
28   S        -6.2824    7.7554    9.6129  S     
29   O        -6.2743    7.4463    8.0519  O     
30   O        -6.6134    6.3903   10.3642  O     
31   H        -6.9462    1.7367   19.6275  H     
32   H        -5.4126    1.0995   19.3631  H     
33   H        -2.1463    4.1677   14.6812  H     
34   H        -1.9381    5.3876   12.5305  H     
35   H        -2.9466    6.8190   12.4880  H     
36   H        -0.8630    6.1862   14.6465  H     
37   H        -0.7156    7.3625   13.3408  H     
38   H         1.1243   10.3726   14.4578  H     
39   H         0.3406    9.1311   13.4932  H     
40   H        -0.8128   11.9038   14.1149  H     
41   H         0.0515   11.5029   12.6358  H     
42   H        -0.9451    9.2950   11.6816  H     
43   H        -8.3845    8.4862   10.2887  H     
44   H        -7.3923    9.7803    9.8759  H     
@<TRIPOS>BOND
     1    1    3 2
     2    1    5 1
     3    1    7 1
     4    2    4 2
     5    2    5 1
     6    2   10 1
     7    3    4 1
     8    6    7 am
     9    7    8 2
    10    7    9 2
    11   10   11 am
    12   11   12 1
    13   11   13 2
    14   12   14 1
    15   14   15 1
    16   15   16 1
    17   16   17 1
    18   17   18 1
    19   18   19 1
    20   19   20 2
    21   19   21 am
    22   21   22 1
    23   22   23 1
    24   22   24 2
    25   23   26 1
    26   24   25 1
    27   25   26 2
    28   26   28 1
    29   27   28 am
    30   28   29 2
    31   28   30 2
    32    6   31 1
    33    6   32 1
    34   10   33 1
    35   12   34 1
    36   12   35 1
    37   14   36 1
    38   14   37 1
    39   17   38 1
    40   17   39 1
    41   18   40 1
    42   18   41 1
    43   21   42 1
    44   27   43 1
    45   27   44 1
@<TRIPOS>PROPERTY_DATA
  Total_Score	| 5.6863
  Crash		| -2.0533
  Polar		| 6.5257
  FragIndex	| 1
  FragRMSD	| 1.079

