@<TRIPOS>MOLECULE
BindingDB_50225231
 29 30 0 0 0
SMALL
NO_CHARGES


@<TRIPOS>ATOM
1    C         1.6467    1.7145   21.9803  C     
2    C         2.8655    1.1744   21.5325  C     
3    C         3.5211    0.2030   22.3074  C     
4    C         2.9620   -0.2300   23.5235  C     
5    C         1.7374    0.3011   23.9708  C     
6    C         1.0885    1.2874   23.2003  C     
7    O         1.2111   -0.1470   25.1526  O     
8    C         0.1046   -0.9716   25.1165  C     
9    C        -0.2713   -1.7704   24.0086  C     
10   C        -1.3925   -2.6158   24.0730  C     
11   C        -2.1736   -2.6944   25.2488  C     
12   C        -1.7904   -1.9052   26.3586  C     
13   C        -0.6531   -1.0722   26.3052  C     
14   O        -0.3251   -0.3309   27.4098  O     
15   C         0.3688   -1.0825   28.4249  C     
16   C        -3.3026   -3.5505   25.3158  C     
17   O        -4.1059   -3.5899   26.3993  O     
18   O        -3.6213   -4.3971   24.3121  O     
19   H         1.1650    2.4194   21.4194  H     
20   H         3.2706    1.4832   20.6458  H     
21   H         4.4035   -0.1947   21.9861  H     
22   H         3.4467   -0.9392   24.0792  H     
23   H         0.2041    1.6865   23.5213  H     
24   H         0.2766   -1.7499   23.1466  H     
25   H        -1.6269   -3.1751   23.2486  H     
26   H        -2.3267   -1.9412   27.2296  H     
27   H        -0.2308   -1.9235   28.7908  H     
28   H         0.5594   -0.4150   29.2644  H     
29   H         1.3389   -1.4552   28.0604  H     
@<TRIPOS>BOND
     1    1    2 2
     2    1    6 1
     3    2    3 1
     4    3    4 2
     5    4    5 1
     6    5    6 2
     7    5    7 1
     8    7    8 1
     9    8    9 2
    10    8   13 1
    11    9   10 1
    12   10   11 2
    13   11   12 1
    14   11   16 1
    15   12   13 2
    16   13   14 1
    17   14   15 1
    18   16   17 1
    19   16   18 2
    20    1   19 1
    21    2   20 1
    22    3   21 1
    23    4   22 1
    24    6   23 1
    25    9   24 1
    26   10   25 1
    27   12   26 1
    28   15   27 1
    29   15   28 1
    30   15   29 1
@<TRIPOS>PROPERTY_DATA
  Total_Score	| 4.1858
  Crash		| -0.4748
  Polar		| 0.0000
  FragIndex	| 1
  FragRMSD	| 0.767

