@<TRIPOS>MOLECULE
BindingDB_50225230
 33 34 0 0 0
SMALL
NO_CHARGES


@<TRIPOS>ATOM
1    C         1.0144    1.9058   22.1379  C     
2    C         2.1699    1.5261   21.4155  C     
3    C         3.0881    0.6660   22.0607  C     
4    C         2.8060    0.1304   23.3269  C     
5    C         1.6159    0.4668   23.9997  C     
6    C         0.7305    1.4327   23.4447  C     
7    O         1.3493   -0.2305   25.1539  O     
8    C         0.2348   -1.0516   25.1396  C     
9    C        -0.1591   -1.8461   24.0350  C     
10   C        -1.3181   -2.6399   24.0918  C     
11   C        -2.1175   -2.6754   25.2580  C     
12   C        -1.7061   -1.9027   26.3698  C     
13   C        -0.5338   -1.1200   26.3234  C     
14   O        -0.1843   -0.3795   27.4216  O     
15   C        -3.2942   -3.4671   25.3130  C     
16   N        -0.3651    1.9069   24.1129  N     
17   O        -0.5956    1.6532   25.2644  O     
18   O        -1.2030    2.7571   23.5816  O     
19   N         2.3597    1.9465   20.1315  N     
20   O         3.3733    1.7251   19.5259  O     
21   O         1.4528    2.6076   19.4609  O     
22   O        -3.7331   -4.1686   24.2425  O     
23   C         0.3614   -1.1718   28.4914  C     
24   O        -4.0520   -3.5442   26.4321  O     
25   H         0.3641    2.5608   21.6994  H     
26   H         3.9461    0.3702   21.5884  H     
27   H         3.4546   -0.5452   23.7402  H     
28   H         0.3951   -1.8479   23.1769  H     
29   H        -1.5685   -3.1921   23.2674  H     
30   H        -2.2551   -1.9046   27.2332  H     
31   H        -0.3624   -1.8996   28.8689  H     
32   H         0.6229   -0.5014   29.3079  H     
33   H         1.2692   -1.6926   28.1757  H     
@<TRIPOS>BOND
     1    1    2 2
     2    1    6 1
     3    2    3 1
     4    2   19 am
     5    3    4 2
     6    4    5 1
     7    5    6 2
     8    5    7 1
     9    6   16 am
    10    7    8 1
    11    8    9 2
    12    8   13 1
    13    9   10 1
    14   10   11 2
    15   11   12 1
    16   11   15 1
    17   12   13 2
    18   13   14 1
    19   14   23 1
    20   15   22 1
    21   15   24 2
    22   16   17 2
    23   16   18 1
    24   19   20 2
    25   19   21 1
    26    1   25 1
    27    3   26 1
    28    4   27 1
    29    9   28 1
    30   10   29 1
    31   12   30 1
    32   23   31 1
    33   23   32 1
    34   23   33 1
@<TRIPOS>PROPERTY_DATA
  Total_Score	| 1.7933
  Crash		| -1.1480
  Polar		| 0.0002
  FragIndex	| 1
  FragRMSD	| 0.355

