@<TRIPOS>MOLECULE
BindingDB_50225224
 26 27 0 0 0
SMALL
NO_CHARGES


@<TRIPOS>ATOM
1    C         1.3410    1.8413   22.1684  C     
2    C         2.5085    1.3422   21.5600  C     
3    C         3.2958    0.3797   22.2210  C     
4    C         2.8848   -0.1183   23.4697  C     
5    C         1.6873    0.3314   24.0621  C     
6    C         0.9332    1.3479   23.4239  C     
7    O         1.2923   -0.2719   25.2302  O     
8    C         0.1733   -1.0794   25.1716  C     
9    C        -0.1922   -1.8596   24.0457  C     
10   C        -1.3567   -2.6474   24.0547  C     
11   C        -2.1891   -2.6980   25.1981  C     
12   C        -1.8093   -1.9338   26.3286  C     
13   C        -0.6450   -1.1413   26.3168  C     
14   Cl       -0.4690    1.9877   24.1346  Cl    
15   Cl        2.9442    1.8869   20.0199  Cl    
16   O        -0.3143   -0.4554   27.4375  O     
17   C        -3.3405   -3.4743   25.2425  C     
18   O        -3.6493   -4.2580   24.3550  O     
19   H         0.7846    2.5560   21.6934  H     
20   H         4.1494    0.0184   21.7891  H     
21   H         3.4482   -0.8340   23.9364  H     
22   H         0.3942   -1.8603   23.2079  H     
23   H        -1.5800   -3.1844   23.2124  H     
24   H        -2.3732   -1.9611   27.1848  H     
25   H         0.4331   -0.9584   27.8283  H     
26   H        -3.9543   -3.4132   26.0178  H     
@<TRIPOS>BOND
     1    1    2 2
     2    1    6 1
     3    2    3 1
     4    2   15 1
     5    3    4 2
     6    4    5 1
     7    5    6 2
     8    5    7 1
     9    6   14 1
    10    7    8 1
    11    8    9 2
    12    8   13 1
    13    9   10 1
    14   10   11 2
    15   11   12 1
    16   11   17 1
    17   12   13 2
    18   13   16 1
    19   17   18 2
    20    1   19 1
    21    3   20 1
    22    4   21 1
    23    9   22 1
    24   10   23 1
    25   12   24 1
    26   16   25 1
    27   17   26 1
@<TRIPOS>PROPERTY_DATA
  Total_Score	| 1.5946
  Crash		| -1.1663
  Polar		| 0.1124
  FragIndex	| 1
  FragRMSD	| 0.199

