@<TRIPOS>MOLECULE
BindingDB_50225222
 35 36 0 0 0
SMALL
NO_CHARGES


@<TRIPOS>ATOM
1    C         1.0592    1.9274   22.1954  C     
2    C         2.1911    1.5285   21.4433  C     
3    C         3.1014    0.6410   22.0612  C     
4    C         2.8324    0.0956   23.3261  C     
5    C         1.6644    0.4504   24.0285  C     
6    C         0.7891    1.4425   23.5008  C     
7    O         1.3965   -0.2719   25.1685  O     
8    C         0.2642   -1.0706   25.1423  C     
9    C        -0.1333   -1.8435   24.0224  C     
10   C        -1.3160   -2.6003   24.0475  C     
11   C        -2.1371   -2.6087   25.1961  C     
12   C        -1.7219   -1.8749   26.3300  C     
13   C        -0.5164   -1.1396   26.3202  C     
14   O        -0.1544   -0.4189   27.4305  O     
15   C        -3.4129   -3.3677   25.1783  C     
16   N        -0.2908    1.9204   24.1893  N     
17   O        -0.4852    1.6804   25.3502  O     
18   O        -1.1387    2.7675   23.6696  O     
19   N         2.3620    1.9476   20.1551  N     
20   O         3.3576    1.7041   19.5238  O     
21   O         1.4478    2.6125   19.5000  O     
22   O        -3.2950   -4.5538   24.3948  O     
23   C         0.3866   -1.2152   28.5002  C     
24   H         0.4179    2.6023   21.7755  H     
25   H         3.9400    0.3240   21.5644  H     
26   H         3.4689   -0.6088   23.7126  H     
27   H         0.4297   -1.8415   23.1692  H     
28   H        -1.5779   -3.1370   23.2176  H     
29   H        -2.3000   -1.8661   27.1737  H     
30   H        -3.7330   -3.6541   26.1838  H     
31   H        -4.1975   -2.7431   24.7438  H     
32   H        -2.6603   -5.1209   24.8822  H     
33   H        -0.3478   -1.9320   28.8727  H     
34   H         0.6536   -0.5464   29.3196  H     
35   H         1.2874   -1.7491   28.1885  H     
@<TRIPOS>BOND
     1    1    2 2
     2    1    6 1
     3    2    3 1
     4    2   19 am
     5    3    4 2
     6    4    5 1
     7    5    6 2
     8    5    7 1
     9    6   16 am
    10    7    8 1
    11    8    9 2
    12    8   13 1
    13    9   10 1
    14   10   11 2
    15   11   12 1
    16   11   15 1
    17   12   13 2
    18   13   14 1
    19   14   23 1
    20   15   22 1
    21   16   17 2
    22   16   18 1
    23   19   20 2
    24   19   21 1
    25    1   24 1
    26    3   25 1
    27    4   26 1
    28    9   27 1
    29   10   28 1
    30   12   29 1
    31   15   30 1
    32   15   31 1
    33   22   32 1
    34   23   33 1
    35   23   34 1
    36   23   35 1
@<TRIPOS>PROPERTY_DATA
  Total_Score	| 1.6852
  Crash		| -1.2560
  Polar		| 0.0002
  FragIndex	| 1
  FragRMSD	| 0.373

