@<TRIPOS>MOLECULE
BindingDB_50225226
 29 30 0 0 0
SMALL
NO_CHARGES


@<TRIPOS>ATOM
1    C         1.3329    1.8177   22.2323  C     
2    C         2.4997    1.3199   21.6222  C     
3    C         3.2788    0.3452   22.2765  C     
4    C         2.8804   -0.1386   23.5370  C     
5    C         1.6914    0.3279   24.1406  C     
6    C         0.9335    1.3394   23.4983  C     
7    O         1.2914   -0.2575   25.3158  O     
8    C         0.1850   -1.0831   25.2554  C     
9    C        -0.1843   -1.8453   24.1198  C     
10   C        -1.3541   -2.6278   24.1103  C     
11   C        -2.1833   -2.7002   25.2544  C     
12   C        -1.8001   -1.9596   26.3974  C     
13   C        -0.6151   -1.1870   26.4168  C     
14   Cl       -0.4757    1.9681   24.2028  Cl    
15   Cl        2.9199    1.8461   20.0740  Cl    
16   O        -0.2829   -0.4706   27.5387  O     
17   C        -3.3596   -3.4900   25.2502  C     
18   O        -4.1118   -3.6572   26.3596  O     
19   C         0.2721   -1.2624   28.6080  C     
20   O        -3.7589   -4.1674   24.1496  O     
21   H         0.7659    2.5175   21.7493  H     
22   H         4.1206   -0.0360   21.8352  H     
23   H         3.4352   -0.8639   24.0015  H     
24   H         0.3964   -1.8307   23.2733  H     
25   H        -1.5864   -3.1387   23.2539  H     
26   H        -2.3838   -1.9712   27.2395  H     
27   H        -0.4272   -2.0294   28.9515  H     
28   H         0.4771   -0.6004   29.4471  H     
29   H         1.2096   -1.7395   28.3108  H     
@<TRIPOS>BOND
     1    1    2 2
     2    1    6 1
     3    2    3 1
     4    2   15 1
     5    3    4 2
     6    4    5 1
     7    5    6 2
     8    5    7 1
     9    6   14 1
    10    7    8 1
    11    8    9 2
    12    8   13 1
    13    9   10 1
    14   10   11 2
    15   11   12 1
    16   11   17 1
    17   12   13 2
    18   13   16 1
    19   16   19 1
    20   17   18 2
    21   17   20 1
    22    1   21 1
    23    3   22 1
    24    4   23 1
    25    9   24 1
    26   10   25 1
    27   12   26 1
    28   19   27 1
    29   19   28 1
    30   19   29 1
@<TRIPOS>PROPERTY_DATA
  Total_Score	| 2.7413
  Crash		| -1.1687
  Polar		| 0.1068
  FragIndex	| 1
  FragRMSD	| 0.215

