@<TRIPOS>MOLECULE
BindingDB_50225225
 28 29 0 0 0
SMALL
NO_CHARGES


@<TRIPOS>ATOM
1    C         1.6458    1.7330   21.9716  C     
2    C         2.8838    1.2123   21.5446  C     
3    C         3.5487    0.2472   22.3213  C     
4    C         2.9729   -0.2063   23.5261  C     
5    C         1.7199    0.2917   23.9436  C     
6    C         1.0709    1.2858   23.1802  C     
7    O         1.2090   -0.1401   25.1331  O     
8    C         0.1018   -0.9651   25.0876  C     
9    C        -0.2530   -1.7677   23.9756  C     
10   C        -1.3529   -2.6502   24.0398  C     
11   C        -2.1213   -2.7534   25.2241  C     
12   C        -1.7571   -1.9573   26.3363  C     
13   C        -0.6573   -1.0790   26.2706  C     
14   O        -0.3155   -0.3460   27.3534  O     
15   C        -3.2825   -3.6616   25.3461  C     
16   O        -3.5222   -4.4805   24.1947  O     
17   H         1.1640    2.4330   21.4077  H     
18   H         3.2996    1.5361   20.6633  H     
19   H         4.4380   -0.1292   22.0175  H     
20   H         3.4570   -0.9067   24.0849  H     
21   H         0.1781    1.6691   23.4887  H     
22   H         0.2978   -1.7244   23.1203  H     
23   H        -1.5744   -3.2219   23.2245  H     
24   H        -2.2877   -2.0203   27.2102  H     
25   H         0.0479   -1.0041   27.9982  H     
26   H        -3.1541   -4.3270   26.2107  H     
27   H        -4.1898   -3.0711   25.5120  H     
28   H        -2.7176   -5.0486   24.1196  H     
@<TRIPOS>BOND
     1    1    2 2
     2    1    6 1
     3    2    3 1
     4    3    4 2
     5    4    5 1
     6    5    6 2
     7    5    7 1
     8    7    8 1
     9    8    9 2
    10    8   13 1
    11    9   10 1
    12   10   11 2
    13   11   12 1
    14   11   15 1
    15   12   13 2
    16   13   14 1
    17   15   16 1
    18    1   17 1
    19    2   18 1
    20    3   19 1
    21    4   20 1
    22    6   21 1
    23    9   22 1
    24   10   23 1
    25   12   24 1
    26   14   25 1
    27   15   26 1
    28   15   27 1
    29   16   28 1
@<TRIPOS>PROPERTY_DATA
  Total_Score	| 3.2795
  Crash		| -0.5960
  Polar		| 0.0000
  FragIndex	| 1
  FragRMSD	| 0.076

