@<TRIPOS>MOLECULE
BindingDB_50225218
 30 31 0 0 0
SMALL
NO_CHARGES


@<TRIPOS>ATOM
1    C         3.5259    0.2022   22.3207  C     
2    C         2.8723    1.1736   21.5405  C     
3    C         1.6574    1.7281   21.9848  C     
4    C         1.0980    1.3106   23.2081  C     
5    C         1.7426    0.3205   23.9812  C     
6    C         2.9731   -0.2141   23.5461  C     
7    O         1.2130   -0.1226   25.1621  O     
8    C         0.1186   -0.9621   25.1055  C     
9    C        -0.2551   -1.7246   23.9706  C     
10   C        -1.3798   -2.5708   24.0027  C     
11   C        -2.1562   -2.6880   25.1806  C     
12   C        -1.7786   -1.9376   26.3191  C     
13   C        -0.6396   -1.1020   26.2913  C     
14   O        -0.3120   -0.3741   27.4067  O     
15   C        -3.3539   -3.5655   25.1955  C     
16   Cl       -2.9300   -5.2363   24.8192  Cl    
17   C         0.2913   -1.1576   28.4593  C     
18   H         4.4027   -0.2002   21.9952  H     
19   H         3.2712    1.4704   20.6484  H     
20   H         1.1766    2.4275   21.4149  H     
21   H         0.2136    1.7127   23.5280  H     
22   H         3.4513   -0.9259   24.1037  H     
23   H         0.2952   -1.6697   23.1127  H     
24   H        -1.6258   -3.1008   23.1604  H     
25   H        -2.3229   -2.0059   27.1836  H     
26   H        -3.8471   -3.5706   26.1690  H     
27   H        -4.0758   -3.2183   24.4548  H     
28   H        -0.4059   -1.9184   28.8239  H     
29   H         0.5388   -0.4970   29.2876  H     
30   H         1.2158   -1.6340   28.1174  H     
@<TRIPOS>BOND
     1    1    2 2
     2    1    6 1
     3    2    3 1
     4    3    4 2
     5    4    5 1
     6    5    6 2
     7    5    7 1
     8    7    8 1
     9    8    9 2
    10    8   13 1
    11    9   10 1
    12   10   11 2
    13   11   12 1
    14   11   15 1
    15   12   13 2
    16   13   14 1
    17   14   17 1
    18   15   16 1
    19    1   18 1
    20    2   19 1
    21    3   20 1
    22    4   21 1
    23    6   22 1
    24    9   23 1
    25   10   24 1
    26   12   25 1
    27   15   26 1
    28   15   27 1
    29   17   28 1
    30   17   29 1
    31   17   30 1
@<TRIPOS>PROPERTY_DATA
  Total_Score	| 4.2275
  Crash		| -0.5819
  Polar		| 0.0000
  FragIndex	| 1
  FragRMSD	| 0.066

