@<TRIPOS>MOLECULE
BindingDB_50225219
 29 30 0 0 0
SMALL
NO_CHARGES


@<TRIPOS>ATOM
1    C         3.5156    0.3063   22.3568  C     
2    C         2.8244    1.2537   21.5820  C     
3    C         1.5697    1.7276   22.0116  C     
4    C         1.0309    1.2896   23.2390  C     
5    C         1.7191    0.3272   24.0102  C     
6    C         2.9777   -0.1409   23.5777  C     
7    O         1.2023   -0.1490   25.1866  O     
8    C         0.1002   -0.9705   25.1375  C     
9    C        -0.2587   -1.7379   24.0044  C     
10   C        -1.3728   -2.5937   24.0414  C     
11   C        -2.1589   -2.7050   25.2154  C     
12   C        -1.7863   -1.9388   26.3529  C     
13   C        -0.6560   -1.0993   26.3218  C     
14   O        -0.2980   -0.3270   27.4027  O     
15   C        -3.2694   -3.5418   25.2943  C     
16   O        -3.6596   -4.2336   24.3610  O     
17   C         0.4204   -1.0273   28.4574  C     
18   H         4.4078   -0.0651   22.0368  H     
19   H         3.2197    1.5751   20.6948  H     
20   H         1.0510    2.3970   21.4385  H     
21   H         0.1143    1.6279   23.5390  H     
22   H         3.4766   -0.8471   24.1268  H     
23   H         0.2812   -1.6968   23.1381  H     
24   H        -1.6092   -3.1406   23.2032  H     
25   H        -2.3184   -1.9796   27.2351  H     
26   H        -3.8052   -3.5798   26.1299  H     
27   H        -0.2565   -1.7488   28.9574  H     
28   H         0.7725   -0.2999   29.1990  H     
29   H         1.3039   -1.5727   28.0747  H     
@<TRIPOS>BOND
     1    1    2 2
     2    1    6 1
     3    2    3 1
     4    3    4 2
     5    4    5 1
     6    5    6 2
     7    5    7 1
     8    7    8 1
     9    8    9 2
    10    8   13 1
    11    9   10 1
    12   10   11 2
    13   11   12 1
    14   11   15 1
    15   12   13 2
    16   13   14 1
    17   14   17 1
    18   15   16 2
    19    1   18 1
    20    2   19 1
    21    3   20 1
    22    4   21 1
    23    6   22 1
    24    9   23 1
    25   10   24 1
    26   12   25 1
    27   15   26 1
    28   17   27 1
    29   17   28 1
    30   17   29 1
@<TRIPOS>PROPERTY_DATA
  Total_Score	| 4.1587
  Crash		| -0.5602
  Polar		| 0.0000
  FragIndex	| 1
  FragRMSD	| 0.096

