@<TRIPOS>MOLECULE
BindingDB_50225216
 28 29 0 0 0
SMALL
NO_CHARGES


@<TRIPOS>ATOM
1    C         1.3408    1.8179   22.2361  C     
2    C         2.5171    1.3340   21.6342  C     
3    C         3.3019    0.3648   22.2900  C     
4    C         2.8953   -0.1324   23.5391  C     
5    C         1.6980    0.3191   24.1340  C     
6    C         0.9364    1.3306   23.4947  C     
7    O         1.2973   -0.2814   25.3014  O     
8    C         0.1789   -1.0875   25.2247  C     
9    C        -0.1838   -1.8438   24.0827  C     
10   C        -1.3603   -2.6180   24.0718  C     
11   C        -2.1900   -2.6847   25.2150  C     
12   C        -1.8117   -1.9428   26.3603  C     
13   C        -0.6375   -1.1659   26.3697  C     
14   Cl       -0.4838    1.9437   24.1927  Cl    
15   Cl        2.9454    1.8754   20.0928  Cl    
16   O        -0.2974   -0.4771   27.4879  O     
17   C        -3.4427   -3.4894   25.2481  C     
18   O        -3.5806   -4.4139   24.1703  O     
19   H         0.7644    2.5065   21.7478  H     
20   H         4.1485   -0.0082   21.8540  H     
21   H         3.4506   -0.8552   24.0058  H     
22   H         0.3997   -1.8299   23.2434  H     
23   H        -1.6026   -3.1156   23.2133  H     
24   H        -2.3982   -1.9640   27.2015  H     
25   H         0.0309   -1.1549   28.1192  H     
26   H        -3.4728   -4.0811   26.1643  H     
27   H        -4.3034   -2.8179   25.2545  H     
28   H        -3.6599   -3.8748   23.3557  H     
@<TRIPOS>BOND
     1    1    2 2
     2    1    6 1
     3    2    3 1
     4    2   15 1
     5    3    4 2
     6    4    5 1
     7    5    6 2
     8    5    7 1
     9    6   14 1
    10    7    8 1
    11    8    9 2
    12    8   13 1
    13    9   10 1
    14   10   11 2
    15   11   12 1
    16   11   17 1
    17   12   13 2
    18   13   16 1
    19   17   18 1
    20    1   19 1
    21    3   20 1
    22    4   21 1
    23    9   22 1
    24   10   23 1
    25   12   24 1
    26   16   25 1
    27   17   26 1
    28   17   27 1
    29   18   28 1
@<TRIPOS>PROPERTY_DATA
  Total_Score	| 1.6045
  Crash		| -1.1822
  Polar		| 0.1096
  FragIndex	| 1
  FragRMSD	| 0.209

