@<TRIPOS>MOLECULE
BindingDB_50225228
 26 27 0 0 0
SMALL
NO_CHARGES


@<TRIPOS>ATOM
1    C         3.5160    0.2150   22.2958  C     
2    C         2.8569    1.1932   21.5269  C     
3    C         1.6480    1.7576   21.9863  C     
4    C         1.1005    1.3375   23.2154  C     
5    C         1.7335    0.3215   23.9634  C     
6    C         2.9639   -0.2096   23.5175  C     
7    O         1.2093   -0.1219   25.1440  O     
8    C         0.1091   -0.9494   25.0884  C     
9    C        -0.2216   -1.7644   23.9759  C     
10   C        -1.3398   -2.6251   24.0138  C     
11   C        -2.1485   -2.7007   25.1718  C     
12   C        -1.7978   -1.9007   26.2848  C     
13   C        -0.6824   -1.0410   26.2478  C     
14   O        -0.3718   -0.2955   27.3340  O     
15   C        -3.2786   -3.5631   25.2308  C     
16   O        -3.6296   -4.3539   24.1897  O     
17   O        -4.0828   -3.6334   26.3193  O     
18   H         4.3980   -0.1793   21.9736  H     
19   H         3.2553    1.4942   20.6334  H     
20   H         1.1822    2.4785   21.4388  H     
21   H         0.2347    1.7597   23.5557  H     
22   H         3.4472   -0.9119   24.0816  H     
23   H         0.3519   -1.7551   23.1315  H     
24   H        -1.5522   -3.2062   23.2012  H     
25   H        -2.3535   -1.9320   27.1512  H     
26   H        -0.2043   -0.9430   28.0602  H     
@<TRIPOS>BOND
     1    1    2 2
     2    1    6 1
     3    2    3 1
     4    3    4 2
     5    4    5 1
     6    5    6 2
     7    5    7 1
     8    7    8 1
     9    8    9 2
    10    8   13 1
    11    9   10 1
    12   10   11 2
    13   11   12 1
    14   11   15 1
    15   12   13 2
    16   13   14 1
    17   15   16 2
    18   15   17 1
    19    1   18 1
    20    2   19 1
    21    3   20 1
    22    4   21 1
    23    6   22 1
    24    9   23 1
    25   10   24 1
    26   12   25 1
    27   14   26 1
@<TRIPOS>PROPERTY_DATA
  Total_Score	| 3.3477
  Crash		| -0.5128
  Polar		| 0.0000
  FragIndex	| 1
  FragRMSD	| 0.791

