@<TRIPOS>MOLECULE
BindingDB_26543
 37 38 0 0 0
SMALL
NO_CHARGES


@<TRIPOS>ATOM
1    S        42.1166   29.7818    1.3868  S     
2    O        41.1803   28.4987    1.5211  O     
3    O        42.3891   30.0802   -0.1521  O     
4    C        43.5929   29.3795    2.2144  C     
5    C        43.5414   28.8405    3.5179  C     
6    C        44.8526   29.5936    1.6161  C     
7    C        46.0396   29.2799    2.3052  C     
8    C        45.9756   28.7298    3.6013  C     
9    C        44.7233   28.5248    4.2139  C     
10   O        47.1277   28.4375    4.2915  O     
11   C        47.0746   27.2609    5.1234  C     
12   C        47.0481   26.1264    4.3581  C     
13   C        47.0524   25.1221    3.7090  C     
14   C        47.0781   23.9715    2.9790  C     
15   C        41.6209   31.5668    3.3980  C     
16   C        40.7857   32.8604    3.5173  C     
17   C        39.6154   32.6099    2.5487  C     
18   C        40.2580   31.7738    1.4359  C     
19   N        41.3065   31.0822    2.1010  N     
20   S        40.2925   33.2960    5.2028  S     
21   H        42.6445   28.6746    3.9810  H     
22   H        44.9174   29.9913    0.6757  H     
23   H        46.9444   29.4573    1.8659  H     
24   H        44.6747   28.1496    5.1595  H     
25   H        47.9838   27.2272    5.7250  H     
26   H        46.2159   27.2530    5.8060  H     
27   H        46.1606   23.8784    2.3973  H     
28   H        47.1733   23.1183    3.6512  H     
29   H        47.9399   23.9935    2.3063  H     
30   H        42.6824   31.7849    3.4969  H     
31   H        41.3206   30.8395    4.1513  H     
32   H        41.3808   33.6947    3.1384  H     
33   H        38.8300   32.0241    3.0311  H     
34   H        39.1871   33.5381    2.1738  H     
35   H        39.5299   31.0896    0.9956  H     
36   H        40.6679   32.4130    0.6496  H     
37   H        40.4295   32.0264    5.6884  H     
@<TRIPOS>BOND
     1    1    2 2
     2    1    3 2
     3    1    4 1
     4    1   19 1
     5    4    5 2
     6    4    6 1
     7    5    9 1
     8    6    7 2
     9    7    8 1
    10    8    9 2
    11    8   10 1
    12   10   11 1
    13   11   12 1
    14   12   13 3
    15   13   14 1
    16   15   16 1
    17   15   19 1
    18   16   17 1
    19   16   20 1
    20   17   18 1
    21   18   19 1
    22    5   21 1
    23    6   22 1
    24    7   23 1
    25    9   24 1
    26   11   25 1
    27   11   26 1
    28   14   27 1
    29   14   28 1
    30   14   29 1
    31   15   30 1
    32   15   31 1
    33   16   32 1
    34   17   33 1
    35   17   34 1
    36   18   35 1
    37   18   36 1
    38   20   37 1
@<TRIPOS>PROPERTY_DATA
  Total_Score	| 6.9648
  Crash		| -2.0452
  Polar		| 3.3495
  FragIndex	| 1
  FragRMSD	| 0.680

