@<TRIPOS>MOLECULE
BindingDB_26542
 34 35 0 0 0
SMALL
NO_CHARGES


@<TRIPOS>ATOM
1    S        41.9637   29.9745    1.4342  S     
2    O        40.8595   28.8275    1.3944  O     
3    O        42.4608   30.1088   -0.0701  O     
4    C        43.2658   29.5149    2.4865  C     
5    C        43.0713   28.5570    3.5035  C     
6    C        44.5356   30.1075    2.3386  C     
7    C        45.6019   29.7314    3.1736  C     
8    C        45.4192   28.7403    4.1639  C     
9    C        44.1377   28.1801    4.3400  C     
10   C        47.5973   27.7289    4.4722  C     
11   C        47.4041   26.4413    4.0457  C     
12   C        47.2502   25.3254    3.6504  C     
13   C        47.0945   24.0581    3.1688  C     
14   C        41.7319   32.7348    1.7994  C     
15   C        40.4997   33.1310    2.6481  C     
16   C        40.1119   31.6348    2.7172  C     
17   N        41.2229   31.4181    1.8786  N     
18   S        40.8901   33.8883    4.2420  S     
19   O        46.4188   28.3512    5.0276  O     
20   H        42.1521   28.1248    3.6419  H     
21   H        44.6966   30.8194    1.6174  H     
22   H        46.5130   30.1858    3.0601  H     
23   H        43.9773   27.4923    5.0740  H     
24   H        48.3367   27.7043    5.2716  H     
25   H        48.0135   28.3169    3.6484  H     
26   H        47.8542   23.8589    2.4125  H     
27   H        46.1072   23.9602    2.7247  H     
28   H        47.2048   23.3439    3.9872  H     
29   H        41.7211   33.1343    0.7754  H     
30   H        42.6996   32.8447    2.3025  H     
31   H        39.7783   33.7301    2.0773  H     
32   H        40.2339   31.1700    3.7042  H     
33   H        39.1600   31.4010    2.2246  H     
34   H        39.6947   34.5528    4.3009  H     
@<TRIPOS>BOND
     1    1    2 2
     2    1    3 2
     3    1    4 1
     4    1   17 1
     5    4    5 2
     6    4    6 1
     7    5    9 1
     8    6    7 2
     9    7    8 1
    10    8    9 2
    11    8   19 1
    12   10   11 1
    13   10   19 1
    14   11   12 3
    15   12   13 1
    16   14   15 1
    17   14   17 1
    18   15   16 1
    19   15   18 1
    20   16   17 1
    21    5   20 1
    22    6   21 1
    23    7   22 1
    24    9   23 1
    25   10   24 1
    26   10   25 1
    27   13   26 1
    28   13   27 1
    29   13   28 1
    30   14   29 1
    31   14   30 1
    32   15   31 1
    33   16   32 1
    34   16   33 1
    35   18   34 1
@<TRIPOS>PROPERTY_DATA
  Total_Score	| 5.8763
  Crash		| -1.0349
  Polar		| 2.2704
  FragIndex	| 1
  FragRMSD	| 0.403

