@<TRIPOS>MOLECULE
BindingDB_26551
 36 36 0 0 0
SMALL
NO_CHARGES


@<TRIPOS>ATOM
1    C        41.5050   32.1189    2.7501  C     
2    C        40.3584   31.9379    3.7871  C     
3    N        41.2693   31.3388    1.5611  N     
4    C        40.3952   31.8237    0.5273  C     
5    S        42.0186   29.8453    1.3171  S     
6    O        42.6327   29.8126   -0.1464  O     
7    O        40.9197   28.7009    1.3517  O     
8    C        43.3081   29.4226    2.4176  C     
9    C        43.1089   28.4801    3.4475  C     
10   C        44.5815   30.0141    2.2661  C     
11   C        45.6364   29.6609    3.1301  C     
12   C        45.4426   28.6951    4.1363  C     
13   C        44.1645   28.1255    4.3082  C     
14   O        46.4426   28.3396    5.0041  O     
15   C        47.6083   27.6809    4.4754  C     
16   C        47.3987   26.3923    4.0465  C     
17   C        47.2297   25.2834    3.6471  C     
18   C        47.0621   24.0125    3.1769  C     
19   S        40.4583   33.1764    5.1104  S     
20   H        41.5985   33.1765    2.4747  H     
21   H        42.4479   31.8455    3.2319  H     
22   H        39.3741   32.0450    3.3138  H     
23   H        40.4339   30.9297    4.2304  H     
24   H        39.6746   32.5508    0.9081  H     
25   H        39.8137   31.0076    0.0778  H     
26   H        40.9846   32.3062   -0.2537  H     
27   H        42.1879   28.0403    3.5844  H     
28   H        44.7573   30.7094    1.5264  H     
29   H        46.5531   30.1161    3.0227  H     
30   H        43.9996   27.4564    5.0690  H     
31   H        48.0477   28.2698    3.6729  H     
32   H        48.3382   27.6219    5.2822  H     
33   H        47.1911   23.2872    3.9902  H     
34   H        47.8127   23.8083    2.4059  H     
35   H        46.0636   23.9183    2.7503  H     
36   H        40.3326   32.2579    6.1272  H     
@<TRIPOS>BOND
     1    1    2 1
     2    1    3 1
     3    2   19 1
     4    3    4 1
     5    3    5 1
     6    5    6 2
     7    5    7 2
     8    5    8 1
     9    8    9 2
    10    8   10 1
    11    9   13 1
    12   10   11 2
    13   11   12 1
    14   12   13 2
    15   12   14 1
    16   14   15 1
    17   15   16 1
    18   16   17 3
    19   17   18 1
    20    1   20 1
    21    1   21 1
    22    2   22 1
    23    2   23 1
    24    4   24 1
    25    4   25 1
    26    4   26 1
    27    9   27 1
    28   10   28 1
    29   11   29 1
    30   13   30 1
    31   15   31 1
    32   15   32 1
    33   18   33 1
    34   18   34 1
    35   18   35 1
    36   19   36 1
@<TRIPOS>PROPERTY_DATA
  Total_Score	| 6.8490
  Crash		| -1.1455
  Polar		| 3.2742
  FragIndex	| 1
  FragRMSD	| 0.440

