@<TRIPOS>MOLECULE
BindingDB_26544
 37 38 0 0 0
SMALL
NO_CHARGES


@<TRIPOS>ATOM
1    S        42.1440   29.8547    1.4283  S     
2    O        41.1203   28.6258    1.4616  O     
3    O        42.5249   30.1883   -0.0888  O     
4    C        43.5972   29.4158    2.2797  C     
5    C        44.8604   29.8978    1.8659  C     
6    C        43.5011   28.6361    3.4556  C     
7    C        44.6576   28.3201    4.1935  C     
8    C        45.9270   28.7482    3.7482  C     
9    C        46.0231   29.5470    2.5866  C     
10   O        47.0448   28.4651    4.4746  O     
11   C        47.0258   27.2435    5.2471  C     
12   C        47.0073   26.1452    4.4369  C     
13   C        47.0185   25.1634    3.7529  C     
14   C        47.0724   24.0328    2.9928  C     
15   C        41.1307   31.2687    3.5283  C     
16   C        40.1475   32.4457    3.6666  C     
17   C        40.4596   33.3082    2.4324  C     
18   C        40.8636   32.2671    1.3694  C     
19   N        41.3906   31.1887    2.1335  N     
20   S        40.3023   33.3237    5.2412  S     
21   H        44.9456   30.4910    1.0378  H     
22   H        42.5912   28.3160    3.7972  H     
23   H        44.5706   27.7785    5.0546  H     
24   H        46.9307   29.8987    2.2797  H     
25   H        47.9578   27.2089    5.8128  H     
26   H        46.1935   27.1720    5.9585  H     
27   H        46.1633   23.9407    2.4013  H     
28   H        47.1656   23.1654    3.6469  H     
29   H        47.9375   24.0840    2.3290  H     
30   H        42.0750   31.4595    4.0399  H     
31   H        40.6851   30.3482    3.9129  H     
32   H        39.1252   32.0671    3.5859  H     
33   H        39.5887   33.8986    2.1189  H     
34   H        41.2974   33.9836    2.6280  H     
35   H        39.9863   31.9356    0.8087  H     
36   H        41.6023   32.6823    0.6812  H     
37   H        40.2968   32.1715    5.9695  H     
@<TRIPOS>BOND
     1    1    2 2
     2    1    3 2
     3    1    4 1
     4    1   19 1
     5    4    5 2
     6    4    6 1
     7    5    9 1
     8    6    7 2
     9    7    8 1
    10    8    9 2
    11    8   10 1
    12   10   11 1
    13   11   12 1
    14   12   13 3
    15   13   14 1
    16   15   16 1
    17   15   19 1
    18   16   17 1
    19   16   20 1
    20   17   18 1
    21   18   19 1
    22    5   21 1
    23    6   22 1
    24    7   23 1
    25    9   24 1
    26   11   25 1
    27   11   26 1
    28   14   27 1
    29   14   28 1
    30   14   29 1
    31   15   30 1
    32   15   31 1
    33   16   32 1
    34   17   33 1
    35   17   34 1
    36   18   35 1
    37   18   36 1
    38   20   37 1
@<TRIPOS>PROPERTY_DATA
  Total_Score	| 7.0220
  Crash		| -1.9343
  Polar		| 3.4691
  FragIndex	| 1
  FragRMSD	| 0.619

