@<TRIPOS>MOLECULE
BindingDB_26546
 53 55 0 0 0
SMALL
NO_CHARGES


@<TRIPOS>ATOM
1    S        42.0107   29.7840    1.3137  S     
2    O        40.9510   28.6132    1.4536  O     
3    O        42.4285   29.8834   -0.2160  O     
4    C        43.3874   29.3369    2.2883  C     
5    C        43.2306   28.6001    3.4853  C     
6    C        44.6867   29.7424    1.8998  C     
7    C        45.7972   29.4277    2.6931  C     
8    C        45.6469   28.6949    3.8886  C     
9    C        44.3481   28.2944    4.2795  C     
10   O        46.7874   28.4935    4.6262  O     
11   C        46.9910   27.2689    5.3492  C     
12   C        47.1272   26.1742    4.5391  C     
13   C        47.2848   25.2146    3.8483  C     
14   C        42.0594   32.2151    2.5441  C     
15   C        41.0114   33.2848    2.9013  C     
16   C        39.9976   33.1722    1.7425  C     
17   C        40.0792   31.6996    1.2973  C     
18   N        41.3256   31.2425    1.8138  N     
19   S        40.2848   33.0278    4.5448  S     
20   C        47.5608   24.0897    3.1063  C     
21   C        49.9953   24.8801    3.1459  C     
22   C        49.3839   22.5591    2.4141  C     
23   C        50.7951   22.3730    1.8092  C     
24   C        51.4211   24.7128    2.5651  C     
25   N        48.9510   23.9934    2.5214  N     
26   C        51.8343   23.2245    2.5744  C     
27   H        42.3074   28.2934    3.7924  H     
28   H        44.8209   30.3032    1.0536  H     
29   H        46.7296   29.7341    2.3954  H     
30   H        44.2174   27.7605    5.1412  H     
31   H        47.9131   27.3720    5.9381  H     
32   H        46.1651   27.1086    6.0455  H     
33   H        42.8373   32.6429    1.8997  H     
34   H        42.5302   31.7868    3.4309  H     
35   H        41.4611   34.2780    2.9030  H     
36   H        38.9817   33.4574    2.0387  H     
37   H        40.3142   33.8204    0.9149  H     
38   H        39.2618   31.1219    1.7327  H     
39   H        40.0406   31.6219    0.2046  H     
40   H        39.6911   31.8432    4.2206  H     
41   H        47.3580   23.2416    3.7704  H     
42   H        46.8373   24.0610    2.2881  H     
43   H        50.0164   24.7131    4.2193  H     
44   H        49.7127   25.9252    2.9827  H     
45   H        48.6751   22.0135    1.7854  H     
46   H        49.3709   22.0896    3.4033  H     
47   H        51.0780   21.3215    1.8590  H     
48   H        50.7810   22.6760    0.7534  H     
49   H        51.4449   25.1003    1.5434  H     
50   H        52.1323   25.2886    3.1656  H     
51   H        48.8769   24.3224    1.5565  H     
52   H        51.9077   22.8748    3.6106  H     
53   H        52.8193   23.1125    2.1160  H     
@<TRIPOS>BOND
     1    1    2 2
     2    1    3 2
     3    1    4 1
     4    1   18 1
     5    4    5 2
     6    4    6 1
     7    5    9 1
     8    6    7 2
     9    7    8 1
    10    8    9 2
    11    8   10 1
    12   10   11 1
    13   11   12 1
    14   12   13 3
    15   13   20 1
    16   14   15 1
    17   14   18 1
    18   15   16 1
    19   15   19 1
    20   16   17 1
    21   17   18 1
    22   20   25 1
    23   21   24 1
    24   21   25 1
    25   22   23 1
    26   22   25 1
    27   23   26 1
    28   24   26 1
    29    5   27 1
    30    6   28 1
    31    7   29 1
    32    9   30 1
    33   11   31 1
    34   11   32 1
    35   14   33 1
    36   14   34 1
    37   15   35 1
    38   16   36 1
    39   16   37 1
    40   17   38 1
    41   17   39 1
    42   19   40 1
    43   20   41 1
    44   20   42 1
    45   21   43 1
    46   21   44 1
    47   22   45 1
    48   22   46 1
    49   23   47 1
    50   23   48 1
    51   24   49 1
    52   24   50 1
    53   25   51 1
    54   26   52 1
    55   26   53 1
@<TRIPOS>PROPERTY_DATA
  Total_Score	| 7.1962
  Crash		| -3.3686
  Polar		| 2.3728
  FragIndex	| 1
  FragRMSD	| 0.625

