@<TRIPOS>MOLECULE
BindingDB_26552
 39 39 0 0 0
SMALL
NO_CHARGES


@<TRIPOS>ATOM
1    C        40.1702   31.7498    1.9620  C     
2    C        39.9182   32.4859    3.3225  C     
3    N        41.5425   31.4847    1.5903  N     
4    C        42.4136   32.5755    1.2578  C     
5    S        42.0798   29.8964    1.3104  S     
6    O        42.6323   29.8198   -0.1790  O     
7    O        40.9301   28.8006    1.3316  O     
8    C        43.3417   29.4102    2.4096  C     
9    C        43.0897   28.5289    3.4766  C     
10   C        44.6411   29.9314    2.2445  C     
11   C        45.6714   29.5790    3.1368  C     
12   C        45.4379   28.6403    4.1615  C     
13   C        44.1324   28.1340    4.3372  C     
14   O        46.4322   28.2609    5.0263  O     
15   C        47.6212   27.6662    4.4614  C     
16   C        47.4300   26.3846    4.0176  C     
17   C        47.2775   25.2649    3.6252  C     
18   C        47.1134   23.9909    3.1674  C     
19   S        41.2143   32.1294    4.5431  S     
20   C        39.7116   34.0210    3.2065  C     
21   H        39.6196   30.8075    1.9981  H     
22   H        39.6990   32.3232    1.1599  H     
23   H        38.9848   32.0844    3.7250  H     
24   H        42.1599   32.9588    0.2661  H     
25   H        43.4651   32.2894    1.2577  H     
26   H        42.3087   33.3794    1.9917  H     
27   H        42.1473   28.1580    3.6341  H     
28   H        44.8590   30.5671    1.4761  H     
29   H        46.5914   30.0105    3.0338  H     
30   H        43.9427   27.4862    5.1035  H     
31   H        48.0345   28.2730    3.6517  H     
32   H        48.3719   27.6245    5.2533  H     
33   H        46.1296   23.8963    2.7094  H     
34   H        47.1980   23.2857    3.9978  H     
35   H        47.8826   23.7711    2.4246  H     
36   H        40.4462   31.3384    5.3385  H     
37   H        40.6130   34.5116    2.8321  H     
38   H        39.4664   34.4432    4.1874  H     
39   H        38.8828   34.2413    2.5293  H     
@<TRIPOS>BOND
     1    1    2 1
     2    1    3 1
     3    2   19 1
     4    2   20 1
     5    3    4 1
     6    3    5 1
     7    5    6 2
     8    5    7 2
     9    5    8 1
    10    8    9 2
    11    8   10 1
    12    9   13 1
    13   10   11 2
    14   11   12 1
    15   12   13 2
    16   12   14 1
    17   14   15 1
    18   15   16 1
    19   16   17 3
    20   17   18 1
    21    1   21 1
    22    1   22 1
    23    2   23 1
    24    4   24 1
    25    4   25 1
    26    4   26 1
    27    9   27 1
    28   10   28 1
    29   11   29 1
    30   13   30 1
    31   15   31 1
    32   15   32 1
    33   18   33 1
    34   18   34 1
    35   18   35 1
    36   19   36 1
    37   20   37 1
    38   20   38 1
    39   20   39 1
@<TRIPOS>PROPERTY_DATA
  Total_Score	| 7.3903
  Crash		| -1.4898
  Polar		| 3.9859
  FragIndex	| 1
  FragRMSD	| 0.853

