@<TRIPOS>MOLECULE
BindingDB_26547
 56 58 0 0 0
SMALL
NO_CHARGES


@<TRIPOS>ATOM
1    S        42.0543   29.7408    1.3392  S     
2    O        40.9785   28.5763    1.2961  O     
3    O        42.5283   30.0855   -0.1414  O     
4    C        43.4299   29.2324    2.2886  C     
5    C        44.6813   29.8632    2.1309  C     
6    C        43.2777   28.2504    3.2956  C     
7    C        44.3632   27.8974    4.1111  C     
8    C        45.6290   28.4884    3.9124  C     
9    C        45.7681   29.4955    2.9448  C     
10   O        46.6776   28.2214    4.7585  O     
11   C        47.1667   26.8635    4.8257  C     
12   C        48.3094   26.6949    4.0975  C     
13   C        49.3501   26.5503    3.5042  C     
14   C        41.5182   31.4234    3.3969  C     
15   C        40.8621   32.8109    3.5348  C     
16   C        39.7093   32.7244    2.5200  C     
17   C        40.3196   31.8792    1.3814  C     
18   N        41.3320   31.1042    2.0266  N     
19   S        40.3821   33.2766    5.2202  S     
20   C        50.5518   26.3963    2.8455  C     
21   C        52.2740   24.5741    3.1838  C     
22   C        50.0028   23.9355    2.4040  C     
23   C        50.5575   22.6157    1.8595  C     
24   C        52.8167   23.2085    2.6738  C     
25   N        51.0423   25.0219    2.4516  N     
26   N        51.7498   22.1609    2.6388  N     
27   C        52.2513   20.8305    2.1895  C     
28   H        44.8018   30.6122    1.4490  H     
29   H        42.3659   27.8123    3.4628  H     
30   H        44.2301   27.2151    4.8563  H     
31   H        46.6678   29.9779    2.8412  H     
32   H        47.4237   26.6705    5.8744  H     
33   H        46.4264   26.1000    4.5214  H     
34   H        42.5738   31.4650    3.6742  H     
35   H        41.0089   30.6602    3.9969  H     
36   H        41.5656   33.5717    3.1806  H     
37   H        38.8590   32.1981    2.9594  H     
38   H        39.3958   33.7150    2.1750  H     
39   H        39.5559   31.2556    0.9094  H     
40   H        40.7845   32.5281    0.6297  H     
41   H        40.4663   32.0303    5.7689  H     
42   H        50.4815   26.9843    1.9268  H     
43   H        51.2859   26.9081    3.4813  H     
44   H        52.0662   24.5026    4.2539  H     
45   H        53.0630   25.3230    3.0448  H     
46   H        49.1721   24.2636    1.7625  H     
47   H        49.6017   23.7731    3.4168  H     
48   H        49.7654   21.8584    1.9336  H     
49   H        50.8164   22.7389    0.7969  H     
50   H        53.2499   23.3424    1.6761  H     
51   H        53.6225   22.8895    3.3440  H     
52   H        51.3613   25.1130    1.4832  H     
53   H        51.4465   22.0358    3.6030  H     
54   H        52.5632   20.8518    1.1442  H     
55   H        51.4590   20.0887    2.3081  H     
56   H        53.0935   20.5147    2.8040  H     
@<TRIPOS>BOND
     1    1    2 2
     2    1    3 2
     3    1    4 1
     4    1   18 1
     5    4    5 2
     6    4    6 1
     7    5    9 1
     8    6    7 2
     9    7    8 1
    10    8    9 2
    11    8   10 1
    12   10   11 1
    13   11   12 1
    14   12   13 3
    15   13   20 1
    16   14   15 1
    17   14   18 1
    18   15   16 1
    19   15   19 1
    20   16   17 1
    21   17   18 1
    22   20   25 1
    23   21   24 1
    24   21   25 1
    25   22   23 1
    26   22   25 1
    27   23   26 1
    28   24   26 1
    29   26   27 1
    30    5   28 1
    31    6   29 1
    32    7   30 1
    33    9   31 1
    34   11   32 1
    35   11   33 1
    36   14   34 1
    37   14   35 1
    38   15   36 1
    39   16   37 1
    40   16   38 1
    41   17   39 1
    42   17   40 1
    43   19   41 1
    44   20   42 1
    45   20   43 1
    46   21   44 1
    47   21   45 1
    48   22   46 1
    49   22   47 1
    50   23   48 1
    51   23   49 1
    52   24   50 1
    53   24   51 1
    54   25   52 1
    55   26   53 1
    56   27   54 1
    57   27   55 1
    58   27   56 1
@<TRIPOS>PROPERTY_DATA
  Total_Score	| 8.4604
  Crash		| -3.0622
  Polar		| 3.9234
  FragIndex	| 1
  FragRMSD	| 1.213

