@<TRIPOS>MOLECULE
BindingDB_26550
 37 37 0 0 0
SMALL
NO_CHARGES


@<TRIPOS>ATOM
1    C        40.2298   31.8293    1.9175  C     
2    C        39.7750   32.8860    2.8157  C     
3    O        38.9967   33.7272    2.4075  O     
4    N        40.1886   33.0325    4.0680  N     
5    O        41.1686   32.3540    4.5928  O     
6    N        41.6405   31.5163    1.9772  N     
7    C        42.6552   32.5454    1.9863  C     
8    S        42.1665   29.9671    1.5205  S     
9    O        42.6814   30.0073    0.0163  O     
10   O        41.0005   28.8800    1.5074  O     
11   C        43.4349   29.3584    2.5481  C     
12   C        44.7445   29.8817    2.4487  C     
13   C        43.1637   28.3809    3.5295  C     
14   C        44.1904   27.9172    4.3781  C     
15   C        45.4957   28.4403    4.2784  C     
16   C        45.7613   29.4363    3.3086  C     
17   O        46.4321   28.0217    5.1871  O     
18   C        47.6503   27.4166    4.7033  C     
19   C        47.4657   26.1746    4.1603  C     
20   C        47.3099   25.0918    3.6736  C     
21   C        47.1321   23.8666    3.1075  C     
22   H        39.6278   30.9562    2.1808  H     
23   H        39.9949   32.0780    0.8768  H     
24   H        39.8290   33.7664    4.5854  H     
25   H        40.7475   31.7002    5.1996  H     
26   H        43.0920   32.6686    0.9909  H     
27   H        43.4372   32.2728    2.7024  H     
28   H        42.2701   33.5201    2.2941  H     
29   H        44.9638   30.5997    1.7466  H     
30   H        42.2256   27.9914    3.6331  H     
31   H        43.9758   27.2144    5.0867  H     
32   H        46.6952   29.8510    3.2351  H     
33   H        48.1558   28.0537    3.9749  H     
34   H        48.3141   27.3086    5.5594  H     
35   H        47.8635   23.7227    2.3115  H     
36   H        46.1296   23.8071    2.6880  H     
37   H        47.2578   23.0895    3.8603  H     
@<TRIPOS>BOND
     1    1    2 1
     2    1    6 1
     3    2    3 2
     4    2    4 am
     5    4    5 1
     6    6    7 1
     7    6    8 1
     8    8    9 2
     9    8   10 2
    10    8   11 1
    11   11   12 2
    12   11   13 1
    13   12   16 1
    14   13   14 2
    15   14   15 1
    16   15   16 2
    17   15   17 1
    18   17   18 1
    19   18   19 1
    20   19   20 3
    21   20   21 1
    22    1   22 1
    23    1   23 1
    24    4   24 1
    25    5   25 1
    26    7   26 1
    27    7   27 1
    28    7   28 1
    29   12   29 1
    30   13   30 1
    31   14   31 1
    32   16   32 1
    33   18   33 1
    34   18   34 1
    35   21   35 1
    36   21   36 1
    37   21   37 1
@<TRIPOS>PROPERTY_DATA
  Total_Score	| 8.4784
  Crash		| -1.2670
  Polar		| 5.1045
  FragIndex	| 1
  FragRMSD	| 0.647

