@<TRIPOS>MOLECULE
BindingDB_26549
 38 39 0 0 0
SMALL
NO_CHARGES


@<TRIPOS>ATOM
1    S        42.0631   29.8141    1.4300  S     
2    O        41.1155   28.5428    1.4948  O     
3    O        42.3606   30.1364   -0.1011  O     
4    C        43.5723   29.4587    2.2306  C     
5    C        43.5833   28.8788    3.5218  C     
6    C        44.7970   29.7908    1.6238  C     
7    C        46.0117   29.4985    2.2727  C     
8    C        46.0352   28.8803    3.5381  C     
9    C        44.8023   28.5819    4.1593  C     
10   C        47.6097   27.5594    4.9761  C     
11   C        47.4916   26.3301    4.3928  C     
12   C        47.3692   25.2676    3.8527  C     
13   C        41.5392   31.5768    3.4463  C     
14   C        40.7134   32.8769    3.5564  C     
15   C        39.5187   32.5934    2.6284  C     
16   C        40.1473   31.7515    1.5028  C     
17   N        41.2588   31.1230    2.1276  N     
18   S        40.2289   33.4025    5.2289  S     
19   C        47.2363   24.0733    3.2056  C     
20   N        47.2632   28.5961    4.0576  N     
21   H        42.7035   28.6608    3.9951  H     
22   H        44.8205   30.2412    0.7097  H     
23   H        46.8884   29.7175    1.7862  H     
24   H        44.7709   28.1300    5.0721  H     
25   H        46.9874   27.6071    5.8697  H     
26   H        48.6514   27.6932    5.2766  H     
27   H        42.6097   31.7744    3.5935  H     
28   H        41.2033   30.8148    4.1666  H     
29   H        41.2969   33.7017    3.1300  H     
30   H        38.7622   31.9969    3.1569  H     
31   H        39.0676   33.5175    2.2553  H     
32   H        39.4202   31.0323    1.1116  H     
33   H        40.5048   32.3958    0.6907  H     
34   H        40.3904   32.1759    5.8373  H     
35   H        47.3409   23.2525    3.9182  H     
36   H        48.0098   23.9807    2.4375  H     
37   H        46.2537   24.0259    2.7343  H     
38   H        48.0004   29.1406    3.7333  H     
@<TRIPOS>BOND
     1    1    2 2
     2    1    3 2
     3    1    4 1
     4    1   17 1
     5    4    5 2
     6    4    6 1
     7    5    9 1
     8    6    7 2
     9    7    8 1
    10    8    9 2
    11    8   20 1
    12   10   11 1
    13   10   20 1
    14   11   12 3
    15   12   19 1
    16   13   14 1
    17   13   17 1
    18   14   15 1
    19   14   18 1
    20   15   16 1
    21   16   17 1
    22    5   21 1
    23    6   22 1
    24    7   23 1
    25    9   24 1
    26   10   25 1
    27   10   26 1
    28   13   27 1
    29   13   28 1
    30   14   29 1
    31   15   30 1
    32   15   31 1
    33   16   32 1
    34   16   33 1
    35   18   34 1
    36   19   35 1
    37   19   36 1
    38   19   37 1
    39   20   38 1
@<TRIPOS>PROPERTY_DATA
  Total_Score	| 8.0133
  Crash		| -1.6781
  Polar		| 4.1798
  FragIndex	| 1
  FragRMSD	| 0.661

