@<TRIPOS>MOLECULE
BindingDB_26545
 40 41 0 0 0
SMALL
NO_CHARGES


@<TRIPOS>ATOM
1    S        42.2984   29.6626    1.2124  S     
2    O        41.2138   28.5319    1.5029  O     
3    O        42.6531   29.6031   -0.3380  O     
4    C        43.7358   29.3286    2.1269  C     
5    C        43.6057   28.8956    3.4618  C     
6    C        45.0334   29.4886    1.5839  C     
7    C        46.1685   29.1643    2.3496  C     
8    C        46.0279   28.6891    3.6652  C     
9    C        44.7419   28.5988    4.2309  C     
10   C        47.0489   27.1663    5.1916  C     
11   C        47.0340   26.0462    4.4158  C     
12   C        47.0747   25.0365    3.7799  C     
13   C        47.1772   23.8696    3.0820  C     
14   O        47.1368   28.3696    4.4001  O     
15   C        41.4935   31.4788    3.0288  C     
16   C        40.7866   32.8337    3.2927  C     
17   C        39.4503   32.8398    2.5068  C     
18   C        39.6608   32.5975    0.9818  C     
19   C        41.0428   31.9951    0.5987  C     
20   N        41.5900   31.1443    1.6269  N     
21   S        40.5539   33.1779    5.0570  S     
22   H        42.6838   28.7918    3.8843  H     
23   H        45.1597   29.8442    0.6350  H     
24   H        47.1030   29.2615    1.9414  H     
25   H        44.6249   28.2936    5.2016  H     
26   H        46.1773   27.1350    5.8618  H     
27   H        47.9465   27.1155    5.8020  H     
28   H        46.2567   23.6719    2.5288  H     
29   H        47.3678   23.0502    3.7780  H     
30   H        48.0097   23.9478    2.3810  H     
31   H        42.4909   31.5075    3.4787  H     
32   H        40.9226   30.6851    3.5184  H     
33   H        41.4122   33.6436    2.9052  H     
34   H        38.8121   32.0437    2.9101  H     
35   H        38.9334   33.7902    2.6599  H     
36   H        38.8700   31.9278    0.6271  H     
37   H        39.5449   33.5443    0.4486  H     
38   H        40.9312   31.4680   -0.3519  H     
39   H        41.7568   32.8054    0.4356  H     
40   H        40.5822   31.8797    5.4810  H     
@<TRIPOS>BOND
     1    1    2 2
     2    1    3 2
     3    1    4 1
     4    1   20 1
     5    4    5 2
     6    4    6 1
     7    5    9 1
     8    6    7 2
     9    7    8 1
    10    8    9 2
    11    8   14 1
    12   10   11 1
    13   10   14 1
    14   11   12 3
    15   12   13 1
    16   15   16 1
    17   15   20 1
    18   16   17 1
    19   16   21 1
    20   17   18 1
    21   18   19 1
    22   19   20 1
    23    5   22 1
    24    6   23 1
    25    7   24 1
    26    9   25 1
    27   10   26 1
    28   10   27 1
    29   13   28 1
    30   13   29 1
    31   13   30 1
    32   15   31 1
    33   15   32 1
    34   16   33 1
    35   17   34 1
    36   17   35 1
    37   18   36 1
    38   18   37 1
    39   19   38 1
    40   19   39 1
    41   21   40 1
@<TRIPOS>PROPERTY_DATA
  Total_Score	| 6.7151
  Crash		| -1.8292
  Polar		| 3.2626
  FragIndex	| 1
  FragRMSD	| 0.766

