@<TRIPOS>MOLECULE
BindingDB_26548
 35 36 0 0 0
SMALL
NO_CHARGES


@<TRIPOS>ATOM
1    S        42.0153   29.9008    1.6509  S     
2    O        40.9959   28.6854    1.5085  O     
3    O        42.4232   30.4288    0.1980  O     
4    C        43.4457   29.4303    2.5142  C     
5    C        43.4071   28.3485    3.4418  C     
6    C        44.6552   30.1378    2.3610  C     
7    C        45.8101   29.7402    3.0455  C     
8    C        45.7912   28.6413    3.9456  C     
9    C        44.5615   27.9674    4.1353  C     
10   C        47.2510   27.1347    5.3344  C     
11   C        47.2102   25.9847    4.6037  C     
12   C        47.1861   24.9785    3.9414  C     
13   C        47.1525   23.8517    3.1753  C     
14   N        46.9651   28.2687    4.5022  N     
15   C        40.3308   32.1310    1.9716  C     
16   C        40.1279   32.5113    3.4552  C     
17   C        41.1527   31.4166    3.8373  C     
18   N        41.2469   31.1717    2.4527  N     
19   S        40.5881   34.2038    3.9014  S     
20   H        42.5419   27.8216    3.5736  H     
21   H        44.7047   30.9259    1.7187  H     
22   H        46.6868   30.2513    2.8891  H     
23   H        44.5168   27.1471    4.7406  H     
24   H        46.5474   27.0665    6.1616  H     
25   H        48.2503   27.2616    5.7488  H     
26   H        47.9475   23.8822    2.4281  H     
27   H        46.1921   23.8097    2.6624  H     
28   H        47.2629   22.9614    3.7981  H     
29   H        47.7317   28.8311    4.2956  H     
30   H        39.4478   31.6904    1.5012  H     
31   H        40.8245   32.8864    1.3521  H     
32   H        39.1192   32.2653    3.7985  H     
33   H        42.0926   31.7761    4.2496  H     
34   H        40.7115   30.5907    4.4037  H     
35   H        40.4721   33.9609    5.2381  H     
@<TRIPOS>BOND
     1    1    2 2
     2    1    3 2
     3    1    4 1
     4    1   18 1
     5    4    5 2
     6    4    6 1
     7    5    9 1
     8    6    7 2
     9    7    8 1
    10    8    9 2
    11    8   14 1
    12   10   11 1
    13   10   14 1
    14   11   12 3
    15   12   13 1
    16   15   16 1
    17   15   18 1
    18   16   17 1
    19   16   19 1
    20   17   18 1
    21    5   20 1
    22    6   21 1
    23    7   22 1
    24    9   23 1
    25   10   24 1
    26   10   25 1
    27   13   26 1
    28   13   27 1
    29   13   28 1
    30   14   29 1
    31   15   30 1
    32   15   31 1
    33   16   32 1
    34   17   33 1
    35   17   34 1
    36   19   35 1
@<TRIPOS>PROPERTY_DATA
  Total_Score	| 6.4157
  Crash		| -1.4609
  Polar		| 2.1205
  FragIndex	| 1
  FragRMSD	| 0.408

