@<TRIPOS>MOLECULE
BindingDB_16038
 73 75 0 0 0
SMALL
NO_CHARGES


@<TRIPOS>ATOM
1    C        31.5817   45.3581    7.2680  C     
2    C        31.5036   46.7587    7.3690  C     
3    C        31.9729   47.5605    6.3121  C     
4    C        32.5260   46.9612    5.1641  C     
5    C        32.1332   44.7628    6.1177  C     
6    C        32.6245   45.5519    5.0483  C     
7    C        33.1957   44.9218    3.8151  C     
8    C        34.3926   43.9815    4.1197  C     
9    N        32.1700   44.1977    3.1138  N     
10   C        31.3245   44.6949    2.2051  C     
11   O        31.4095   45.8905    1.9197  O     
12   C        30.2930   43.9332    1.6489  C     
13   C        28.0358   43.8335    0.6150  C     
14   C        29.1151   44.5625    1.1627  C     
15   C        30.3775   42.5188    1.5252  C     
16   C        29.3235   41.7556    0.9662  C     
17   C        28.1595   42.4311    0.5362  C     
18   N        26.9041   44.4746    0.1598  N     
19   C        26.4843   44.3211   -1.2068  C     
20   C        26.4220   47.2727    0.9138  C     
21   S        26.0437   45.5289    1.1726  S     
22   O        24.4781   45.2896    1.0061  O     
23   O        26.3434   45.1506    2.6877  O     
24   F        30.9987   47.3128    8.4388  F     
25   C        29.3894   40.2800    0.7567  C     
26   O        30.5878   39.5813    1.1543  O     
27   C        30.7512   39.2359    2.5450  C     
28   C        31.3638   37.8042    2.7150  C     
29   C        32.8392   37.6071    2.1641  C     
30   C        33.5476   38.8075    1.6372  C     
31   C        33.4014   39.1900    0.2819  C     
32   C        34.0704   40.3195   -0.2248  C     
33   C        34.9127   41.0702    0.6092  C     
34   C        35.0829   40.6925    1.9551  C     
35   C        34.3995   39.5739    2.4665  C     
36   N        31.3929   37.5714    4.1744  N     
37   C        30.4113   36.7214    2.1059  C     
38   O        29.0205   36.9756    2.3080  O     
39   H        31.2347   44.7688    8.0287  H     
40   H        31.9064   48.5800    6.3729  H     
41   H        32.8514   47.5662    4.4074  H     
42   H        32.1734   43.7429    6.0673  H     
43   H        33.6101   45.6967    3.1590  H     
44   H        35.1942   44.5326    4.6219  H     
45   H        34.7866   43.5777    3.1832  H     
46   H        34.0889   43.1457    4.7553  H     
47   H        32.0087   43.2842    3.4061  H     
48   H        29.0300   45.5813    1.2158  H     
49   H        31.2315   42.0439    1.8135  H     
50   H        27.3807   41.8883    0.1484  H     
51   H        27.3085   44.5771   -1.8774  H     
52   H        25.6407   44.9672   -1.4624  H     
53   H        26.1802   43.2896   -1.3986  H     
54   H        27.4690   47.4649    1.1492  H     
55   H        25.7926   47.8834    1.5612  H     
56   H        26.2312   47.5386   -0.1270  H     
57   H        28.5097   39.8134    1.2172  H     
58   H        29.3014   40.1101   -0.3205  H     
59   H        31.4046   39.9744    3.0094  H     
60   H        29.7997   39.2751    3.0827  H     
61   H        33.4650   37.1623    2.9450  H     
62   H        32.8542   36.8562    1.3653  H     
63   H        32.7977   38.6520   -0.3448  H     
64   H        33.9481   40.5919   -1.2023  H     
65   H        35.4093   41.8855    0.2409  H     
66   H        35.7022   41.2341    2.5557  H     
67   H        34.5268   39.3238    3.4508  H     
68   H        31.9890   38.2733    4.6092  H     
69   H        31.7780   36.6524    4.3949  H     
70   H        30.4543   37.6453    4.5668  H     
71   H        30.5629   36.6550    1.0275  H     
72   H        30.6416   35.7413    2.5329  H     
73   H        28.9223   37.2749    3.2359  H     
@<TRIPOS>BOND
     1    1    2 2
     2    1    5 1
     3    2    3 1
     4    2   24 1
     5    3    4 2
     6    4    6 1
     7    5    6 2
     8    6    7 1
     9    7    8 1
    10    7    9 1
    11    9   10 am
    12   10   11 2
    13   10   12 1
    14   12   14 2
    15   12   15 1
    16   13   14 1
    17   13   17 2
    18   13   18 1
    19   15   16 2
    20   16   17 1
    21   16   25 1
    22   18   19 1
    23   18   21 1
    24   20   21 1
    25   21   22 2
    26   21   23 2
    27   25   26 1
    28   26   27 1
    29   27   28 1
    30   28   29 1
    31   28   36 1
    32   28   37 1
    33   29   30 1
    34   30   31 2
    35   30   35 1
    36   31   32 1
    37   32   33 2
    38   33   34 1
    39   34   35 2
    40   37   38 1
    41    1   39 1
    42    3   40 1
    43    4   41 1
    44    5   42 1
    45    7   43 1
    46    8   44 1
    47    8   45 1
    48    8   46 1
    49    9   47 1
    50   14   48 1
    51   15   49 1
    52   17   50 1
    53   19   51 1
    54   19   52 1
    55   19   53 1
    56   20   54 1
    57   20   55 1
    58   20   56 1
    59   25   57 1
    60   25   58 1
    61   27   59 1
    62   27   60 1
    63   29   61 1
    64   29   62 1
    65   31   63 1
    66   32   64 1
    67   33   65 1
    68   34   66 1
    69   35   67 1
    70   36   68 1
    71   36   69 1
    72   36   70 1
    73   37   71 1
    74   37   72 1
    75   38   73 1
@<TRIPOS>PROPERTY_DATA
  Total_Score	| 17.1822
  Crash		| -2.0137
  Polar		| 8.6456
  FragIndex	| 1
  FragRMSD	| 0.479

