@<TRIPOS>MOLECULE
BindingDB_16037
 71 73 0 0 0
SMALL
NO_CHARGES


@<TRIPOS>ATOM
1    C        31.8771   47.7207    6.4356  C     
2    C        31.5386   46.8943    7.5210  C     
3    C        31.7541   45.5028    7.4259  C     
4    C        32.3313   44.9526    6.2655  C     
5    C        32.4318   47.1670    5.2655  C     
6    C        32.6861   45.7727    5.1612  C     
7    C        33.2795   45.1918    3.9128  C     
8    C        34.5112   44.2828    4.1695  C     
9    N        32.2785   44.4511    3.1959  N     
10   C        31.3950   44.9365    2.3172  C     
11   O        31.3839   46.1450    2.0912  O     
12   C        30.4420   44.1153    1.6787  C     
13   C        28.2382   43.8446    0.5649  C     
14   C        29.2376   44.6572    1.1611  C     
15   C        30.6459   42.7174    1.5476  C     
16   C        29.6847   41.8650    0.9391  C     
17   C        28.4918   42.4483    0.4436  C     
18   N        27.0304   44.3925    0.1497  N     
19   C        26.4701   44.0632   -1.1299  C     
20   C        26.4879   47.1817    0.9126  C     
21   S        26.1610   45.4321    1.1726  S     
22   O        24.5975   45.1971    0.9916  O     
23   O        26.4127   45.0871    2.7045  O     
24   F        30.9963   47.4146    8.5898  F     
25   C        29.9175   40.4987    0.8561  C     
26   O        29.5835   39.8854   -0.1471  O     
27   N        30.5518   39.8940    1.8548  N     
28   C        31.4882   38.4055    3.4839  C     
29   O        30.6175   39.1585    4.3278  O     
30   C        30.0777   37.4155    1.6080  C     
31   O        29.4145   36.8305    2.7217  O     
32   C        31.1065   38.5555    1.9678  C     
33   C        32.3685   38.3859    1.0274  C     
34   C        33.3029   39.5544    0.9496  C     
35   C        33.1371   40.5359   -0.0578  C     
36   C        33.9861   41.6565   -0.1405  C     
37   C        35.0204   41.8133    0.7982  C     
38   C        35.2262   40.8310    1.7820  C     
39   C        34.3881   39.7025    1.8515  C     
40   H        31.6959   48.7289    6.4789  H     
41   H        31.5126   44.8958    8.2133  H     
42   H        32.4554   43.9356    6.2219  H     
43   H        32.6536   47.7886    4.4844  H     
44   H        33.6495   45.9996    3.2718  H     
45   H        35.2720   44.8240    4.7392  H     
46   H        34.9509   43.9924    3.1996  H     
47   H        34.2328   43.3751    4.7002  H     
48   H        32.1821   43.5043    3.4310  H     
49   H        29.0762   45.6651    1.2262  H     
50   H        31.5421   42.3099    1.8749  H     
51   H        27.7763   41.8486    0.0252  H     
52   H        27.2407   44.1167   -1.9076  H     
53   H        25.6645   44.7563   -1.4070  H     
54   H        26.0496   43.0569   -1.1011  H     
55   H        27.5281   47.3953    1.1345  H     
56   H        25.8546   47.7776    1.5656  H     
57   H        26.2803   47.4394   -0.1250  H     
58   H        30.7371   40.4680    2.6132  H     
59   H        32.5097   38.7572    3.6536  H     
60   H        31.4612   37.3502    3.7945  H     
61   H        30.6695   38.7238    5.1907  H     
62   H        30.5900   36.5957    1.1051  H     
63   H        29.2977   37.7719    0.9385  H     
64   H        29.1443   37.5897    3.3047  H     
65   H        32.9265   37.4944    1.3382  H     
66   H        32.0236   38.1918    0.0068  H     
67   H        32.3815   40.4494   -0.7439  H     
68   H        33.8181   42.3746   -0.8494  H     
69   H        35.6331   42.6293    0.7496  H     
70   H        35.9944   40.9356    2.4536  H     
71   H        34.5594   38.9986    2.5774  H     
@<TRIPOS>BOND
     1    1    2 2
     2    1    5 1
     3    2    3 1
     4    2   24 1
     5    3    4 2
     6    4    6 1
     7    5    6 2
     8    6    7 1
     9    7    8 1
    10    7    9 1
    11    9   10 am
    12   10   11 2
    13   10   12 1
    14   12   14 2
    15   12   15 1
    16   13   14 1
    17   13   17 2
    18   13   18 1
    19   15   16 2
    20   16   17 1
    21   16   25 1
    22   18   19 1
    23   18   21 1
    24   20   21 1
    25   21   22 2
    26   21   23 2
    27   25   26 2
    28   25   27 am
    29   27   32 1
    30   28   29 1
    31   28   32 1
    32   30   31 1
    33   30   32 1
    34   32   33 1
    35   33   34 1
    36   34   35 1
    37   34   39 2
    38   35   36 2
    39   36   37 1
    40   37   38 2
    41   38   39 1
    42    1   40 1
    43    3   41 1
    44    4   42 1
    45    5   43 1
    46    7   44 1
    47    8   45 1
    48    8   46 1
    49    8   47 1
    50    9   48 1
    51   14   49 1
    52   15   50 1
    53   17   51 1
    54   19   52 1
    55   19   53 1
    56   19   54 1
    57   20   55 1
    58   20   56 1
    59   20   57 1
    60   27   58 1
    61   28   59 1
    62   28   60 1
    63   29   61 1
    64   30   62 1
    65   30   63 1
    66   31   64 1
    67   33   65 1
    68   33   66 1
    69   35   67 1
    70   36   68 1
    71   37   69 1
    72   38   70 1
    73   39   71 1
@<TRIPOS>PROPERTY_DATA
  Total_Score	| 13.6976
  Crash		| -3.0104
  Polar		| 6.8953
  FragIndex	| 1
  FragRMSD	| 0.575

