@<TRIPOS>MOLECULE
BindingDB_16411
 79 81 0 0 0
SMALL
NO_CHARGES


@<TRIPOS>ATOM
1    C        28.4328   43.4431    0.6542  C     
2    C        29.3723   44.2851    1.2915  C     
3    C        30.5662   43.7894    1.8856  C     
4    C        30.7921   42.3842    1.8117  C     
5    C        29.9108   41.4974    1.1298  C     
6    C        28.7483   42.0632    0.5257  C     
7    C        31.4894   44.6629    2.4957  C     
8    O        31.3118   45.8822    2.3858  O     
9    N        32.4765   44.2567    3.2940  N     
10   C        33.4312   45.0998    3.9633  C     
11   C        30.1847   40.1166    1.0362  C     
12   O        29.8235   39.5486    0.0156  O     
13   N        30.8560   39.4480    1.9717  N     
14   C        31.3804   38.0932    1.9029  C     
15   C        29.3438   36.5409    2.5041  C     
16   C        32.9321   38.1921    2.0685  C     
17   C        30.7259   37.1149    2.9429  C     
18   O        31.5943   35.9930    3.1899  O     
19   N        27.2404   43.9687    0.1495  N     
20   C        26.5421   46.8109    0.6560  C     
21   S        26.3426   45.0734    1.0805  S     
22   O        24.7790   44.7575    0.9355  O     
23   O        26.5835   44.9067    2.6455  O     
24   C        34.7265   44.3092    4.2825  C     
25   C        33.5995   39.3955    1.5013  C     
26   C        34.4251   40.2169    2.3132  C     
27   C        35.0860   41.3436    1.7775  C     
28   C        34.9343   41.6731    0.4198  C     
29   C        34.1410   40.8575   -0.4075  C     
30   C        33.5057   39.7084    0.1225  C     
31   C        32.8054   45.7080    5.1834  C     
32   C        32.5817   47.1064    5.2639  C     
33   C        32.4077   44.9047    6.2804  C     
34   C        31.8044   45.4761    7.4154  C     
35   C        31.5942   46.8657    7.4798  C     
36   C        31.9775   47.6795    6.3993  C     
37   F        31.0347   47.3996    8.5342  F     
38   N        28.3244   37.6030    2.2883  N     
39   C        27.0240   37.1484    1.7625  C     
40   C        26.1427   38.3700    1.4164  C     
41   C        26.7144   43.5522   -1.1183  C     
42   H        29.1725   45.2967    1.3228  H     
43   H        31.6568   41.9963    2.1993  H     
44   H        28.0870   41.4753    0.0149  H     
45   H        32.5410   43.2965    3.4621  H     
46   H        33.7449   45.8855    3.2722  H     
47   H        31.0326   39.9426    2.7936  H     
48   H        31.2065   37.6771    0.9074  H     
49   H        29.4853   35.9247    1.6039  H     
50   H        28.9739   35.8852    3.2999  H     
51   H        33.1582   38.1189    3.1359  H     
52   H        33.3953   37.3146    1.6028  H     
53   H        30.5975   37.6403    3.8932  H     
54   H        31.8725   36.0697    4.1351  H     
55   H        27.5779   47.1091    0.8388  H     
56   H        25.8768   47.4296    1.2702  H     
57   H        26.3053   46.9777   -0.4012  H     
58   H        34.5162   43.4248    4.8863  H     
59   H        35.4390   44.9406    4.8139  H     
60   H        35.1907   43.9865    3.3454  H     
61   H        34.5391   40.0211    3.3067  H     
62   H        35.6840   41.9223    2.3765  H     
63   H        35.4190   42.4767    0.0267  H     
64   H        34.0263   41.0961   -1.3972  H     
65   H        32.9524   39.1228   -0.5061  H     
66   H        32.8416   47.7167    4.4884  H     
67   H        32.5322   43.8910    6.2469  H     
68   H        31.5187   44.8782    8.1950  H     
69   H        31.8081   48.6903    6.4302  H     
70   H        28.1830   38.0759    3.1872  H     
71   H        28.7144   38.2901    1.6401  H     
72   H        27.1871   36.5582    0.8539  H     
73   H        26.5102   36.5251    2.5126  H     
74   H        25.8056   38.8861    2.3324  H     
75   H        25.2716   38.0313    0.8406  H     
76   H        26.7144   39.0802    0.8047  H     
77   H        27.4938   43.6380   -1.8890  H     
78   H        25.8523   44.1719   -1.4281  H     
79   H        26.3945   42.5031   -1.0354  H     
@<TRIPOS>BOND
     1    1    2 1
     2    1    6 2
     3    1   19 1
     4    2    3 2
     5    3    4 1
     6    3    7 1
     7    4    5 2
     8    5    6 1
     9    5   11 1
    10    7    8 2
    11    7    9 am
    12    9   10 1
    13   10   24 1
    14   10   31 1
    15   11   12 2
    16   11   13 am
    17   13   14 1
    18   14   16 1
    19   14   17 1
    20   15   17 1
    21   15   38 1
    22   16   25 1
    23   17   18 1
    24   19   21 1
    25   19   41 1
    26   20   21 1
    27   21   22 2
    28   21   23 2
    29   25   26 2
    30   25   30 1
    31   26   27 1
    32   27   28 2
    33   28   29 1
    34   29   30 2
    35   31   32 1
    36   31   33 2
    37   32   36 2
    38   33   34 1
    39   34   35 2
    40   35   36 1
    41   35   37 1
    42   38   39 1
    43   39   40 1
    44    2   42 1
    45    4   43 1
    46    6   44 1
    47    9   45 1
    48   10   46 1
    49   13   47 1
    50   14   48 1
    51   15   49 1
    52   15   50 1
    53   16   51 1
    54   16   52 1
    55   17   53 1
    56   18   54 1
    57   20   55 1
    58   20   56 1
    59   20   57 1
    60   24   58 1
    61   24   59 1
    62   24   60 1
    63   26   61 1
    64   27   62 1
    65   28   63 1
    66   29   64 1
    67   30   65 1
    68   32   66 1
    69   33   67 1
    70   34   68 1
    71   36   69 1
    72   38   70 1
    73   38   71 1
    74   39   72 1
    75   39   73 1
    76   40   74 1
    77   40   75 1
    78   40   76 1
    79   41   77 1
    80   41   78 1
    81   41   79 1
@<TRIPOS>PROPERTY_DATA
  Total_Score	| 15.2810
  Crash		| -2.0465
  Polar		| 6.4729
  FragIndex	| 1
  FragRMSD	| 0.631

