@<TRIPOS>MOLECULE
BindingDB_16697
 85 87 0 0 0
SMALL
NO_CHARGES


@<TRIPOS>ATOM
1    C        31.7229   47.8534    6.4312  C     
2    C        31.4073   46.9888    7.4931  C     
3    C        31.6913   45.6153    7.3762  C     
4    C        32.3019   45.1158    6.2110  C     
5    C        32.6471   45.9754    5.1408  C     
6    C        32.3329   47.3513    5.2664  C     
7    C        33.2814   45.4431    3.8939  C     
8    F        30.8484   47.4561    8.5753  F     
9    C        34.5195   44.5538    4.1788  C     
10   N        32.3054   44.6855    3.1555  N     
11   C        31.4970   45.1296    2.1950  C     
12   O        31.5571   46.3054    1.8532  O     
13   C        30.5138   44.3040    1.6355  C     
14   C        28.2743   44.0029    0.6337  C     
15   C        29.2906   44.8330    1.1616  C     
16   C        30.7135   42.9062    1.5212  C     
17   C        29.7392   42.0315    0.9626  C     
18   C        28.5170   42.6127    0.5448  C     
19   N        27.0758   44.5379    0.2152  N     
20   C        26.5675   44.2789   -1.1065  C     
21   C        26.5782   47.2900    1.0542  C     
22   S        26.1882   45.5420    1.2534  S     
23   O        24.6268   45.3036    1.0562  O     
24   O        26.4685   45.1087    2.7598  O     
25   C        30.0021   40.6647    0.7796  C     
26   O        29.1865   39.9535    0.1926  O     
27   N        31.1220   40.0986    1.2199  N     
28   C        31.6545   38.7910    0.9444  C     
29   C        33.1091   38.8974    0.3658  C     
30   C        33.7971   40.2185    0.4880  C     
31   C        33.8119   41.1081   -0.6115  C     
32   C        34.4897   40.5792    1.6690  C     
33   C        35.2195   41.7804    1.7221  C     
34   C        35.2653   42.6320    0.6030  C     
35   C        34.5465   42.3046   -0.5565  C     
36   C        31.5254   37.9247    2.2326  C     
37   N        30.0933   37.6134    2.4880  N     
38   C        29.5554   36.3342    1.9432  C     
39   C        28.0958   36.3465    1.7779  C     
40   O        27.6333   35.7169    0.8291  O     
41   N        27.2790   36.9638    2.6192  N     
42   C        25.8416   36.8959    2.6150  C     
43   C        25.1739   37.1858    1.2545  C     
44   C        29.9709   35.1552    2.8663  C     
45   H        31.4988   48.8499    6.4988  H     
46   H        31.4504   44.9739    8.1357  H     
47   H        32.4861   44.1117    6.1469  H     
48   H        32.5307   47.9982    4.5019  H     
49   H        33.6530   46.2731    3.2802  H     
50   H        35.2318   45.0794    4.8187  H     
51   H        35.0226   44.3122    3.2400  H     
52   H        34.2329   43.6207    4.6657  H     
53   H        32.1467   43.7815    3.4726  H     
54   H        29.1164   45.8397    1.2155  H     
55   H        31.6134   42.5248    1.8196  H     
56   H        27.7732   42.0201    0.1599  H     
57   H        27.3354   44.4977   -1.8522  H     
58   H        25.6963   44.8967   -1.3436  H     
59   H        26.2691   43.2325   -1.1977  H     
60   H        27.6233   47.4568    1.3195  H     
61   H        25.9393   47.8849    1.7066  H     
62   H        26.4133   47.5863    0.0160  H     
63   H        31.6868   40.6521    1.7807  H     
64   H        31.0494   38.3030    0.1732  H     
65   H        33.7393   38.1147    0.8018  H     
66   H        33.0672   38.6498   -0.7028  H     
67   H        33.2995   40.8857   -1.4680  H     
68   H        34.4768   39.9659    2.4840  H     
69   H        35.7316   42.0264    2.5686  H     
70   H        35.8185   43.4901    0.6296  H     
71   H        34.5688   42.9273   -1.3670  H     
72   H        32.0961   36.9886    2.1358  H     
73   H        31.9299   38.4688    3.0874  H     
74   H        29.9249   37.6321    3.4924  H     
75   H        29.5533   38.3810    2.0764  H     
76   H        29.9918   36.1625    0.9509  H     
77   H        27.6792   37.4638    3.3563  H     
78   H        25.5311   35.9083    2.9729  H     
79   H        25.4920   37.6406    3.3293  H     
80   H        25.5328   38.1358    0.8556  H     
81   H        24.0920   37.2425    1.3923  H     
82   H        25.3875   36.3876    0.5429  H     
83   H        31.0597   35.0966    2.9209  H     
84   H        29.5925   34.2045    2.4756  H     
85   H        29.5691   35.3140    3.8732  H     
@<TRIPOS>BOND
     1    1    2 2
     2    1    6 1
     3    2    3 1
     4    2    8 1
     5    3    4 2
     6    4    5 1
     7    5    6 2
     8    5    7 1
     9    7    9 1
    10    7   10 1
    11   10   11 am
    12   11   12 2
    13   11   13 1
    14   13   15 2
    15   13   16 1
    16   14   15 1
    17   14   18 2
    18   14   19 1
    19   16   17 2
    20   17   18 1
    21   17   25 1
    22   19   20 1
    23   19   22 1
    24   21   22 1
    25   22   23 2
    26   22   24 2
    27   25   26 2
    28   25   27 am
    29   27   28 1
    30   28   29 1
    31   28   36 1
    32   29   30 1
    33   30   31 1
    34   30   32 2
    35   31   35 2
    36   32   33 1
    37   33   34 2
    38   34   35 1
    39   36   37 1
    40   37   38 1
    41   38   39 1
    42   38   44 1
    43   39   40 2
    44   39   41 am
    45   41   42 1
    46   42   43 1
    47    1   45 1
    48    3   46 1
    49    4   47 1
    50    6   48 1
    51    7   49 1
    52    9   50 1
    53    9   51 1
    54    9   52 1
    55   10   53 1
    56   15   54 1
    57   16   55 1
    58   18   56 1
    59   20   57 1
    60   20   58 1
    61   20   59 1
    62   21   60 1
    63   21   61 1
    64   21   62 1
    65   27   63 1
    66   28   64 1
    67   29   65 1
    68   29   66 1
    69   31   67 1
    70   32   68 1
    71   33   69 1
    72   34   70 1
    73   35   71 1
    74   36   72 1
    75   36   73 1
    76   37   74 1
    77   37   75 1
    78   38   76 1
    79   41   77 1
    80   42   78 1
    81   42   79 1
    82   43   80 1
    83   43   81 1
    84   43   82 1
    85   44   83 1
    86   44   84 1
    87   44   85 1
@<TRIPOS>PROPERTY_DATA
  Total_Score	| 14.7894
  Crash		| -3.1304
  Polar		| 5.5992
  FragIndex	| 1
  FragRMSD	| 0.593

