@<TRIPOS>MOLECULE
BindingDB_16041
 70 73 0 0 0
SMALL
NO_CHARGES


@<TRIPOS>ATOM
1    C        31.9288   45.4852    7.5203  C     
2    C        31.7471   46.8715    7.6607  C     
3    C        32.0495   47.7298    6.5887  C     
4    C        32.5391   47.1999    5.3821  C     
5    C        32.4144   44.9538    6.3045  C     
6    C        32.7315   45.8052    5.2162  C     
7    C        33.2228   45.2659    3.9059  C     
8    C        34.4928   44.3888    4.0399  C     
9    N        32.1727   44.5090    3.2804  N     
10   C        31.4164   44.8728    2.2480  C     
11   O        31.5760   45.9746    1.7391  O     
12   C        30.3760   44.0521    1.7836  C     
13   C        28.1425   43.7960    0.7571  C     
14   C        29.2193   44.6065    1.1795  C     
15   C        30.4416   42.6446    1.9162  C     
16   C        29.3845   41.7934    1.5029  C     
17   C        28.2384   42.3928    0.9241  C     
18   N        27.0051   44.3713    0.2271  N     
19   C        26.5452   44.0110   -1.0923  C     
20   C        26.5996   47.1984    0.9594  C     
21   S        26.1259   45.4680    1.1680  S     
22   O        24.5506   45.2891    0.9875  O     
23   O        26.3535   45.0952    2.7070  O     
24   F        31.2889   47.3662    8.7800  F     
25   C        29.4896   40.4138    1.6761  C     
26   O        30.4738   39.8333    2.3670  O     
27   N        28.6919   39.5333    1.1993  N     
28   N        29.0842   38.4289    1.5227  N     
29   C        30.1364   38.5559    2.2388  C     
30   C        30.1843   36.1379    2.9432  C     
31   C        30.9762   37.4693    2.7545  C     
32   C        32.2077   37.2194    1.8181  C     
33   C        33.0643   38.4014    1.5001  C     
34   C        34.0067   38.8934    2.4402  C     
35   C        34.7970   40.0216    2.1420  C     
36   C        34.6620   40.6700    0.9048  C     
37   C        33.7374   40.1923   -0.0412  C     
38   C        32.9493   39.0616    0.2553  C     
39   N        31.4507   37.8349    4.1016  N     
40   H        31.7090   44.8589    8.2975  H     
41   H        31.9156   48.7387    6.6800  H     
42   H        32.7442   47.8439    4.6161  H     
43   H        32.5326   43.9429    6.2263  H     
44   H        33.5221   46.0998    3.2587  H     
45   H        35.2835   44.9359    4.5621  H     
46   H        34.8595   44.1222    3.0448  H     
47   H        34.2862   43.4668    4.5876  H     
48   H        31.9605   43.6625    3.7037  H     
49   H        29.1362   45.6322    1.0646  H     
50   H        31.2922   42.2270    2.2953  H     
51   H        27.4431   41.8060    0.6424  H     
52   H        27.3585   44.1084   -1.8183  H     
53   H        25.7201   44.6445   -1.4340  H     
54   H        26.1926   42.9768   -1.0995  H     
55   H        27.6113   47.3282    1.3689  H     
56   H        25.8981   47.8504    1.4913  H     
57   H        26.6039   47.4541   -0.1056  H     
58   H        29.3246   36.2907    3.5997  H     
59   H        30.8228   35.3726    3.3947  H     
60   H        29.8251   35.7582    1.9847  H     
61   H        32.8481   36.4458    2.2573  H     
62   H        31.8302   36.7972    0.8845  H     
63   H        34.1265   38.4328    3.3429  H     
64   H        35.4717   40.3681    2.8272  H     
65   H        35.2353   41.4901    0.6888  H     
66   H        33.6337   40.6660   -0.9392  H     
67   H        32.2796   38.7345   -0.4444  H     
68   H        31.9937   38.7008    4.0658  H     
69   H        32.0427   37.0826    4.4597  H     
70   H        30.6666   37.9591    4.7436  H     
@<TRIPOS>BOND
     1    1    2 2
     2    1    5 1
     3    2    3 1
     4    2   24 1
     5    3    4 2
     6    4    6 1
     7    5    6 2
     8    6    7 1
     9    7    8 1
    10    7    9 1
    11    9   10 am
    12   10   11 2
    13   10   12 1
    14   12   14 2
    15   12   15 1
    16   13   14 1
    17   13   17 2
    18   13   18 1
    19   15   16 2
    20   16   17 1
    21   16   25 1
    22   18   19 1
    23   18   21 1
    24   20   21 1
    25   21   22 2
    26   21   23 2
    27   25   26 1
    28   25   27 2
    29   26   29 1
    30   27   28 1
    31   28   29 2
    32   29   31 1
    33   31   30 1
    34   31   32 1
    35   31   39 1
    36   32   33 1
    37   33   34 1
    38   33   38 2
    39   34   35 2
    40   35   36 1
    41   36   37 2
    42   37   38 1
    43    1   40 1
    44    3   41 1
    45    4   42 1
    46    5   43 1
    47    7   44 1
    48    8   45 1
    49    8   46 1
    50    8   47 1
    51    9   48 1
    52   14   49 1
    53   15   50 1
    54   17   51 1
    55   19   52 1
    56   19   53 1
    57   19   54 1
    58   20   55 1
    59   20   56 1
    60   20   57 1
    61   30   58 1
    62   30   59 1
    63   30   60 1
    64   32   61 1
    65   32   62 1
    66   34   63 1
    67   35   64 1
    68   36   65 1
    69   37   66 1
    70   38   67 1
    71   39   68 1
    72   39   69 1
    73   39   70 1
@<TRIPOS>PROPERTY_DATA
  Total_Score	| 16.3720
  Crash		| -1.9061
  Polar		| 7.1973
  FragIndex	| 1
  FragRMSD	| 0.130

