@<TRIPOS>MOLECULE
BindingDB_16409
 80 83 0 0 0
SMALL
NO_CHARGES


@<TRIPOS>ATOM
1    C        28.3516   43.6111    0.7209  C     
2    C        29.3505   44.4536    1.2397  C     
3    C        30.5608   43.9772    1.7886  C     
4    C        30.7758   42.5720    1.7578  C     
5    C        29.8236   41.6636    1.2459  C     
6    C        28.6155   42.2108    0.7180  C     
7    C        31.4982   44.8340    2.3441  C     
8    O        31.5602   45.9911    1.9390  O     
9    N        32.2725   44.4434    3.3472  N     
10   C        33.2694   45.2189    4.0219  C     
11   C        30.0637   40.2902    1.2525  C     
12   O        29.2681   39.5165    0.6399  O     
13   N        31.0235   39.6671    1.9814  N     
14   C        31.4823   38.3011    1.8497  C     
15   C        29.4640   36.6745    2.3902  C     
16   C        33.0552   38.2220    1.8905  C     
17   C        30.7995   37.3149    2.8895  C     
18   O        31.6336   36.1874    3.2326  O     
19   N        27.1580   44.1408    0.2426  N     
20   C        26.5817   47.0134    0.8291  C     
21   S        26.2939   45.2678    1.1628  S     
22   O        24.7252   44.9880    1.0346  O     
23   O        26.5308   44.9994    2.7054  O     
24   C        34.5155   44.3297    4.2573  C     
25   C        33.8167   39.4083    1.4169  C     
26   C        34.5266   40.2135    2.3406  C     
27   C        35.1544   41.3983    1.9234  C     
28   C        35.1164   41.7849    0.5759  C     
29   C        34.4401   40.9789   -0.3596  C     
30   C        33.8000   39.7965    0.0573  C     
31   N        28.3350   37.6264    2.3157  N     
32   C        27.0358   37.0150    1.9093  C     
33   C        25.8709   37.0209    2.9204  C     
34   C        25.8800   38.0191    1.7595  C     
35   C        32.7089   45.7833    5.2877  C     
36   C        32.5078   47.1792    5.4101  C     
37   C        32.3542   44.9563    6.3843  C     
38   C        31.8527   45.5152    7.5750  C     
39   C        31.6731   46.9072    7.6801  C     
40   C        32.0007   47.7383    6.5941  C     
41   F        31.2034   47.4302    8.7805  F     
42   C        26.6472   43.7559   -1.0451  C     
43   H        29.1793   45.4586    1.2463  H     
44   H        31.6654   42.2026    2.1020  H     
45   H        27.8921   41.5773    0.3700  H     
46   H        32.1005   43.5506    3.6988  H     
47   H        33.6161   46.0322    3.3696  H     
48   H        31.5138   40.2364    2.6038  H     
49   H        31.2311   37.9574    0.8384  H     
50   H        29.6200   36.1880    1.4247  H     
51   H        29.1644   35.8938    3.1080  H     
52   H        33.3754   37.9808    2.9075  H     
53   H        33.3662   37.3689    1.2671  H     
54   H        30.6169   37.8682    3.8227  H     
55   H        32.0836   36.3973    4.0781  H     
56   H        27.6079   47.2820    1.0852  H     
57   H        25.9033   47.6229    1.4267  H     
58   H        26.4129   47.2276   -0.2273  H     
59   H        34.2406   43.3618    4.6890  H     
60   H        35.2216   44.8194    4.9296  H     
61   H        35.0239   44.1516    3.3070  H     
62   H        34.5777   39.9532    3.3280  H     
63   H        35.6328   41.9804    2.6101  H     
64   H        35.5452   42.6627    0.2832  H     
65   H        34.4214   41.2514   -1.3467  H     
66   H        33.2958   39.2316   -0.6342  H     
67   H        28.2205   38.0487    3.2625  H     
68   H        28.5720   38.3758    1.6429  H     
69   H        27.0158   36.2116    1.1552  H     
70   H        25.1237   36.2314    2.8171  H     
71   H        26.0489   37.4621    3.9015  H     
72   H        26.0812   39.0598    2.0409  H     
73   H        25.1764   37.8053    0.9484  H     
74   H        32.7255   47.8031    4.6300  H     
75   H        32.4753   43.9421    6.3299  H     
76   H        31.6263   44.9084    8.3656  H     
77   H        31.8795   48.7510    6.6646  H     
78   H        27.4271   43.8413   -1.8060  H     
79   H        25.8151   44.3833   -1.3665  H     
80   H        26.2907   42.7248   -1.0224  H     
@<TRIPOS>BOND
     1    1    2 1
     2    1    6 2
     3    1   19 1
     4    2    3 2
     5    3    4 1
     6    3    7 1
     7    4    5 2
     8    5    6 1
     9    5   11 1
    10    7    8 2
    11    7    9 am
    12    9   10 1
    13   10   24 1
    14   10   35 1
    15   11   12 2
    16   11   13 am
    17   13   14 1
    18   14   16 1
    19   14   17 1
    20   15   17 1
    21   15   31 1
    22   16   25 1
    23   17   18 1
    24   19   21 1
    25   19   42 1
    26   20   21 1
    27   21   22 2
    28   21   23 2
    29   25   26 2
    30   25   30 1
    31   26   27 1
    32   27   28 2
    33   28   29 1
    34   29   30 2
    35   31   32 1
    36   32   33 1
    37   32   34 1
    38   33   34 1
    39   35   36 1
    40   35   37 2
    41   36   40 2
    42   37   38 1
    43   38   39 2
    44   39   40 1
    45   39   41 1
    46    2   43 1
    47    4   44 1
    48    6   45 1
    49    9   46 1
    50   10   47 1
    51   13   48 1
    52   14   49 1
    53   15   50 1
    54   15   51 1
    55   16   52 1
    56   16   53 1
    57   17   54 1
    58   18   55 1
    59   20   56 1
    60   20   57 1
    61   20   58 1
    62   24   59 1
    63   24   60 1
    64   24   61 1
    65   26   62 1
    66   27   63 1
    67   28   64 1
    68   29   65 1
    69   30   66 1
    70   31   67 1
    71   31   68 1
    72   32   69 1
    73   33   70 1
    74   33   71 1
    75   34   72 1
    76   34   73 1
    77   36   74 1
    78   37   75 1
    79   38   76 1
    80   40   77 1
    81   42   78 1
    82   42   79 1
    83   42   80 1
@<TRIPOS>PROPERTY_DATA
  Total_Score	| 16.8549
  Crash		| -1.5539
  Polar		| 6.6599
  FragIndex	| 1
  FragRMSD	| 0.506

