@<TRIPOS>MOLECULE
BindingDB_16691
 88 90 0 0 0
SMALL
NO_CHARGES


@<TRIPOS>ATOM
1    C        31.6865   45.4182    7.3981  C     
2    C        31.4845   46.8061    7.5127  C     
3    C        31.8764   47.6601    6.4699  C     
4    C        32.4795   47.1259    5.3143  C     
5    C        32.7036   45.7360    5.1803  C     
6    C        32.2943   44.8891    6.2408  C     
7    C        33.3068   45.1877    3.9249  C     
8    F        30.9354   47.3082    8.5866  F     
9    C        34.5829   44.3544    4.1942  C     
10   N        32.3238   44.4061    3.2305  N     
11   C        31.5439   44.7914    2.2222  C     
12   O        31.6275   45.9320    1.7882  O     
13   C        30.5827   43.9269    1.6813  C     
14   C        28.3485   43.5406    0.6804  C     
15   C        29.3397   44.4032    1.2012  C     
16   C        30.8203   42.5306    1.6043  C     
17   C        29.8609   41.6144    1.0955  C     
18   C        28.6291   42.1507    0.6335  C     
19   N        27.1436   44.0402    0.2365  N     
20   C        26.6408   43.6916   -1.0625  C     
21   C        26.5433   46.8781    0.8357  C     
22   S        26.2494   45.1352    1.1792  S     
23   O        24.6944   44.8367    1.0008  O     
24   O        26.5029   44.9000    2.7338  O     
25   C        30.1885   40.2481    0.9596  C     
26   O        29.8547   39.6598   -0.0589  O     
27   N        30.9572   39.6136    1.8548  N     
28   C        31.6588   38.3615    1.6876  C     
29   C        32.8729   38.5497    0.7018  C     
30   C        33.6458   39.8317    0.7069  C     
31   C        34.3384   40.2871    1.8636  C     
32   C        33.8041   40.5801   -0.4949  C     
33   C        34.5868   41.7406   -0.5385  C     
34   C        35.2273   42.2048    0.6298  C     
35   C        35.1273   41.4491    1.8153  C     
36   C        32.0249   37.7291    3.0812  C     
37   N        31.0233   36.8218    3.7180  N     
38   C        30.3405   35.8099    2.8579  C     
39   C        28.9643   35.5043    3.2137  C     
40   O        28.4613   35.9206    4.2451  O     
41   N        28.2327   34.8477    2.3169  N     
42   C        26.8077   34.7215    2.2381  C     
43   C        26.0270   36.0757    2.1004  C     
44   C        26.8048   37.1846    1.3273  C     
45   C        24.6300   35.8570    1.4416  C     
46   H        31.3818   44.7897    8.1465  H     
47   H        31.7060   48.6673    6.5299  H     
48   H        32.7381   47.7685    4.5611  H     
49   H        32.4169   43.8738    6.1745  H     
50   H        33.6315   46.0162    3.2845  H     
51   H        35.2902   44.9136    4.8097  H     
52   H        35.0694   44.1339    3.2472  H     
53   H        34.3552   43.4151    4.6967  H     
54   H        32.1466   43.5343    3.5938  H     
55   H        29.1545   45.4058    1.1982  H     
56   H        31.7464   42.1842    1.8820  H     
57   H        27.9225   41.5013    0.2728  H     
58   H        27.4326   43.7377   -1.8063  H     
59   H        25.8446   44.3576   -1.4011  H     
60   H        26.2460   42.6803   -1.0393  H     
61   H        27.5699   47.1335    1.0775  H     
62   H        25.8734   47.4866    1.4391  H     
63   H        26.3615   47.0841   -0.2143  H     
64   H        31.1913   40.1100    2.6595  H     
65   H        31.0085   37.6521    1.1698  H     
66   H        33.5907   37.7263    0.8224  H     
67   H        32.4630   38.4211   -0.3134  H     
68   H        34.2875   39.7550    2.7392  H     
69   H        33.3323   40.2860   -1.3547  H     
70   H        34.6845   42.2666   -1.4132  H     
71   H        35.8017   43.0415    0.5900  H     
72   H        35.6265   41.7585    2.6461  H     
73   H        32.9636   37.1627    2.9990  H     
74   H        32.2049   38.5452    3.7800  H     
75   H        31.5447   36.2921    4.4178  H     
76   H        30.3153   37.3829    4.1993  H     
77   H        30.3108   36.1480    1.8244  H     
78   H        30.8989   34.8738    2.8633  H     
79   H        28.7256   34.4556    1.5734  H     
80   H        26.6202   34.1237    1.3423  H     
81   H        26.4279   34.1622    3.1021  H     
82   H        25.8449   36.4627    3.1100  H     
83   H        27.6616   37.5223    1.9188  H     
84   H        26.1660   38.0552    1.1402  H     
85   H        27.1718   36.8051    0.3674  H     
86   H        24.7367   35.5449    0.3952  H     
87   H        24.0448   36.7758    1.4603  H     
88   H        24.0673   35.0842    1.9715  H     
@<TRIPOS>BOND
     1    1    2 2
     2    1    6 1
     3    2    3 1
     4    2    8 1
     5    3    4 2
     6    4    5 1
     7    5    6 2
     8    5    7 1
     9    7    9 1
    10    7   10 1
    11   10   11 am
    12   11   12 2
    13   11   13 1
    14   13   15 2
    15   13   16 1
    16   14   15 1
    17   14   18 2
    18   14   19 1
    19   16   17 2
    20   17   18 1
    21   17   25 1
    22   19   20 1
    23   19   22 1
    24   21   22 1
    25   22   23 2
    26   22   24 2
    27   25   26 2
    28   25   27 am
    29   27   28 1
    30   28   29 1
    31   28   36 1
    32   29   30 1
    33   30   31 1
    34   30   32 2
    35   31   35 2
    36   32   33 1
    37   33   34 2
    38   34   35 1
    39   36   37 1
    40   37   38 1
    41   38   39 1
    42   39   40 2
    43   39   41 am
    44   41   42 1
    45   42   43 1
    46   43   44 1
    47   43   45 1
    48    1   46 1
    49    3   47 1
    50    4   48 1
    51    6   49 1
    52    7   50 1
    53    9   51 1
    54    9   52 1
    55    9   53 1
    56   10   54 1
    57   15   55 1
    58   16   56 1
    59   18   57 1
    60   20   58 1
    61   20   59 1
    62   20   60 1
    63   21   61 1
    64   21   62 1
    65   21   63 1
    66   27   64 1
    67   28   65 1
    68   29   66 1
    69   29   67 1
    70   31   68 1
    71   32   69 1
    72   33   70 1
    73   34   71 1
    74   35   72 1
    75   36   73 1
    76   36   74 1
    77   37   75 1
    78   37   76 1
    79   38   77 1
    80   38   78 1
    81   41   79 1
    82   42   80 1
    83   42   81 1
    84   43   82 1
    85   44   83 1
    86   44   84 1
    87   44   85 1
    88   45   86 1
    89   45   87 1
    90   45   88 1
@<TRIPOS>PROPERTY_DATA
  Total_Score	| 17.0120
  Crash		| -2.9811
  Polar		| 7.2377
  FragIndex	| 1
  FragRMSD	| 0.575

