@<TRIPOS>MOLECULE
BindingDB_16410
 73 75 0 0 0
SMALL
NO_CHARGES


@<TRIPOS>ATOM
1    C        28.2176   43.9104    0.7140  C     
2    C        29.2352   44.7710    1.1998  C     
3    C        30.4446   44.2755    1.7455  C     
4    C        30.6445   42.8765    1.7166  C     
5    C        29.6727   41.9801    1.1995  C     
6    C        28.4542   42.5217    0.7417  C     
7    C        31.3975   45.1225    2.3169  C     
8    O        31.3718   46.3316    2.0767  O     
9    N        32.2804   44.6647    3.2072  N     
10   C        33.2587   45.4152    3.9310  C     
11   C        29.9320   40.6062    1.1602  C     
12   O        29.0226   39.7966    1.3105  O     
13   N        31.1673   40.1881    0.9223  N     
14   C        31.6737   38.8491    0.9416  C     
15   C        31.0368   36.7903    2.4282  C     
16   C        33.0872   38.8112    0.2374  C     
17   C        31.6084   38.2377    2.3885  C     
18   O        32.8841   38.2180    3.0200  O     
19   N        27.0323   44.4153    0.2390  N     
20   C        26.4584   47.2203    0.9182  C     
21   S        26.1169   45.4699    1.2071  S     
22   O        24.5547   45.2126    1.0205  O     
23   O        26.3773   45.1261    2.7388  O     
24   C        34.5016   44.5180    4.1878  C     
25   C        33.9234   40.0582    0.3080  C     
26   C        34.0100   40.9407   -0.7983  C     
27   C        34.7011   42.1628   -0.6968  C     
28   C        35.3262   42.5170    0.5119  C     
29   C        35.2657   41.6408    1.6115  C     
30   C        34.5795   40.4184    1.5099  C     
31   N        30.7645   36.3637    3.8093  N     
32   C        32.6504   45.9558    5.1896  C     
33   C        32.3858   47.3428    5.3264  C     
34   C        32.2960   45.1019    6.2633  C     
35   C        31.7186   45.6187    7.4386  C     
36   C        31.4716   46.9961    7.5561  C     
37   C        31.8097   47.8631    6.5003  C     
38   F        30.9190   47.4787    8.6397  F     
39   C        26.5539   44.0626   -1.0699  C     
40   H        29.0741   45.7858    1.1715  H     
41   H        31.5197   42.5011    2.0753  H     
42   H        27.7204   41.8941    0.4041  H     
43   H        32.1976   43.7246    3.4514  H     
44   H        33.6183   46.2436    3.3013  H     
45   H        31.8073   40.8862    0.7118  H     
46   H        31.0059   38.2700    0.2954  H     
47   H        30.0877   36.7516    1.8801  H     
48   H        31.7309   36.0833    1.9630  H     
49   H        33.6667   37.9568    0.6132  H     
50   H        32.9023   38.6036   -0.8211  H     
51   H        30.9453   38.8364    3.0249  H     
52   H        32.6985   38.3230    3.9854  H     
53   H        27.4965   47.4335    1.1635  H     
54   H        25.8138   47.8269    1.5528  H     
55   H        26.2739   47.4564   -0.1304  H     
56   H        34.2248   43.5870    4.6852  H     
57   H        35.2307   45.0449    4.8059  H     
58   H        34.9676   44.2718    3.2342  H     
59   H        33.5481   40.7194   -1.6800  H     
60   H        34.7453   42.7964   -1.5050  H     
61   H        35.8357   43.4004    0.5837  H     
62   H        35.7289   41.8921    2.4869  H     
63   H        34.5600   39.8036    2.3269  H     
64   H        31.6285   36.3332    4.3516  H     
65   H        30.3374   35.4295    3.7984  H     
66   H        30.1168   37.0287    4.2429  H     
67   H        32.5994   47.9884    4.5650  H     
68   H        32.4515   44.0939    6.1969  H     
69   H        31.4754   44.9829    8.2062  H     
70   H        31.6213   48.8651    6.5746  H     
71   H        27.3382   44.2442   -1.8122  H     
72   H        25.6772   44.6439   -1.3709  H     
73   H        26.2727   43.0055   -1.1110  H     
@<TRIPOS>BOND
     1    1    2 1
     2    1    6 2
     3    1   19 1
     4    2    3 2
     5    3    4 1
     6    3    7 1
     7    4    5 2
     8    5    6 1
     9    5   11 1
    10    7    8 2
    11    7    9 am
    12    9   10 1
    13   10   24 1
    14   10   32 1
    15   11   12 2
    16   11   13 am
    17   13   14 1
    18   14   16 1
    19   14   17 1
    20   15   17 1
    21   15   31 1
    22   16   25 1
    23   17   18 1
    24   19   21 1
    25   19   39 1
    26   20   21 1
    27   21   22 2
    28   21   23 2
    29   25   26 2
    30   25   30 1
    31   26   27 1
    32   27   28 2
    33   28   29 1
    34   29   30 2
    35   32   33 1
    36   32   34 2
    37   33   37 2
    38   34   35 1
    39   35   36 2
    40   36   37 1
    41   36   38 1
    42    2   40 1
    43    4   41 1
    44    6   42 1
    45    9   43 1
    46   10   44 1
    47   13   45 1
    48   14   46 1
    49   15   47 1
    50   15   48 1
    51   16   49 1
    52   16   50 1
    53   17   51 1
    54   18   52 1
    55   20   53 1
    56   20   54 1
    57   20   55 1
    58   24   56 1
    59   24   57 1
    60   24   58 1
    61   26   59 1
    62   27   60 1
    63   28   61 1
    64   29   62 1
    65   30   63 1
    66   31   64 1
    67   31   65 1
    68   31   66 1
    69   33   67 1
    70   34   68 1
    71   35   69 1
    72   37   70 1
    73   39   71 1
    74   39   72 1
    75   39   73 1
@<TRIPOS>PROPERTY_DATA
  Total_Score	| 15.2420
  Crash		| -2.9149
  Polar		| 7.2717
  FragIndex	| 1
  FragRMSD	| 0.436

