@<TRIPOS>MOLECULE
BindingDB_16039
 72 74 0 0 0
SMALL
NO_CHARGES


@<TRIPOS>ATOM
1    C        31.7730   45.3662    7.4041  C     
2    C        31.6505   46.7636    7.5125  C     
3    C        32.0388   47.5844    6.4363  C     
4    C        32.5439   47.0059    5.2594  C     
5    C        32.2929   44.7927    6.2275  C     
6    C        32.6896   45.6026    5.1356  C     
7    C        33.2158   44.9998    3.8689  C     
8    C        34.4216   44.0511    4.0949  C     
9    N        32.1502   44.2924    3.1985  N     
10   C        31.4145   44.7181    2.1717  C     
11   O        31.6371   45.8349    1.7095  O     
12   C        30.3636   43.9624    1.6345  C     
13   C        28.0904   43.8505    0.6343  C     
14   C        29.1954   44.5903    1.1135  C     
15   C        30.4332   42.5466    1.5647  C     
16   C        29.3670   41.7797    1.0407  C     
17   C        28.1924   42.4400    0.6366  C     
18   N        26.9696   44.4834    0.1434  N     
19   C        26.4194   44.0986   -1.1349  C     
20   C        26.5048   47.2523    1.0385  C     
21   S        26.0589   45.5077    1.1325  S     
22   O        24.4834   45.2964    0.9587  O     
23   O        26.3367   45.1899    2.6764  O     
24   F        31.1698   47.3007    8.6014  F     
25   C        29.4497   40.3093    0.8087  C     
26   O        30.6566   39.6364    1.2005  O     
27   C        30.8737   39.2671    2.5799  C     
28   C        31.4350   37.8096    2.6923  C     
29   C        32.9379   37.6134    2.2166  C     
30   C        33.6198   38.8102    1.6600  C     
31   C        34.5068   39.5750    2.4499  C     
32   C        35.1466   40.7169    1.9257  C     
33   C        34.9245   41.0911    0.5878  C     
34   C        34.0826   40.3109   -0.2277  C     
35   C        33.4574   39.1649    0.2962  C     
36   N        31.3508   37.4756    4.1281  N     
37   C        30.4815   36.8172    1.9729  C     
38   H        31.4864   44.7648    8.1799  H     
39   H        31.9509   48.6008    6.5069  H     
40   H        32.7999   47.6223    4.4870  H     
41   H        32.3739   43.7744    6.1735  H     
42   H        33.5920   45.7976    3.2190  H     
43   H        35.2180   44.5628    4.6407  H     
44   H        34.8206   43.7376    3.1292  H     
45   H        34.1273   43.1645    4.6533  H     
46   H        31.8977   43.4436    3.5988  H     
47   H        29.1359   45.6138    1.0906  H     
48   H        31.2876   42.0721    1.8578  H     
49   H        27.3981   41.8864    0.3065  H     
50   H        27.1962   44.1342   -1.8995  H     
51   H        25.6110   44.7547   -1.4570  H     
52   H        26.0237   43.0825   -1.0945  H     
53   H        27.5927   47.3556    1.0618  H     
54   H        26.0845   47.7961    1.8916  H     
55   H        26.1217   47.6880    0.1157  H     
56   H        28.5711   39.8198    1.2429  H     
57   H        29.3883   40.1626   -0.2795  H     
58   H        31.6129   39.9588    2.9995  H     
59   H        29.9512   39.3635    3.1723  H     
60   H        33.5360   37.2241    3.0457  H     
61   H        32.9965   36.8203    1.4660  H     
62   H        34.6718   39.3342    3.4278  H     
63   H        35.7598   41.2845    2.5125  H     
64   H        35.3766   41.9269    0.2047  H     
65   H        33.9238   40.5853   -1.2032  H     
66   H        32.8465   38.6204   -0.3048  H     
67   H        31.8705   38.1671    4.6634  H     
68   H        31.7535   36.5606    4.3305  H     
69   H        30.3741   37.4896    4.4300  H     
70   H        29.4547   36.9161    2.3435  H     
71   H        30.7994   35.7880    2.1357  H     
72   H        30.4742   37.0101    0.9023  H     
@<TRIPOS>BOND
     1    1    2 2
     2    1    5 1
     3    2    3 1
     4    2   24 1
     5    3    4 2
     6    4    6 1
     7    5    6 2
     8    6    7 1
     9    7    8 1
    10    7    9 1
    11    9   10 am
    12   10   11 2
    13   10   12 1
    14   12   14 2
    15   12   15 1
    16   13   14 1
    17   13   17 2
    18   13   18 1
    19   15   16 2
    20   16   17 1
    21   16   25 1
    22   18   19 1
    23   18   21 1
    24   20   21 1
    25   21   22 2
    26   21   23 2
    27   25   26 1
    28   26   27 1
    29   27   28 1
    30   28   29 1
    31   28   36 1
    32   28   37 1
    33   29   30 1
    34   30   31 2
    35   30   35 1
    36   31   32 1
    37   32   33 2
    38   33   34 1
    39   34   35 2
    40    1   38 1
    41    3   39 1
    42    4   40 1
    43    5   41 1
    44    7   42 1
    45    8   43 1
    46    8   44 1
    47    8   45 1
    48    9   46 1
    49   14   47 1
    50   15   48 1
    51   17   49 1
    52   19   50 1
    53   19   51 1
    54   19   52 1
    55   20   53 1
    56   20   54 1
    57   20   55 1
    58   25   56 1
    59   25   57 1
    60   27   58 1
    61   27   59 1
    62   29   60 1
    63   29   61 1
    64   31   62 1
    65   32   63 1
    66   33   64 1
    67   34   65 1
    68   35   66 1
    69   36   67 1
    70   36   68 1
    71   36   69 1
    72   37   70 1
    73   37   71 1
    74   37   72 1
@<TRIPOS>PROPERTY_DATA
  Total_Score	| 17.0111
  Crash		| -1.6280
  Polar		| 7.2398
  FragIndex	| 1
  FragRMSD	| 0.456

