@<TRIPOS>MOLECULE
BindingDB_16702
 70 73 0 0 0
SMALL
NO_CHARGES


@<TRIPOS>ATOM
1    C        31.7941   45.5733    7.3948  C     
2    C        31.5926   46.9633    7.4969  C     
3    C        31.9238   47.7911    6.4083  C     
4    C        32.4821   47.2376    5.2419  C     
5    C        32.7112   45.8406    5.1248  C     
6    C        32.3435   45.0212    6.2250  C     
7    F        31.0881   47.4776    8.5815  F     
8    C        33.2810   45.2535    3.8716  C     
9    C        34.5230   44.3543    4.1187  C     
10   N        32.2672   44.4792    3.2057  N     
11   C        31.3823   44.9024    2.2948  C     
12   O        31.3905   46.0989    1.9953  O     
13   C        30.3752   44.0657    1.7894  C     
14   C        28.1285   43.7835    0.7736  C     
15   C        29.2015   44.6019    1.1947  C     
16   C        30.4608   42.6506    1.8795  C     
17   C        29.4121   41.7945    1.4623  C     
18   C        28.2526   42.3843    0.9152  C     
19   N        26.9747   44.3436    0.2710  N     
20   C        26.5083   43.9917   -1.0422  C     
21   C        26.5427   47.1927    0.8656  C     
22   S        26.1100   45.4724    1.1923  S     
23   O        24.5379   45.2921    1.0002  O     
24   O        26.3609   45.1757    2.7394  O     
25   C        29.5270   40.4154    1.6340  C     
26   C        30.1684   38.5732    2.2309  C     
27   N        28.7043   39.5357    1.2020  N     
28   N        29.0929   38.4347    1.5433  N     
29   O        30.5254   39.8501    2.3077  O     
30   C        31.0160   37.5050    2.7546  C     
31   C        30.2413   36.1625    2.9519  C     
32   C        32.2395   37.2660    1.7990  C     
33   C        33.0935   38.4490    1.4765  C     
34   C        32.9831   39.1042    0.2205  C     
35   C        33.7741   40.2299   -0.0788  C     
36   C        34.6851   40.7216    0.8675  C     
37   C        34.8169   40.0814    2.1128  C     
38   C        34.0234   38.9580    2.4153  C     
39   N        31.4969   37.9025    4.0933  N     
40   H        31.5482   44.9605    8.1792  H     
41   H        31.7460   48.7994    6.4615  H     
42   H        32.7037   47.8647    4.4640  H     
43   H        32.4644   44.0054    6.1737  H     
44   H        33.6246   46.0539    3.2084  H     
45   H        35.2959   44.9062    4.6562  H     
46   H        34.9377   44.0259    3.1638  H     
47   H        34.2611   43.4664    4.6977  H     
48   H        32.1650   43.5629    3.5199  H     
49   H        29.1075   45.6101    1.0905  H     
50   H        31.3172   42.2360    2.2577  H     
51   H        27.4684   41.7905    0.6289  H     
52   H        27.3031   44.1508   -1.7733  H     
53   H        25.6497   44.5943   -1.3512  H     
54   H        26.2077   42.9429   -1.0695  H     
55   H        27.5901   47.3558    1.1219  H     
56   H        25.9163   47.8540    1.4680  H     
57   H        26.3876   47.4155   -0.1927  H     
58   H        29.3904   36.3030    3.6260  H     
59   H        30.8960   35.4008    3.3867  H     
60   H        29.8657   35.7843    1.9950  H     
61   H        32.8849   36.4917    2.2240  H     
62   H        31.8461   36.8514    0.8669  H     
63   H        32.3188   38.7664   -0.4795  H     
64   H        33.6811   40.6919   -0.9866  H     
65   H        35.2648   41.5358    0.6474  H     
66   H        35.4900   40.4324    2.7973  H     
67   H        34.1412   38.5016    3.3219  H     
68   H        32.0091   38.7877    4.0353  H     
69   H        32.1141   37.1733    4.4581  H     
70   H        30.7108   38.0116    4.7366  H     
@<TRIPOS>BOND
     1    1    2 2
     2    1    6 1
     3    2    3 1
     4    2    7 1
     5    3    4 2
     6    4    5 1
     7    5    6 2
     8    5    8 1
     9    8    9 1
    10    8   10 1
    11   10   11 am
    12   11   12 2
    13   11   13 1
    14   13   15 2
    15   13   16 1
    16   14   15 1
    17   14   18 2
    18   14   19 1
    19   16   17 2
    20   17   18 1
    21   17   25 1
    22   19   20 1
    23   19   22 1
    24   21   22 1
    25   22   23 2
    26   22   24 2
    27   25   27 2
    28   25   29 1
    29   26   28 2
    30   26   29 1
    31   26   30 1
    32   27   28 1
    33   30   31 1
    34   30   32 1
    35   30   39 1
    36   32   33 1
    37   33   34 2
    38   33   38 1
    39   34   35 1
    40   35   36 2
    41   36   37 1
    42   37   38 2
    43    1   40 1
    44    3   41 1
    45    4   42 1
    46    6   43 1
    47    8   44 1
    48    9   45 1
    49    9   46 1
    50    9   47 1
    51   10   48 1
    52   15   49 1
    53   16   50 1
    54   18   51 1
    55   20   52 1
    56   20   53 1
    57   20   54 1
    58   21   55 1
    59   21   56 1
    60   21   57 1
    61   31   58 1
    62   31   59 1
    63   31   60 1
    64   32   61 1
    65   32   62 1
    66   34   63 1
    67   35   64 1
    68   36   65 1
    69   37   66 1
    70   38   67 1
    71   39   68 1
    72   39   69 1
    73   39   70 1
@<TRIPOS>PROPERTY_DATA
  Total_Score	| 16.2361
  Crash		| -2.0322
  Polar		| 7.1756
  FragIndex	| 1
  FragRMSD	| 0.119

