@<TRIPOS>MOLECULE
BindingDB_16703
 61 63 0 0 0
SMALL
NO_CHARGES


@<TRIPOS>ATOM
1    C        33.8341   43.5051    3.0802  C     
2    C        31.5603   44.7613    2.0854  C     
3    O        31.5788   45.9289    1.6410  O     
4    C        30.4394   43.9786    1.5741  C     
5    C        28.0987   43.8664    0.7027  C     
6    C        29.2405   44.5926    1.2041  C     
7    C        30.6257   42.6627    1.2642  C     
8    C        29.4543   41.7864    0.9937  C     
9    C        28.2509   42.4437    0.7513  C     
10   N        26.9543   44.4736    0.2293  N     
11   C        26.5248   44.1729   -1.0958  C     
12   C        26.4929   47.2639    0.9463  C     
13   S        26.1030   45.5286    1.2240  S     
14   O        24.5451   45.2674    1.0591  O     
15   O        26.4487   45.1286    2.7253  O     
16   C        29.5345   40.4459    1.4180  C     
17   C        30.1593   38.6615    2.2477  C     
18   N        28.6152   39.5401    1.2276  N     
19   N        29.0018   38.4871    1.7155  N     
20   O        30.5589   39.9195    2.1444  O     
21   C        30.9897   37.5934    2.8072  C     
22   C        30.2077   36.2601    3.0563  C     
23   C        32.2063   37.3167    1.8580  C     
24   C        33.0875   38.4654    1.4882  C     
25   C        32.9704   39.1019    0.2285  C     
26   C        33.7533   40.2254   -0.0868  C     
27   C        34.6827   40.7240    0.8382  C     
28   C        34.8128   40.1000    2.0877  C     
29   C        34.0253   38.9834    2.4098  C     
30   N        31.4872   38.0151    4.1257  N     
31   C        32.5853   44.5170    3.2881  C     
32   C        33.2122   45.8179    3.9511  C     
33   H        33.5902   42.8675    2.0778  H     
34   H        34.5965   43.3063    4.0178  H     
35   H        34.5985   44.2092    2.7144  H     
36   H        29.1862   45.6785    1.1531  H     
37   H        31.5335   42.4361    1.6839  H     
38   H        27.3629   41.8450    0.4976  H     
39   H        27.3595   44.2933   -1.7907  H     
40   H        25.7254   44.8305   -1.4028  H     
41   H        26.1545   43.1521   -1.1869  H     
42   H        27.5303   47.4961    1.1849  H     
43   H        25.8441   47.8527    1.5910  H     
44   H        26.3111   47.5200   -0.0968  H     
45   H        29.3692   36.4169    3.7418  H     
46   H        30.8676   35.5037    3.4888  H     
47   H        29.8044   35.8699    2.1170  H     
48   H        32.8359   36.5232    2.2791  H     
49   H        31.7658   36.9105    0.9538  H     
50   H        32.2837   38.7677   -0.4528  H     
51   H        33.6454   40.6919   -0.9896  H     
52   H        35.2615   41.5331    0.6066  H     
53   H        35.4911   40.4538    2.7628  H     
54   H        34.1409   38.5474    3.3252  H     
55   H        31.9622   38.9092    4.0559  H     
56   H        32.1303   37.3041    4.4674  H     
57   H        30.7494   38.0952    4.8240  H     
58   H        31.8784   44.0780    3.9992  H     
59   H        33.9196   45.5877    4.7954  H     
60   H        32.5024   46.5899    4.3476  H     
61   H        33.8028   46.3158    3.1593  H     
@<TRIPOS>BOND
     1    1   31 1
     2    2    3 2
     3    2    4 1
     4    2   31 1
     5    4    6 2
     6    4    7 1
     7    5    6 1
     8    5    9 2
     9    5   10 1
    10    7    8 2
    11    8    9 1
    12    8   16 1
    13   10   11 1
    14   10   13 1
    15   12   13 1
    16   13   14 2
    17   13   15 2
    18   16   18 2
    19   16   20 1
    20   17   19 2
    21   17   20 1
    22   17   21 1
    23   18   19 1
    24   21   22 1
    25   21   23 1
    26   21   30 1
    27   23   24 1
    28   24   25 2
    29   24   29 1
    30   25   26 1
    31   26   27 2
    32   27   28 1
    33   28   29 2
    34   31   32 1
    35    1   33 1
    36    1   34 1
    37    1   35 1
    38    6   36 1
    39    7   37 1
    40    9   38 1
    41   11   39 1
    42   11   40 1
    43   11   41 1
    44   12   42 1
    45   12   43 1
    46   12   44 1
    47   22   45 1
    48   22   46 1
    49   22   47 1
    50   23   48 1
    51   23   49 1
    52   25   50 1
    53   26   51 1
    54   27   52 1
    55   28   53 1
    56   29   54 1
    57   30   55 1
    58   30   56 1
    59   30   57 1
    60   31   58 1
    61   32   59 1
    62   32   60 1
    63   32   61 1
@<TRIPOS>PROPERTY_DATA
  Total_Score	| 12.8988
  Crash		| -1.5949
  Polar		| 6.3802
  FragIndex	| 1
  FragRMSD	| 0.183

