@<TRIPOS>MOLECULE
BindingDB_16704
 70 73 0 0 0
SMALL
NO_CHARGES


@<TRIPOS>ATOM
1    C        31.5517   45.0337    1.7240  C     
2    C        30.4655   44.1865    1.5253  C     
3    C        28.1571   43.8466    0.7338  C     
4    C        29.2701   44.6877    0.9655  C     
5    C        30.5559   42.7982    1.8024  C     
6    C        29.4739   41.9207    1.5393  C     
7    C        28.2705   42.4772    1.0384  C     
8    N        26.9802   44.3596    0.2743  N     
9    C        26.5925   47.1928    1.0134  C     
10   S        26.1612   45.4564    1.2585  S     
11   O        24.5809   45.2258    1.1327  O     
12   O        26.4439   45.1242    2.7950  O     
13   C        29.5680   40.5408    1.7629  C     
14   C        30.2128   38.6823    2.2898  C     
15   N        28.6868   39.6810    1.4105  N     
16   N        29.0801   38.5799    1.7212  N     
17   O        30.6111   39.9564    2.3640  O     
18   C        31.0318   37.5695    2.7791  C     
19   C        30.2172   36.2511    2.9314  C     
20   C        32.2589   37.3068    1.8306  C     
21   C        33.1157   38.4794    1.4788  C     
22   C        33.0140   39.0922    0.2076  C     
23   C        33.7949   40.2168   -0.1206  C     
24   C        34.7085   40.7354    0.8155  C     
25   C        34.8367   40.1245    2.0718  C     
26   C        34.0480   39.0097    2.4033  C     
27   N        31.5019   37.9182    4.1329  N     
28   C        26.4796   44.0559   -1.0467  C     
29   C        25.8374   42.6558   -1.1681  C     
30   C        24.7784   42.5664   -2.2942  C     
31   C        32.1866   45.3196    2.8844  C     
32   C        31.7126   44.9895    4.2226  C     
33   C        31.7157   46.2076    5.1776  C     
34   C        32.6881   45.0457    5.4262  C     
35   C        32.4252   44.1659    6.6669  C     
36   H        31.8708   45.5227    0.9175  H     
37   H        29.2027   45.6815    0.7647  H     
38   H        31.4412   42.3979    2.1513  H     
39   H        27.4496   41.8869    0.8883  H     
40   H        27.6753   47.3162    1.1180  H     
41   H        26.0866   47.8119    1.7569  H     
42   H        26.2835   47.5189    0.0153  H     
43   H        29.3615   36.3943    3.5977  H     
44   H        30.8351   35.4565    3.3547  H     
45   H        29.8385   35.9071    1.9690  H     
46   H        32.8999   36.5455    2.2819  H     
47   H        31.8703   36.8702    0.9079  H     
48   H        32.3492   38.7354   -0.4877  H     
49   H        33.6962   40.6593   -1.0370  H     
50   H        35.2786   41.5512    0.5749  H     
51   H        35.5113   40.4970    2.7464  H     
52   H        34.1613   38.5785    3.3248  H     
53   H        32.0519   38.7779    4.1059  H     
54   H        32.0803   37.1607    4.4982  H     
55   H        30.7088   38.0412    4.7666  H     
56   H        25.7355   44.8041   -1.3308  H     
57   H        27.2860   44.1263   -1.7747  H     
58   H        26.6131   41.9143   -1.3924  H     
59   H        25.3656   42.3845   -0.2138  H     
60   H        23.9360   43.2350   -2.0823  H     
61   H        24.3921   41.5432   -2.3667  H     
62   H        25.2110   42.8430   -3.2640  H     
63   H        33.0017   45.8855    2.8110  H     
64   H        30.8058   44.3935    4.3396  H     
65   H        32.1989   47.1309    4.8481  H     
66   H        30.8762   46.2796    5.8698  H     
67   H        33.7317   45.2796    5.1877  H     
68   H        31.3668   43.9257    6.7765  H     
69   H        32.7613   44.6911    7.5619  H     
70   H        32.9973   43.2427    6.5675  H     
@<TRIPOS>BOND
     1    1    2 1
     2    1   31 2
     3    2    4 2
     4    2    5 1
     5    3    4 1
     6    3    7 2
     7    3    8 1
     8    5    6 2
     9    6    7 1
    10    6   13 1
    11    8   10 1
    12    8   28 1
    13    9   10 1
    14   10   11 2
    15   10   12 2
    16   13   15 2
    17   13   17 1
    18   14   16 2
    19   14   17 1
    20   14   18 1
    21   15   16 1
    22   18   19 1
    23   18   20 1
    24   18   27 1
    25   20   21 1
    26   21   22 2
    27   21   26 1
    28   22   23 1
    29   23   24 2
    30   24   25 1
    31   25   26 2
    32   28   29 1
    33   29   30 1
    34   31   32 1
    35   32   33 1
    36   32   34 1
    37   33   34 1
    38   34   35 1
    39    1   36 1
    40    4   37 1
    41    5   38 1
    42    7   39 1
    43    9   40 1
    44    9   41 1
    45    9   42 1
    46   19   43 1
    47   19   44 1
    48   19   45 1
    49   20   46 1
    50   20   47 1
    51   22   48 1
    52   23   49 1
    53   24   50 1
    54   25   51 1
    55   26   52 1
    56   27   53 1
    57   27   54 1
    58   27   55 1
    59   28   56 1
    60   28   57 1
    61   29   58 1
    62   29   59 1
    63   30   60 1
    64   30   61 1
    65   30   62 1
    66   31   63 1
    67   32   64 1
    68   33   65 1
    69   33   66 1
    70   34   67 1
    71   35   68 1
    72   35   69 1
    73   35   70 1
@<TRIPOS>PROPERTY_DATA
  Total_Score	| 14.9445
  Crash		| -2.0685
  Polar		| 6.1835
  FragIndex	| 1
  FragRMSD	| 0.155

