@<TRIPOS>MOLECULE
BindingDB_16412
 85 87 0 0 0
SMALL
NO_CHARGES


@<TRIPOS>ATOM
1    C        28.3831   43.3949    0.7315  C     
2    C        29.3602   44.2566    1.2793  C     
3    C        30.5861   43.7842    1.8073  C     
4    C        30.8356   42.3885    1.7467  C     
5    C        29.9208   41.4845    1.1490  C     
6    C        28.6995   42.0150    0.6535  C     
7    C        31.5185   44.6830    2.3437  C     
8    O        31.5807   45.8237    1.8979  O     
9    N        32.2998   44.3507    3.3692  N     
10   C        33.2648   45.1874    4.0292  C     
11   C        30.2473   40.1316    0.9788  C     
12   O        29.9331   39.5822   -0.0716  O     
13   N        30.9585   39.4593    1.8856  N     
14   C        31.5953   38.1705    1.7334  C     
15   C        29.7085   36.3543    2.0809  C     
16   C        33.1391   38.3149    1.9721  C     
17   C        30.9461   37.0977    2.6812  C     
18   O        31.9021   36.0895    3.0387  O     
19   N        27.1801   43.9032    0.2669  N     
20   C        26.6790   46.7908    0.7469  C     
21   S        26.3186   45.0697    1.1542  S     
22   O        24.7510   44.8255    1.0066  O     
23   O        26.5469   44.8688    2.7142  O     
24   C        34.5620   44.3803    4.2815  C     
25   C        33.7705   39.5403    1.4038  C     
26   C        33.5792   39.9016    0.0491  C     
27   C        34.1370   41.0879   -0.4658  C     
28   C        34.9065   41.9197    0.3663  C     
29   C        35.1439   41.5492    1.7004  C     
30   C        34.5903   40.3620    2.2135  C     
31   C        32.6920   45.7584    5.2879  C     
32   C        32.5071   47.1563    5.4247  C     
33   C        32.3344   44.9270    6.3788  C     
34   C        31.8222   45.4787    7.5692  C     
35   C        31.6567   46.8711    7.6891  C     
36   C        31.9966   47.7094    6.6129  C     
37   F        31.1903   47.3853    8.7954  F     
38   N        28.4085   36.9681    2.4673  N     
39   C        27.1545   36.1422    2.4297  C     
40   C        26.7719   35.7543    0.9687  C     
41   C        27.2607   34.8519    3.3075  C     
42   C        26.0275   37.0437    3.0223  C     
43   C        26.6352   43.4747   -0.9960  C     
44   H        29.1707   45.2638    1.2912  H     
45   H        31.7341   42.0328    2.0846  H     
46   H        28.0125   41.3779    0.2416  H     
47   H        32.1553   43.4727    3.7570  H     
48   H        33.5605   46.0017    3.3573  H     
49   H        31.1238   39.9151    2.7249  H     
50   H        31.4899   37.8127    0.7057  H     
51   H        29.7775   36.3141    0.9911  H     
52   H        29.7283   35.3267    2.4435  H     
53   H        33.3257   38.2694    3.0501  H     
54   H        33.6497   37.4552    1.5249  H     
55   H        30.6533   37.5780    3.6197  H     
56   H        32.1914   36.2959    3.9546  H     
57   H        27.7265   47.0070    0.9536  H     
58   H        26.0516   47.4505    1.3474  H     
59   H        26.4782   46.9697   -0.3096  H     
60   H        34.3519   43.4430    4.8001  H     
61   H        35.2623   44.9645    4.8798  H     
62   H        35.0422   44.1500    3.3264  H     
63   H        33.0179   39.3119   -0.5680  H     
64   H        33.9817   41.3461   -1.4422  H     
65   H        35.3008   42.7901    0.0011  H     
66   H        35.7181   42.1396    2.3029  H     
67   H        34.7883   40.1070    3.1835  H     
68   H        32.7438   47.7876    4.6562  H     
69   H        32.4491   43.9131    6.3172  H     
70   H        31.5767   44.8645    8.3491  H     
71   H        31.8758   48.7225    6.6905  H     
72   H        28.5049   37.3155    3.4215  H     
73   H        28.2638   37.7842    1.8666  H     
74   H        26.6915   36.6487    0.3490  H     
75   H        25.8148   35.2284    0.9442  H     
76   H        27.5267   35.0995    0.5298  H     
77   H        27.9315   34.1163    2.8636  H     
78   H        26.2849   34.3704    3.4096  H     
79   H        27.6308   35.0963    4.3059  H     
80   H        26.2629   37.3252    4.0518  H     
81   H        25.0675   36.5208    3.0236  H     
82   H        25.9141   37.9598    2.4372  H     
83   H        27.4006   43.5203   -1.7750  H     
84   H        25.7982   44.0970   -1.3293  H     
85   H        26.2717   42.4488   -0.9223  H     
@<TRIPOS>BOND
     1    1    2 1
     2    1    6 2
     3    1   19 1
     4    2    3 2
     5    3    4 1
     6    3    7 1
     7    4    5 2
     8    5    6 1
     9    5   11 1
    10    7    8 2
    11    7    9 am
    12    9   10 1
    13   10   24 1
    14   10   31 1
    15   11   12 2
    16   11   13 am
    17   13   14 1
    18   14   16 1
    19   14   17 1
    20   15   17 1
    21   15   38 1
    22   16   25 1
    23   17   18 1
    24   19   21 1
    25   19   43 1
    26   20   21 1
    27   21   22 2
    28   21   23 2
    29   25   26 2
    30   25   30 1
    31   26   27 1
    32   27   28 2
    33   28   29 1
    34   29   30 2
    35   31   32 1
    36   31   33 2
    37   32   36 2
    38   33   34 1
    39   34   35 2
    40   35   36 1
    41   35   37 1
    42   38   39 1
    43   39   40 1
    44   39   41 1
    45   39   42 1
    46    2   44 1
    47    4   45 1
    48    6   46 1
    49    9   47 1
    50   10   48 1
    51   13   49 1
    52   14   50 1
    53   15   51 1
    54   15   52 1
    55   16   53 1
    56   16   54 1
    57   17   55 1
    58   18   56 1
    59   20   57 1
    60   20   58 1
    61   20   59 1
    62   24   60 1
    63   24   61 1
    64   24   62 1
    65   26   63 1
    66   27   64 1
    67   28   65 1
    68   29   66 1
    69   30   67 1
    70   32   68 1
    71   33   69 1
    72   34   70 1
    73   36   71 1
    74   38   72 1
    75   38   73 1
    76   40   74 1
    77   40   75 1
    78   40   76 1
    79   41   77 1
    80   41   78 1
    81   41   79 1
    82   42   80 1
    83   42   81 1
    84   42   82 1
    85   43   83 1
    86   43   84 1
    87   43   85 1
@<TRIPOS>PROPERTY_DATA
  Total_Score	| 17.3152
  Crash		| -1.9338
  Polar		| 6.9190
  FragIndex	| 1
  FragRMSD	| 0.625

