@<TRIPOS>MOLECULE
BindingDB_16690
 69 71 0 0 0
SMALL
NO_CHARGES


@<TRIPOS>ATOM
1    C        31.8435   47.7808    6.4914  C     
2    C        31.5518   46.9343    7.5752  C     
3    C        31.8216   45.5580    7.4690  C     
4    C        32.3768   45.0337    6.2880  C     
5    C        32.6875   45.8750    5.1915  C     
6    C        32.3978   47.2553    5.3107  C     
7    C        33.2595   45.3194    3.9250  C     
8    F        31.0294   47.4243    8.6651  F     
9    C        34.5027   44.4373    4.1926  C     
10   N        32.2664   44.5520    3.2339  N     
11   C        31.4847   44.9498    2.2332  C     
12   O        31.6333   46.0875    1.7811  O     
13   C        30.5142   44.1070    1.6882  C     
14   C        28.2762   43.7801    0.6679  C     
15   C        29.2904   44.6168    1.1850  C     
16   C        30.7184   42.7045    1.6214  C     
17   C        29.7496   41.8252    1.0807  C     
18   C        28.5309   42.3888    0.6201  C     
19   N        27.0763   44.3125    0.2124  N     
20   C        26.5760   43.9826   -1.0993  C     
21   C        26.4871   47.1448    0.8748  C     
22   S        26.1835   45.3945    1.1750  S     
23   O        24.6215   45.1171    1.0055  O     
24   O        26.4358   45.0795    2.7139  O     
25   C        29.9839   40.4514    0.9889  C     
26   O        29.1928   39.7399    0.3669  O     
27   N        31.0524   39.8827    1.5493  N     
28   C        31.4093   38.4858    1.5865  C     
29   C        32.9637   38.2527    1.5626  C     
30   C        33.7727   39.4500    1.2094  C     
31   C        33.8196   39.9144   -0.1256  C     
32   C        34.4514   40.1954    2.2219  C     
33   C        35.1678   41.3547    1.8880  C     
34   C        35.1831   41.8188    0.5650  C     
35   C        34.5180   41.0903   -0.4497  C     
36   C        30.7460   37.8780    2.8554  C     
37   N        31.1777   38.5610    4.0795  N     
38   H        31.6391   48.7829    6.5561  H     
39   H        31.6095   44.9320    8.2496  H     
40   H        32.5555   44.0293    6.2342  H     
41   H        32.5917   47.8914    4.5365  H     
42   H        33.6087   46.1222    3.2693  H     
43   H        35.2462   45.0080    4.7575  H     
44   H        34.9538   44.1228    3.2496  H     
45   H        34.2477   43.5356    4.7634  H     
46   H        32.0697   43.6821    3.6181  H     
47   H        29.1283   45.6316    1.1968  H     
48   H        31.6217   42.3215    1.9072  H     
49   H        27.7973   41.7752    0.2573  H     
50   H        27.3634   44.1235   -1.8411  H     
51   H        25.7334   44.6084   -1.3919  H     
52   H        26.2421   42.9455   -1.1292  H     
53   H        27.5106   47.3959    1.1434  H     
54   H        25.8031   47.7373    1.4769  H     
55   H        26.3232   47.3662   -0.1781  H     
56   H        31.6242   40.4709    2.0716  H     
57   H        30.9952   37.9687    0.7170  H     
58   H        33.3037   37.8568    2.5311  H     
59   H        33.1979   37.4470    0.8453  H     
60   H        33.3365   39.4028   -0.8657  H     
61   H        34.4418   39.8680    3.1846  H     
62   H        35.7082   41.8510    2.5957  H     
63   H        35.7233   42.6508    0.3191  H     
64   H        34.5292   41.4359   -1.4123  H     
65   H        29.6599   37.9712    2.7765  H     
66   H        30.9964   36.8199    2.9397  H     
67   H        32.1366   38.3047    4.2938  H     
68   H        30.5835   38.2823    4.8515  H     
69   H        31.1174   39.5751    3.9639  H     
@<TRIPOS>BOND
     1    1    2 2
     2    1    6 1
     3    2    3 1
     4    2    8 1
     5    3    4 2
     6    4    5 1
     7    5    6 2
     8    5    7 1
     9    7    9 1
    10    7   10 1
    11   10   11 am
    12   11   12 2
    13   11   13 1
    14   13   15 2
    15   13   16 1
    16   14   15 1
    17   14   18 2
    18   14   19 1
    19   16   17 2
    20   17   18 1
    21   17   25 1
    22   19   20 1
    23   19   22 1
    24   21   22 1
    25   22   23 2
    26   22   24 2
    27   25   26 2
    28   25   27 am
    29   27   28 1
    30   28   29 1
    31   28   36 1
    32   29   30 1
    33   30   31 1
    34   30   32 2
    35   31   35 2
    36   32   33 1
    37   33   34 2
    38   34   35 1
    39   36   37 1
    40    1   38 1
    41    3   39 1
    42    4   40 1
    43    6   41 1
    44    7   42 1
    45    9   43 1
    46    9   44 1
    47    9   45 1
    48   10   46 1
    49   15   47 1
    50   16   48 1
    51   18   49 1
    52   20   50 1
    53   20   51 1
    54   20   52 1
    55   21   53 1
    56   21   54 1
    57   21   55 1
    58   27   56 1
    59   28   57 1
    60   29   58 1
    61   29   59 1
    62   31   60 1
    63   32   61 1
    64   33   62 1
    65   34   63 1
    66   35   64 1
    67   36   65 1
    68   36   66 1
    69   37   67 1
    70   37   68 1
    71   37   69 1
@<TRIPOS>PROPERTY_DATA
  Total_Score	| 14.9311
  Crash		| -2.4277
  Polar		| 6.8076
  FragIndex	| 1
  FragRMSD	| 0.516

