@<TRIPOS>MOLECULE
BindingDB_16689
 67 69 0 0 0
SMALL
NO_CHARGES


@<TRIPOS>ATOM
1    C        31.7645   47.6884    6.3780  C     
2    C        31.4092   46.8765    7.4697  C     
3    C        31.7133   45.5035    7.4413  C     
4    C        32.3655   44.9438    6.3267  C     
5    C        32.7349   45.7484    5.2212  C     
6    C        32.4229   47.1300    5.2678  C     
7    C        33.3778   45.1571    4.0048  C     
8    F        30.7851   47.3927    8.4909  F     
9    C        34.6385   44.3021    4.2940  C     
10   N        32.3997   44.3512    3.3267  N     
11   C        31.6485   44.6996    2.2897  C     
12   O        31.7452   45.8336    1.8320  O     
13   C        30.7100   43.8262    1.7529  C     
14   C        28.5195   43.4521    0.6560  C     
15   C        29.5056   44.3142    1.1924  C     
16   C        30.9265   42.4238    1.7262  C     
17   C        29.9971   41.5194    1.1473  C     
18   C        28.7930   42.0633    0.6249  C     
19   N        27.3205   43.9690    0.1788  N     
20   C        26.7360   43.4881   -1.0438  C     
21   C        24.7873   45.4503    0.7005  C     
22   S        26.5374   45.2031    1.0538  S     
23   O        26.5675   44.8722    2.6123  O     
24   O        27.2572   46.6118    0.8636  O     
25   C        30.2716   40.1502    1.0633  C     
26   O        29.8716   39.5254    0.0885  O     
27   N        30.9802   39.5100    1.9936  N     
28   C        31.4022   38.1330    2.0056  C     
29   C        32.9608   37.9843    2.0857  C     
30   C        33.7164   39.1246    1.5103  C     
31   C        33.6163   39.4389    0.1315  C     
32   C        34.5033   39.9647    2.3405  C     
33   C        35.1310   41.1109    1.8192  C     
34   C        34.9895   41.4287    0.4553  C     
35   C        34.2373   40.5905   -0.3889  C     
36   C        30.6645   37.4591    3.1899  C     
37   O        31.0852   36.1131    3.4200  O     
38   H        31.5440   48.6873    6.3858  H     
39   H        31.4610   44.9071    8.2322  H     
40   H        32.5524   43.9365    6.3189  H     
41   H        32.6458   47.7375    4.4766  H     
42   H        33.7228   45.9633    3.3474  H     
43   H        35.3657   44.8751    4.8705  H     
44   H        35.1031   44.0135    3.3501  H     
45   H        34.3886   43.3949    4.8471  H     
46   H        32.2172   43.4837    3.7204  H     
47   H        29.3295   45.3230    1.1780  H     
48   H        31.8127   42.0574    2.0868  H     
49   H        28.0827   41.4380    0.2308  H     
50   H        27.5115   43.3708   -1.8043  H     
51   H        25.9845   44.1707   -1.4408  H     
52   H        26.2696   42.5191   -0.8603  H     
53   H        24.6626   45.8716   -0.2983  H     
54   H        24.3823   46.1432    1.4379  H     
55   H        24.2579   44.4978    0.7704  H     
56   H        31.2294   40.0294    2.7749  H     
57   H        31.0735   37.6231    1.0904  H     
58   H        33.2467   37.8451    3.1331  H     
59   H        33.2650   37.0725    1.5696  H     
60   H        33.0639   38.8497   -0.4906  H     
61   H        34.6067   39.7632    3.3361  H     
62   H        35.6773   41.7159    2.4326  H     
63   H        35.4354   42.2711    0.0790  H     
64   H        34.1423   40.8244   -1.3768  H     
65   H        30.8319   38.0351    4.1090  H     
66   H        29.5907   37.4459    2.9884  H     
67   H        31.7434   36.1707    4.1476  H     
@<TRIPOS>BOND
     1    1    2 2
     2    1    6 1
     3    2    3 1
     4    2    8 1
     5    3    4 2
     6    4    5 1
     7    5    6 2
     8    5    7 1
     9    7    9 1
    10    7   10 1
    11   10   11 am
    12   11   12 2
    13   11   13 1
    14   13   15 2
    15   13   16 1
    16   14   15 1
    17   14   18 2
    18   14   19 1
    19   16   17 2
    20   17   18 1
    21   17   25 1
    22   19   20 1
    23   19   22 1
    24   21   22 1
    25   22   23 2
    26   22   24 2
    27   25   26 2
    28   25   27 am
    29   27   28 1
    30   28   29 1
    31   28   36 1
    32   29   30 1
    33   30   31 1
    34   30   32 2
    35   31   35 2
    36   32   33 1
    37   33   34 2
    38   34   35 1
    39   36   37 1
    40    1   38 1
    41    3   39 1
    42    4   40 1
    43    6   41 1
    44    7   42 1
    45    9   43 1
    46    9   44 1
    47    9   45 1
    48   10   46 1
    49   15   47 1
    50   16   48 1
    51   18   49 1
    52   20   50 1
    53   20   51 1
    54   20   52 1
    55   21   53 1
    56   21   54 1
    57   21   55 1
    58   27   56 1
    59   28   57 1
    60   29   58 1
    61   29   59 1
    62   31   60 1
    63   32   61 1
    64   33   62 1
    65   34   63 1
    66   35   64 1
    67   36   65 1
    68   36   66 1
    69   37   67 1
@<TRIPOS>PROPERTY_DATA
  Total_Score	| 13.7504
  Crash		| -1.8150
  Polar		| 4.7423
  FragIndex	| 1
  FragRMSD	| 0.975

