@<TRIPOS>MOLECULE
BindingDB_50186223
 117 119 0 0 0
SMALL
NO_CHARGES


@<TRIPOS>ATOM
1    C         6.7064   -7.0787   34.0732  C     
2    C         6.1685   -8.3227   33.6737  C     
3    C         5.7633   -8.5284   32.3242  C     
4    C         5.9468   -7.4977   31.3462  C     
5    C         6.4959   -6.2645   31.7899  C     
6    C         6.8798   -6.0618   33.1190  C     
7    Cl        6.0639   -9.5566   34.8393  Cl    
8    Cl        5.0008  -10.0022   31.9310  Cl    
9    C         5.6476   -7.6540   29.9735  C     
10   C         4.8286   -6.8170   29.2699  C     
11   O         6.2102   -8.5073   29.2989  O     
12   C         3.5011   -7.0339   29.2494  C     
13   O         7.1480   -6.8192   35.3490  O     
14   C         5.4302   -5.7098   28.5337  C     
15   N         5.5645   -4.2880   36.3335  N     
16   C         5.1976   -5.5505   36.1151  C     
17   C         6.1517   -6.6157   36.3710  C     
18   O         4.0779   -5.8438   35.7055  O     
19   Cl       10.0204    2.5451   26.5362  Cl    
20   O         8.7077    4.6020   24.9143  O     
21   C         7.8408    3.7521   25.5326  C     
22   C         8.3318    2.7791   26.4329  C     
23   C         7.4297    2.0390   27.2394  C     
24   C         6.0290    2.2729   27.1449  C     
25   C         5.5675    3.2473   26.2261  C     
26   C         6.4592    3.9833   25.4361  C     
27   Cl        8.0400    0.8382   28.2853  Cl    
28   C         5.0781    1.5732   27.8926  C     
29   C         4.5996    2.0230   29.0847  C     
30   O         4.3678    0.7651   27.3156  O     
31   C         4.6230    1.1277   30.2466  C     
32   C         3.9202    3.1873   29.1439  C     
33   C         3.4587    0.1096   30.2786  C     
34   C         6.2595   -1.0732   33.1339  C     
35   C         5.5675    6.8806   30.2906  C     
36   C         4.3375    6.9891   30.9787  C     
37   C         3.8156    5.9323   31.7677  C     
38   C         4.5909    4.7475   31.8670  C     
39   C         5.8175    4.5905   31.1826  C     
40   C         6.2864    5.6692   30.3975  C     
41   C         2.5873    6.0517   32.4380  C     
42   N         1.8837    7.1614   32.4822  N     
43   O         2.0882    5.1106   33.0390  O     
44   C         6.5926    3.3187   31.1602  C     
45   N         6.5093    2.4366   32.2863  N     
46   C         6.9588    1.1855   32.2911  C     
47   C         6.8211    0.3416   33.4607  C     
48   O         7.4424    0.6882   31.2816  O     
49   C         6.0406    8.0435   29.4850  C     
50   N         7.2756    7.8705   28.7721  N     
51   C         8.4956    7.7768   29.2987  C     
52   C         9.7003    7.6405   28.4938  C     
53   O         8.6400    7.7864   30.5196  O     
54   C         9.5067    7.3025   26.9908  C     
55   C        10.8304    7.2330   26.1755  C     
56   C         6.2608   -2.0015   34.3790  C     
57   C        10.9319    8.1519   24.9194  C     
58   C         9.6814    8.2928   23.9927  C     
59   N         8.9278    7.0973   23.7807  N     
60   C         4.8442   -2.5057   34.7602  C     
61   C         4.7506   -3.1220   36.1792  C     
62   C         9.3545    5.9845   23.2020  C     
63   C         8.6448    4.7591   23.4883  C     
64   O        10.4219    5.9491   22.6066  O     
65   H         6.6617   -5.4925   31.1390  H     
66   H         7.3107   -5.1765   33.3864  H     
67   H         2.8967   -6.4410   28.7299  H     
68   H         3.0915   -7.7975   29.7460  H     
69   H         6.0549   -5.1006   29.1958  H     
70   H         4.6841   -5.0463   28.0950  H     
71   H         6.0463   -6.1056   27.7214  H     
72   H         6.4552   -4.1529   36.6886  H     
73   H         5.6473   -7.5567   36.5766  H     
74   H         6.7011   -6.3528   37.2754  H     
75   H         4.5668    3.4456   26.1290  H     
76   H         6.0999    4.7186   24.8203  H     
77   H         5.5726    0.5715   30.2852  H     
78   H         4.5616    1.7128   31.1575  H     
79   H         3.5039    3.4818   29.9948  H     
80   H         3.8190    3.7760   28.3521  H     
81   H         2.5021    0.6256   30.4024  H     
82   H         3.5794   -0.5796   31.1141  H     
83   H         3.4384   -0.4638   29.3559  H     
84   H         5.2377   -0.9726   32.7462  H     
85   H         6.8788   -1.5342   32.3607  H     
86   H         3.8121    7.8636   30.8814  H     
87   H         4.2359    3.9619   32.4138  H     
88   H         7.1652    5.5591   29.8871  H     
89   H         1.0462    7.1919   32.9713  H     
90   H         2.1970    7.9631   32.0375  H     
91   H         6.2557    2.7797   30.2715  H     
92   H         7.6414    3.5617   31.0216  H     
93   H         6.1009    2.7713   33.0978  H     
94   H         6.1820    0.8483   34.1980  H     
95   H         7.8092    0.2077   33.9221  H     
96   H         5.2742    8.2687   28.7392  H     
97   H         6.1128    8.9175   30.1426  H     
98   H         7.2051    7.8323   27.8038  H     
99   H        10.2483    8.5766   28.5639  H     
100  H        10.3142    6.8528   28.9370  H     
101  H         9.0199    6.3248   26.9450  H     
102  H         8.8316    8.0344   26.5416  H     
103  H        11.6723    7.4567   26.8355  H     
104  H        10.9827    6.2030   25.8533  H     
105  H         6.9026   -2.8657   34.1783  H     
106  H         6.6837   -1.4608   35.2230  H     
107  H        11.2354    9.1504   25.2452  H     
108  H        11.7548    7.7618   24.3145  H     
109  H         8.9919    9.0023   24.4483  H     
110  H         9.9751    8.7152   23.0276  H     
111  H         8.0570    7.0502   24.2086  H     
112  H         4.1496   -1.6660   34.7292  H     
113  H         4.5089   -3.2448   34.0296  H     
114  H         3.6916   -3.3360   36.3734  H     
115  H         5.0798   -2.3750   36.9131  H     
116  H         9.1172    3.9009   22.9957  H     
117  H         7.6142    4.8591   23.1453  H     
@<TRIPOS>BOND
     1    1    2 2
     2    1    6 1
     3    1   13 1
     4    2    3 1
     5    2    7 1
     6    3    4 2
     7    3    8 1
     8    4    5 1
     9    4    9 1
    10    5    6 2
    11    9   10 1
    12    9   11 2
    13   10   12 2
    14   10   14 1
    15   13   17 1
    16   15   16 am
    17   15   61 1
    18   16   17 1
    19   16   18 2
    20   19   22 1
    21   20   21 1
    22   20   63 1
    23   21   22 2
    24   21   26 1
    25   22   23 1
    26   23   24 2
    27   23   27 1
    28   24   25 1
    29   24   28 1
    30   25   26 2
    31   28   29 1
    32   28   30 2
    33   29   31 1
    34   29   32 2
    35   31   33 1
    36   34   47 1
    37   34   56 1
    38   35   36 2
    39   35   40 1
    40   35   49 1
    41   36   37 1
    42   37   38 2
    43   37   41 1
    44   38   39 1
    45   39   40 2
    46   39   44 1
    47   41   42 am
    48   41   43 2
    49   44   45 1
    50   45   46 am
    51   46   47 1
    52   46   48 2
    53   49   50 1
    54   50   51 am
    55   51   52 1
    56   51   53 2
    57   52   54 1
    58   54   55 1
    59   55   57 1
    60   56   60 1
    61   57   58 1
    62   58   59 1
    63   59   62 am
    64   60   61 1
    65   62   63 1
    66   62   64 2
    67    5   65 1
    68    6   66 1
    69   12   67 1
    70   12   68 1
    71   14   69 1
    72   14   70 1
    73   14   71 1
    74   15   72 1
    75   17   73 1
    76   17   74 1
    77   25   75 1
    78   26   76 1
    79   31   77 1
    80   31   78 1
    81   32   79 1
    82   32   80 1
    83   33   81 1
    84   33   82 1
    85   33   83 1
    86   34   84 1
    87   34   85 1
    88   36   86 1
    89   38   87 1
    90   40   88 1
    91   42   89 1
    92   42   90 1
    93   44   91 1
    94   44   92 1
    95   45   93 1
    96   47   94 1
    97   47   95 1
    98   49   96 1
    99   49   97 1
   100   50   98 1
   101   52   99 1
   102   52  100 1
   103   54  101 1
   104   54  102 1
   105   55  103 1
   106   55  104 1
   107   56  105 1
   108   56  106 1
   109   57  107 1
   110   57  108 1
   111   58  109 1
   112   58  110 1
   113   59  111 1
   114   60  112 1
   115   60  113 1
   116   61  114 1
   117   61  115 1
   118   63  116 1
   119   63  117 1
@<TRIPOS>PROPERTY_DATA
  Total_Score	| 3.2346
  Crash		| -5.5688
  Polar		| 2.4199
  FragIndex	| 1
  FragRMSD	| 1.231

