@<TRIPOS>MOLECULE
BindingDB_50186230
 105 107 0 0 0
SMALL
NO_CHARGES


@<TRIPOS>ATOM
1    C         2.1068   -5.1176   36.6716  C     
2    C         0.9460   -4.6778   35.9968  C     
3    C        -0.3398   -5.0935   36.4423  C     
4    C        -0.4706   -5.9597   37.5744  C     
5    C         0.7213   -6.4138   38.1978  C     
6    C         1.9860   -6.0090   37.7501  C     
7    Cl        1.1541   -3.6585   34.6489  Cl    
8    Cl       -1.7027   -4.6006   35.5405  Cl    
9    C        -1.7123   -6.3671   38.1033  C     
10   C        -2.3106   -7.5595   37.8160  C     
11   O        -2.3064   -5.6584   38.9062  O     
12   C        -2.2055   -8.5930   38.6725  C     
13   O         3.3680   -4.7462   36.2750  O     
14   C        -3.0638   -7.6675   36.5713  C     
15   C         6.1346   -1.0970   33.2863  C     
16   C         5.7252    6.8957   30.4356  C     
17   C         4.4946    7.0000   31.1212  C     
18   C         3.9261    5.9129   31.8307  C     
19   C         4.6498    4.6921   31.8438  C     
20   C         5.8835    4.5437   31.1687  C     
21   C         6.4030    5.6569   30.4695  C     
22   C         2.6983    6.0410   32.4963  C     
23   N         2.0978    7.1962   32.6988  N     
24   O         2.1094    5.0673   32.9433  O     
25   C         6.6382    3.2622   31.1032  C     
26   N         6.5000    2.3628   32.2107  N     
27   C         6.8125    1.0709   32.2173  C     
28   C         6.7771    0.3080   33.4529  C     
29   O         7.1875    0.4968   31.2018  O     
30   C         6.2138    8.0890   29.6852  C     
31   N         7.2894    7.9192   28.7594  N     
32   C         8.5865    7.8497   29.0346  C     
33   C         9.5409    7.7788   27.9422  C     
34   O         8.9993    7.8540   30.1880  O     
35   C        10.3980    6.4793   27.9382  C     
36   C        10.9200    6.1199   26.5219  C     
37   N         9.8116    5.8611   25.6570  N     
38   C         6.3859   -1.9986   34.5221  C     
39   N         5.1627   -2.4024   35.1441  N     
40   C         9.8026    5.9092   24.3346  C     
41   C         8.5701    5.5816   23.6471  C     
42   O        10.7932    6.2223   23.6841  O     
43   O         8.2691    4.1709   23.6969  O     
44   C         7.5631    3.7090   24.7815  C     
45   C         8.1715    2.8994   25.7669  C     
46   C         7.3911    2.3435   26.8170  C     
47   C         5.9790    2.5666   26.8670  C     
48   C         5.4006    3.3730   25.8544  C     
49   C         6.1766    3.9329   24.8302  C     
50   Cl        9.8391    2.5862   25.6286  Cl    
51   Cl        8.1891    1.4408   28.0266  Cl    
52   C         5.1350    1.9811   27.8346  C     
53   C         4.2946    2.6485   28.7087  C     
54   O         5.0873    0.7564   27.8499  O     
55   C         3.3818    1.9036   29.5940  C     
56   C         4.3342    3.9909   28.8282  C     
57   C         4.1138    1.2296   30.7774  C     
58   C         5.0822   -3.1446   36.2416  C     
59   C         3.7876   -3.4697   36.7990  C     
60   O         6.0899   -3.5511   36.8090  O     
61   H         0.6883   -7.0347   39.0109  H     
62   H         2.8239   -6.3516   38.2272  H     
63   H        -2.6366   -9.4655   38.4784  H     
64   H        -1.6901   -8.5133   39.5195  H     
65   H        -3.8800   -6.9401   36.5682  H     
66   H        -3.5010   -8.6593   36.4270  H     
67   H        -2.4115   -7.4647   35.7183  H     
68   H         5.0566   -0.9789   33.1449  H     
69   H         6.5412   -1.5919   32.3996  H     
70   H         3.9973    7.8932   31.0805  H     
71   H         4.2697    3.8907   32.3506  H     
72   H         7.2803    5.5482   29.9560  H     
73   H         1.2530    7.2396   33.1765  H     
74   H         2.5039    8.0201   32.3901  H     
75   H         6.3818    2.7737   30.1644  H     
76   H         7.6945    3.5019   31.0541  H     
77   H         6.2708    2.7639   33.0652  H     
78   H         6.2214    0.8584   34.2191  H     
79   H         7.8023    0.1923   33.8143  H     
80   H         5.3760    8.4632   29.0919  H     
81   H         6.4837    8.8769   30.3934  H     
82   H         7.0441    7.9232   27.8205  H     
83   H         9.0048    7.8584   26.9921  H     
84   H        10.2057    8.6440   27.9970  H     
85   H        11.2514    6.6144   28.6100  H     
86   H         9.8097    5.6353   28.3133  H     
87   H        11.5233    6.9463   26.1344  H     
88   H        11.5469    5.2266   26.5787  H     
89   H         8.9703    5.6371   26.0862  H     
90   H         6.9435   -2.8878   34.2179  H     
91   H         6.9848   -1.4462   35.2499  H     
92   H         4.3324   -2.0835   34.7543  H     
93   H         7.7468    6.1940   24.0287  H     
94   H         8.6765    5.8349   22.5915  H     
95   H         4.3896    3.5318   25.8249  H     
96   H         5.7212    4.4801   24.0953  H     
97   H         2.6095    2.5707   29.9894  H     
98   H         2.8444    1.1258   29.0424  H     
99   H         3.7529    4.4681   29.4773  H     
100  H         4.9392    4.5465   28.2720  H     
101  H         4.5577    1.9803   31.4322  H     
102  H         4.8924    0.5607   30.4138  H     
103  H         3.4039    0.6416   31.3616  H     
104  H         3.0712   -2.6892   36.5273  H     
105  H         3.8550   -3.4976   37.8937  H     
@<TRIPOS>BOND
     1    1    2 2
     2    1    6 1
     3    1   13 1
     4    2    3 1
     5    2    7 1
     6    3    4 2
     7    3    8 1
     8    4    5 1
     9    4    9 1
    10    5    6 2
    11    9   10 1
    12    9   11 2
    13   10   12 2
    14   10   14 1
    15   13   59 1
    16   15   28 1
    17   15   38 1
    18   16   17 2
    19   16   21 1
    20   16   30 1
    21   17   18 1
    22   18   19 2
    23   18   22 1
    24   19   20 1
    25   20   21 2
    26   20   25 1
    27   22   23 am
    28   22   24 2
    29   25   26 1
    30   26   27 am
    31   27   28 1
    32   27   29 2
    33   30   31 1
    34   31   32 am
    35   32   33 1
    36   32   34 2
    37   33   35 1
    38   35   36 1
    39   36   37 1
    40   37   40 am
    41   38   39 1
    42   39   58 am
    43   40   41 1
    44   40   42 2
    45   41   43 1
    46   43   44 1
    47   44   45 2
    48   44   49 1
    49   45   46 1
    50   45   50 1
    51   46   47 2
    52   46   51 1
    53   47   48 1
    54   47   52 1
    55   48   49 2
    56   52   53 1
    57   52   54 2
    58   53   55 1
    59   53   56 2
    60   55   57 1
    61   58   59 1
    62   58   60 2
    63    5   61 1
    64    6   62 1
    65   12   63 1
    66   12   64 1
    67   14   65 1
    68   14   66 1
    69   14   67 1
    70   15   68 1
    71   15   69 1
    72   17   70 1
    73   19   71 1
    74   21   72 1
    75   23   73 1
    76   23   74 1
    77   25   75 1
    78   25   76 1
    79   26   77 1
    80   28   78 1
    81   28   79 1
    82   30   80 1
    83   30   81 1
    84   31   82 1
    85   33   83 1
    86   33   84 1
    87   35   85 1
    88   35   86 1
    89   36   87 1
    90   36   88 1
    91   37   89 1
    92   38   90 1
    93   38   91 1
    94   39   92 1
    95   41   93 1
    96   41   94 1
    97   48   95 1
    98   49   96 1
    99   55   97 1
   100   55   98 1
   101   56   99 1
   102   56  100 1
   103   57  101 1
   104   57  102 1
   105   57  103 1
   106   59  104 1
   107   59  105 1
@<TRIPOS>PROPERTY_DATA
  Total_Score	| 1.6953
  Crash		| -4.4905
  Polar		| 2.0078
  FragIndex	| 1
  FragRMSD	| 1.159

