@<TRIPOS>MOLECULE
BindingDB_50186231
 30 30 0 0 0
SMALL
NO_CHARGES


@<TRIPOS>ATOM
1    C        10.0488    5.6571   23.0926  C     
2    C         8.6829    5.4647   23.6285  C     
3    O         8.4072    4.0527   23.7516  O     
4    C         7.7020    3.6971   24.8664  C     
5    C         8.3473    2.9822   25.8999  C     
6    Cl       10.0005    2.6292   25.7036  Cl    
7    C         7.6491    2.6523   27.0898  C     
8    Cl        8.4939    1.9817   28.4135  Cl    
9    C         6.2648    2.9928   27.2063  C     
10   C         5.6252    3.6648   26.1340  C     
11   C         6.3251    3.9897   24.9698  C     
12   C         5.5319    2.7875   28.3865  C     
13   C         5.2345    1.5452   28.8618  C     
14   C         5.9686    0.9468   29.9924  C     
15   C         6.5730    1.8912   31.0818  C     
16   C         4.3307    0.7915   28.1994  C     
17   O         4.7589    3.6650   28.7523  O     
18   O        11.0893    4.9388   23.5644  O     
19   O        10.3512    6.7385   22.3338  O     
20   H         8.5858    6.0422   24.5575  H     
21   H         7.9630    5.8567   22.8995  H     
22   H         4.6390    3.9501   26.2160  H     
23   H         5.8444    4.4868   24.2226  H     
24   H         5.2991    0.2856   30.5469  H     
25   H         6.7861    0.3395   29.5718  H     
26   H         7.2277    2.6651   30.6284  H     
27   H         7.1385    1.2979   31.7903  H     
28   H         5.7642    2.3988   31.6166  H     
29   H         4.1659   -0.1582   28.4663  H     
30   H         3.8224    1.1436   27.4272  H     
@<TRIPOS>BOND
     1    1    2 1
     2    1   18 2
     3    1   19 1
     4    2    3 1
     5    3    4 1
     6    4    5 2
     7    4   11 1
     8    5    6 1
     9    5    7 1
    10    7    8 1
    11    7    9 2
    12    9   10 1
    13    9   12 1
    14   10   11 2
    15   12   13 1
    16   12   17 2
    17   13   14 1
    18   13   16 2
    19   14   15 1
    20    2   20 1
    21    2   21 1
    22   10   22 1
    23   11   23 1
    24   14   24 1
    25   14   25 1
    26   15   26 1
    27   15   27 1
    28   15   28 1
    29   16   29 1
    30   16   30 1
@<TRIPOS>PROPERTY_DATA
  Total_Score	| 2.4782
  Crash		| -0.9237
  Polar		| 1.8407
  FragIndex	| 1
  FragRMSD	| 1.345

