@<TRIPOS>MOLECULE
BindingDB_50300261
 36 37 0 0 0
SMALL
NO_CHARGES


@<TRIPOS>ATOM
1    C         5.5476    3.2683   26.0050  C     
2    C         6.2801    3.9214   25.0019  C     
3    C         7.6819    3.8170   24.9621  C     
4    C         8.3484    2.9947   25.8997  C     
5    C         7.6109    2.3443   26.9230  C     
6    C         6.1945    2.4831   26.9868  C     
7    O         8.3457    4.4732   23.9513  O     
8    C         8.8513    5.7781   24.3249  C     
9    C         9.3970    6.4369   23.1318  C     
10   O        10.6438    6.2755   22.6244  O     
11   N        10.7367    6.9950   21.5456  N     
12   C         9.5599    7.6201   21.3646  C     
13   N         8.7144    7.2815   22.3502  N     
14   C         9.2531    8.5046   20.2336  C     
15   C         5.4176    1.8594   27.9651  C     
16   O         4.5397    1.0857   27.6090  O     
17   C         5.3201    2.3539   29.2338  C     
18   C         5.7786    1.5358   30.3679  C     
19   C         4.6159    3.4835   29.4427  C     
20   Cl        8.4317    1.3497   28.0333  Cl    
21   Cl       10.0290    2.7904   25.7521  Cl    
22   C         6.7776    2.2415   31.3176  C     
23   H         4.5354    3.3826   26.0146  H     
24   H         5.7894    4.4778   24.2952  H     
25   H         8.0618    6.4116   24.7517  H     
26   H         9.6586    5.6936   25.0568  H     
27   H         9.9312    9.3585   20.2368  H     
28   H         8.2283    8.8668   20.3064  H     
29   H         9.3696    7.9558   19.2975  H     
30   H         4.9076    1.2204   30.9538  H     
31   H         6.2617    0.6157   30.0163  H     
32   H         4.4305    3.8183   30.3568  H     
33   H         4.2395    4.0108   28.6887  H     
34   H         7.6038    2.6782   30.7548  H     
35   H         7.1767    1.5166   32.0349  H     
36   H         6.2819    3.0332   31.8812  H     
@<TRIPOS>BOND
     1    1    2 2
     2    1    6 1
     3    2    3 1
     4    3    4 2
     5    3    7 1
     6    4    5 1
     7    4   21 1
     8    5    6 2
     9    5   20 1
    10    6   15 1
    11    7    8 1
    12    8    9 1
    13    9   10 1
    14    9   13 2
    15   10   11 1
    16   11   12 2
    17   12   13 1
    18   12   14 1
    19   15   16 2
    20   15   17 1
    21   17   18 1
    22   17   19 2
    23   18   22 1
    24    1   23 1
    25    2   24 1
    26    8   25 1
    27    8   26 1
    28   14   27 1
    29   14   28 1
    30   14   29 1
    31   18   30 1
    32   18   31 1
    33   19   32 1
    34   19   33 1
    35   22   34 1
    36   22   35 1
    37   22   36 1
@<TRIPOS>PROPERTY_DATA
  Total_Score	| 2.8891
  Crash		| -0.6686
  Polar		| 2.2736
  FragIndex	| 1
  FragRMSD	| 0.270

