@<TRIPOS>MOLECULE
BindingDB_50300262
 43 45 0 0 0
SMALL
NO_CHARGES


@<TRIPOS>ATOM
1    C         5.4590    3.2361   26.1643  C     
2    C         6.2061    3.8278   25.1317  C     
3    C         7.5963    3.6423   25.0413  C     
4    C         8.2407    2.8232   26.0126  C     
5    C         7.4872    2.2213   27.0605  C     
6    C         6.0806    2.4249   27.1379  C     
7    O         8.1462    4.1127   23.8748  O     
8    C         9.4847    4.6329   23.8117  C     
9    C         9.5760    5.9628   23.1975  C     
10   O         8.5753    6.8312   22.9354  O     
11   N         9.1057    7.8854   22.3725  N     
12   C        10.4399    7.7100   22.2832  C     
13   N        10.7298    6.5034   22.7846  N     
14   C        11.3912    8.6066   21.7342  C     
15   C         5.2733    1.7956   28.0863  C     
16   O         4.5054    0.9253   27.6946  O     
17   C         5.1498    2.2286   29.3762  C     
18   C         5.6996    1.4128   30.4622  C     
19   C         4.3965    3.3126   29.6455  C     
20   Cl        8.2571    1.1606   28.1623  Cl    
21   C        12.6455    8.8176   22.3594  C     
22   C        13.6076    9.6760   21.7972  C     
23   C        13.3244   10.3506   20.5976  C     
24   C        12.0835   10.1666   19.9644  C     
25   C        11.1238    9.3027   20.5287  C     
26   Cl        9.8943    2.4719   25.8602  Cl    
27   C         6.7529    2.1486   31.3322  C     
28   H         4.4479    3.3897   26.1849  H     
29   H         5.7134    4.3656   24.4187  H     
30   H         9.9848    4.7089   24.7675  H     
31   H        10.0588    3.9449   23.1901  H     
32   H         4.8860    1.0807   31.1110  H     
33   H         6.1796    0.5093   30.0771  H     
34   H         4.2321    3.5939   30.5828  H     
35   H         3.9774    3.8509   28.9273  H     
36   H        12.8728    8.3591   23.2447  H     
37   H        14.5112    9.8094   22.2509  H     
38   H        14.0279   10.9703   20.1846  H     
39   H        11.8823   10.6496   19.0890  H     
40   H        10.2321    9.1778   20.0464  H     
41   H         7.5586    2.5416   30.7063  H     
42   H         7.1933    1.4588   32.0595  H     
43   H         6.3024    2.9797   31.8817  H     
@<TRIPOS>BOND
     1    1    2 2
     2    1    6 1
     3    2    3 1
     4    3    4 2
     5    3    7 1
     6    4    5 1
     7    4   26 1
     8    5    6 2
     9    5   20 1
    10    6   15 1
    11    7    8 1
    12    8    9 1
    13    9   10 1
    14    9   13 2
    15   10   11 1
    16   11   12 2
    17   12   13 1
    18   12   14 1
    19   14   21 2
    20   14   25 1
    21   15   16 2
    22   15   17 1
    23   17   18 1
    24   17   19 2
    25   18   27 1
    26   21   22 1
    27   22   23 2
    28   23   24 1
    29   24   25 2
    30    1   28 1
    31    2   29 1
    32    8   30 1
    33    8   31 1
    34   18   32 1
    35   18   33 1
    36   19   34 1
    37   19   35 1
    38   21   36 1
    39   22   37 1
    40   23   38 1
    41   24   39 1
    42   25   40 1
    43   27   41 1
    44   27   42 1
    45   27   43 1
@<TRIPOS>PROPERTY_DATA
  Total_Score	| 4.1192
  Crash		| -0.7776
  Polar		| 1.2771
  FragIndex	| 1
  FragRMSD	| 0.733

