@<TRIPOS>MOLECULE
BindingDB_50300266
 43 45 0 0 0
SMALL
NO_CHARGES


@<TRIPOS>ATOM
1    C         5.5901    3.3291   26.0884  C     
2    C         6.3356    3.9773   25.0904  C     
3    C         7.7382    3.8252   25.0287  C     
4    C         8.3762    2.9435   25.9293  C     
5    C         7.6353    2.3199   26.9691  C     
6    C         6.2334    2.5384   27.0663  C     
7    O         8.4068    4.4888   24.0272  O     
8    C         8.9037    5.7702   24.4410  C     
9    C         9.4148    6.4346   23.2372  C     
10   O        10.6869    6.3331   22.7527  O     
11   N        10.7244    6.9726   21.6194  N     
12   C         9.5048    7.4976   21.3932  C     
13   N         8.6658    7.1754   22.3837  N     
14   C         9.1360    8.1721   20.2358  C     
15   C         5.4429    1.9630   28.0372  C     
16   O         4.7350    1.0322   27.6943  O     
17   C         5.3424    2.4362   29.3093  C     
18   C         5.6557    1.5604   30.4479  C     
19   C         4.9103    3.6969   29.5585  C     
20   Cl        8.4122    1.2406   28.0310  Cl    
21   C         9.0452    7.4554   19.0285  C     
22   C         8.6384    8.1083   17.8542  C     
23   C         8.3669    9.4923   17.8718  C     
24   C         8.4773   10.2109   19.0812  C     
25   C         8.8368    9.5479   20.2682  C     
26   Cl        7.9020   10.2798   16.4504  Cl    
27   Cl       10.0298    2.6162   25.6949  Cl    
28   C         7.0110    1.9072   31.1268  C     
29   H         4.5723    3.4391   26.0824  H     
30   H         5.8456    4.5552   24.3948  H     
31   H         8.1320    6.4021   24.8762  H     
32   H         9.7303    5.6714   25.1417  H     
33   H         4.8560    1.6351   31.2083  H     
34   H         5.6858    0.4987   30.1520  H     
35   H         4.8313    4.0406   30.4913  H     
36   H         4.6590    4.3064   28.8259  H     
37   H         9.2482    6.4515   18.9939  H     
38   H         8.5341    7.5637   16.9911  H     
39   H         8.2957   11.2195   19.1014  H     
40   H         8.8953   10.0830   21.1402  H     
41   H         7.8371    1.6064   30.4863  H     
42   H         7.1003    1.3708   32.0776  H     
43   H         7.0818    2.9805   31.3218  H     
@<TRIPOS>BOND
     1    1    2 2
     2    1    6 1
     3    2    3 1
     4    3    4 2
     5    3    7 1
     6    4    5 1
     7    4   27 1
     8    5    6 2
     9    5   20 1
    10    6   15 1
    11    7    8 1
    12    8    9 1
    13    9   10 1
    14    9   13 2
    15   10   11 1
    16   11   12 2
    17   12   13 1
    18   12   14 1
    19   14   21 2
    20   14   25 1
    21   15   16 2
    22   15   17 1
    23   17   18 1
    24   17   19 2
    25   18   28 1
    26   21   22 1
    27   22   23 2
    28   23   24 1
    29   23   26 1
    30   24   25 2
    31    1   29 1
    32    2   30 1
    33    8   31 1
    34    8   32 1
    35   18   33 1
    36   18   34 1
    37   19   35 1
    38   19   36 1
    39   21   37 1
    40   22   38 1
    41   24   39 1
    42   25   40 1
    43   28   41 1
    44   28   42 1
    45   28   43 1
@<TRIPOS>PROPERTY_DATA
  Total_Score	| 4.1765
  Crash		| -1.2069
  Polar		| 2.6958
  FragIndex	| 1
  FragRMSD	| 0.300

