@<TRIPOS>MOLECULE
BindingDB_50186228
 82 84 0 0 0
SMALL
NO_CHARGES


@<TRIPOS>ATOM
1    C        12.2992    8.3155   25.0726  C     
2    C        13.5766    8.4598   24.4902  C     
3    C        13.7534    8.7230   23.1127  C     
4    C        12.5918    8.7758   22.2995  C     
5    C        11.3019    8.5854   22.8395  C     
6    C        11.1720    8.4290   24.2334  C     
7    C        15.0326    8.8746   22.5708  C     
8    N        15.2629    9.2735   21.3326  N     
9    O        16.0400    8.5884   23.2115  O     
10   C        10.1091    8.4851   21.9411  C     
11   N         9.0834    7.5711   22.3752  N     
12   C         9.2764    6.3822   22.9441  C     
13   C         7.6325    3.7488   24.8793  C     
14   C         6.2281    3.8834   24.9006  C     
15   C         5.4703    3.2891   25.9202  C     
16   C         6.0721    2.4881   26.9192  C     
17   C         7.4857    2.3010   26.8685  C     
18   C         8.2564    2.9488   25.8646  C     
19   Cl        9.9433    2.7567   25.7877  Cl    
20   Cl        8.2556    1.2034   27.9163  Cl    
21   C         5.2278    1.9076   27.8903  C     
22   O         4.1380    1.4660   27.5228  O     
23   C         5.4027    2.0112   29.2501  C     
24   C         5.7459    3.3012   29.8644  C     
25   C         5.0383    0.9714   30.0461  C     
26   C         6.5398    3.2287   31.1954  C     
27   O         8.4174    4.3075   23.8831  O     
28   C         8.1228    5.6624   23.4600  C     
29   O        10.4012    5.9332   23.1112  O     
30   C        12.2032    8.0371   26.5285  C     
31   N        10.8854    7.9008   27.0629  N     
32   C        10.0034    6.9415   26.8047  C     
33   C         8.6722    6.9891   27.3744  C     
34   O        10.3408    5.9345   26.1821  O     
35   O         8.1660    8.3403   27.3616  O     
36   C         6.9671    8.5287   27.9766  C     
37   C         5.7508    8.3165   27.2909  C     
38   C         4.5133    8.5543   27.9389  C     
39   C         4.5029    9.0156   29.2860  C     
40   C         5.7328    9.2662   29.9356  C     
41   C         6.9535    9.0369   29.2836  C     
42   Cl        5.8214    7.7762   25.6823  Cl    
43   Cl        3.0609    8.2496   27.1014  Cl    
44   C         3.3254    9.2537   29.9953  C     
45   C         2.8155    8.3194   30.8512  C     
46   O         2.5775   10.1466   29.6171  O     
47   C         3.5336    8.0474   32.1069  C     
48   C         1.7160    7.6229   30.4825  C     
49   C         2.6995    7.6615   33.3621  C     
50   H        14.4025    8.3875   25.0986  H     
51   H        12.6749    8.9170   21.2892  H     
52   H        10.2361    8.3486   24.6336  H     
53   H        16.1760    9.3426   21.0016  H     
54   H        14.5228    9.5089   20.7454  H     
55   H         9.6592    9.4771   21.8564  H     
56   H        10.4130    8.1677   20.9360  H     
57   H         8.1619    7.8755   22.2934  H     
58   H         5.7504    4.4209   24.1795  H     
59   H         4.4602    3.4444   25.8990  H     
60   H         6.3514    3.9103   29.1812  H     
61   H         4.8235    3.8586   30.0486  H     
62   H         5.0636    1.0414   31.0342  H     
63   H         4.7577    0.0992   29.6520  H     
64   H         5.8814    2.9274   32.0196  H     
65   H         6.9525    4.2142   31.4393  H     
66   H         7.3668    2.5156   31.1266  H     
67   H         7.7346    6.2371   24.3114  H     
68   H         7.3683    5.6393   22.6687  H     
69   H        12.7847    7.1397   26.7590  H     
70   H        12.6676    8.8701   27.0564  H     
71   H        10.5737    8.6171   27.6346  H     
72   H         8.0026    6.3399   26.8028  H     
73   H         8.7414    6.6079   28.3932  H     
74   H         5.7575    9.6446   30.8871  H     
75   H         7.8300    9.2484   29.7676  H     
76   H         4.2659    7.2453   31.9243  H     
77   H         4.1123    8.9459   32.4014  H     
78   H         1.3406    6.9116   31.0688  H     
79   H         1.2809    7.7903   29.5968  H     
80   H         1.8963    8.3929   33.5142  H     
81   H         3.3404    7.6631   34.2561  H     
82   H         2.2622    6.6606   33.2514  H     
@<TRIPOS>BOND
     1    1    2 2
     2    1    6 1
     3    1   30 1
     4    2    3 1
     5    3    4 2
     6    3    7 1
     7    4    5 1
     8    5    6 2
     9    5   10 1
    10    7    8 am
    11    7    9 2
    12   10   11 1
    13   11   12 am
    14   12   28 1
    15   12   29 2
    16   13   14 2
    17   13   18 1
    18   13   27 1
    19   14   15 1
    20   15   16 2
    21   16   17 1
    22   16   21 1
    23   17   18 2
    24   17   20 1
    25   18   19 1
    26   21   22 2
    27   21   23 1
    28   23   24 1
    29   23   25 2
    30   24   26 1
    31   27   28 1
    32   30   31 1
    33   31   32 am
    34   32   33 1
    35   32   34 2
    36   33   35 1
    37   35   36 1
    38   36   37 2
    39   36   41 1
    40   37   38 1
    41   37   42 1
    42   38   39 2
    43   38   43 1
    44   39   40 1
    45   39   44 1
    46   40   41 2
    47   44   45 1
    48   44   46 2
    49   45   47 1
    50   45   48 2
    51   47   49 1
    52    2   50 1
    53    4   51 1
    54    6   52 1
    55    8   53 1
    56    8   54 1
    57   10   55 1
    58   10   56 1
    59   11   57 1
    60   14   58 1
    61   15   59 1
    62   24   60 1
    63   24   61 1
    64   25   62 1
    65   25   63 1
    66   26   64 1
    67   26   65 1
    68   26   66 1
    69   28   67 1
    70   28   68 1
    71   30   69 1
    72   30   70 1
    73   31   71 1
    74   33   72 1
    75   33   73 1
    76   40   74 1
    77   41   75 1
    78   47   76 1
    79   47   77 1
    80   48   78 1
    81   48   79 1
    82   49   80 1
    83   49   81 1
    84   49   82 1
@<TRIPOS>PROPERTY_DATA
  Total_Score	| 5.0885
  Crash		| -2.5727
  Polar		| 3.1552
  FragIndex	| 1
  FragRMSD	| 0.962

