@<TRIPOS>MOLECULE
BindingDB_50186226
 62 63 0 0 0
SMALL
NO_CHARGES


@<TRIPOS>ATOM
1    C         7.6627    3.7449   25.0780  C     
2    C         6.2641    3.8494   25.1081  C     
3    C         5.5250    3.1943   26.1026  C     
4    C         6.1582    2.3867   27.0773  C     
5    C         7.5799    2.2539   27.0331  C     
6    C         8.3245    2.9332   26.0314  C     
7    Cl       10.0203    2.8118   25.9414  Cl    
8    Cl        8.3851    1.2383   28.1431  Cl    
9    C         5.3600    1.7573   28.0382  C     
10   O         4.5520    0.9208   27.6616  O     
11   C         5.2119    2.2242   29.3069  C     
12   C         5.7441    1.4458   30.4328  C     
13   C         4.4158    3.2909   29.5292  C     
14   C         6.7795    2.1847   31.3150  C     
15   C        14.6843    9.8331   21.5034  C     
16   C        15.0397    9.1325   22.6657  C     
17   C        14.2269    9.1657   23.8283  C     
18   C        13.0451    9.9557   23.7742  C     
19   C        12.6898   10.6923   22.6199  C     
20   C        13.5099   10.6028   21.4754  C     
21   C        14.5896    8.4490   24.9767  C     
22   N        13.8147    8.3334   26.0395  N     
23   O        15.6745    7.8857   25.0599  O     
24   C        11.4629   11.5264   22.5958  C     
25   N        10.4709   10.8912   21.7952  N     
26   C         9.3921   10.2627   22.2326  C     
27   C         8.5230    9.6277   21.2620  C     
28   O         9.1191   10.1964   23.4240  O     
29   C         9.1827    8.4622   20.4653  C     
30   C        10.0154    7.4570   21.3004  C     
31   N         9.2559    6.9451   22.3959  N     
32   C         9.7052    6.1028   23.3175  C     
33   C         8.8501    5.6739   24.3989  C     
34   O        10.8392    5.6456   23.2607  O     
35   O         8.3546    4.3640   24.0673  O     
36   H         5.7801    4.4203   24.4127  H     
37   H         4.5069    3.3349   26.1240  H     
38   H         4.8967    1.1410   31.0649  H     
39   H         6.2166    0.5209   30.0727  H     
40   H         4.2067    3.5882   30.4513  H     
41   H         3.9988    3.8015   28.7847  H     
42   H         7.6051    2.5544   30.7059  H     
43   H         7.1808    1.4895   32.0619  H     
44   H         6.3179    3.0299   31.8397  H     
45   H        15.2831    9.7891   20.6746  H     
46   H        15.9039    8.5855   22.6466  H     
47   H        12.4277   10.0047   24.5883  H     
48   H        13.2630   11.1020   20.6179  H     
49   H        14.1091    7.8190   26.8083  H     
50   H        12.9399    8.7494   26.0558  H     
51   H        11.1022   11.7201   23.6104  H     
52   H        11.6701   12.5024   22.1506  H     
53   H        10.6261   10.8898   20.8348  H     
54   H         7.6217    9.2520   21.7551  H     
55   H         8.1955   10.3912   20.5519  H     
56   H         8.3874    7.9053   19.9560  H     
57   H         9.8309    8.8782   19.6896  H     
58   H        10.3249    6.6339   20.6508  H     
59   H        10.9158    7.9496   21.6746  H     
60   H         8.3355    7.2387   22.4735  H     
61   H         9.4390    5.6587   25.3231  H     
62   H         8.0206    6.3755   24.5392  H     
@<TRIPOS>BOND
     1    1    2 2
     2    1    6 1
     3    1   35 1
     4    2    3 1
     5    3    4 2
     6    4    5 1
     7    4    9 1
     8    5    6 2
     9    5    8 1
    10    6    7 1
    11    9   10 2
    12    9   11 1
    13   11   12 1
    14   11   13 2
    15   12   14 1
    16   15   16 2
    17   15   20 1
    18   16   17 1
    19   17   18 2
    20   17   21 1
    21   18   19 1
    22   19   20 2
    23   19   24 1
    24   21   22 am
    25   21   23 2
    26   24   25 1
    27   25   26 am
    28   26   27 1
    29   26   28 2
    30   27   29 1
    31   29   30 1
    32   30   31 1
    33   31   32 am
    34   32   33 1
    35   32   34 2
    36   33   35 1
    37    2   36 1
    38    3   37 1
    39   12   38 1
    40   12   39 1
    41   13   40 1
    42   13   41 1
    43   14   42 1
    44   14   43 1
    45   14   44 1
    46   15   45 1
    47   16   46 1
    48   18   47 1
    49   20   48 1
    50   22   49 1
    51   22   50 1
    52   24   51 1
    53   24   52 1
    54   25   53 1
    55   27   54 1
    56   27   55 1
    57   29   56 1
    58   29   57 1
    59   30   58 1
    60   30   59 1
    61   31   60 1
    62   33   61 1
    63   33   62 1
@<TRIPOS>PROPERTY_DATA
  Total_Score	| 6.3567
  Crash		| -1.2060
  Polar		| 4.6034
  FragIndex	| 1
  FragRMSD	| 0.164

