@<TRIPOS>MOLECULE
BindingDB_50186227
 137 139 0 0 0
SMALL
NO_CHARGES


@<TRIPOS>ATOM
1    O         8.3807    4.4083   24.0097  O     
2    C         7.6766    3.7975   25.0112  C     
3    C         8.3513    3.0330   25.9914  C     
4    C         7.6167    2.3477   26.9927  C     
5    C         6.1979    2.4653   27.0442  C     
6    C         5.5442    3.2191   26.0412  C     
7    C         6.2695    3.8627   25.0335  C     
8    Cl       10.0466    2.9400   25.8978  Cl    
9    Cl        8.4390    1.3057   28.0602  Cl    
10   C         5.4261    1.8088   28.0075  C     
11   C         5.2814    2.3083   29.2750  C     
12   O         4.5635    1.0303   27.6194  O     
13   C         5.7067    1.5057   30.4286  C     
14   C         4.6169    3.4668   29.4664  C     
15   C         6.6429    2.2662   31.3970  C     
16   N         8.9613    7.2378   22.2763  N     
17   C         8.4847   17.7505   23.8899  C     
18   C         5.7114   11.4234   25.0335  C     
19   C         5.7233   11.2472   26.4330  C     
20   C         5.2809   12.2590   27.3218  C     
21   C         4.8343   13.4804   26.7493  C     
22   C         4.8120   13.6891   25.3548  C     
23   C         5.2539   12.6518   24.5055  C     
24   C         5.2792   12.0679   28.7126  C     
25   N         5.6297   10.9442   29.2989  N     
26   O         4.9401   12.9592   29.4788  O     
27   C         4.3848   14.9961   24.7870  C     
28   N         5.3798   15.9720   25.1032  N     
29   C         6.2536   16.5317   24.2685  C     
30   C         7.2880   17.3921   24.8176  C     
31   O         6.2023   16.3054   23.0624  O     
32   C         6.1173   10.3215   24.1258  C     
33   N         4.9421    9.7177   23.5770  N     
34   C         4.4352    8.5318   23.8876  C     
35   C         3.2585    8.0339   23.1815  C     
36   O         4.9541    7.8145   24.7364  O     
37   C         3.5901    6.9445   22.1221  C     
38   C         4.3170    7.4897   20.8573  C     
39   C         9.2216   16.5111   23.3098  C     
40   C         5.4818    6.5609   20.4008  C     
41   C         6.4055    7.1698   19.3054  C     
42   C         7.4814    8.1649   19.8740  C     
43   C        10.4878   16.8890   22.4892  C     
44   C        11.0524   15.7300   21.6217  C     
45   C        11.6169   14.5063   22.4073  C     
46   C         8.9734    7.6779   19.8419  C     
47   C         9.6990    7.8678   21.2100  C     
48   C        10.5378   13.4710   22.8148  C     
49   N        11.1467   12.3334   23.4377  N     
50   C         9.4309    6.3416   23.1501  C     
51   C         8.5337    5.8358   24.1792  C     
52   O        10.6132    5.9843   23.1298  O     
53   C        11.6557   11.2752   22.8221  C     
54   C        12.3390   10.2500   23.5833  C     
55   O        11.6597   11.1857   21.5994  O     
56   O        13.7287   10.6089   23.7421  O     
57   C        14.0611   11.0052   25.0166  C     
58   C        14.6081   10.0878   25.9398  C     
59   C        14.9766   10.5101   27.2436  C     
60   C        14.7764   11.8653   27.6451  C     
61   C        14.1798   12.7474   26.7128  C     
62   C        13.8690   12.3403   25.4132  C     
63   Cl       14.7763    8.4785   25.4216  Cl    
64   Cl       15.6555    9.3784   28.3158  Cl    
65   C        15.1051   12.4078   29.0057  C     
66   C        16.0906   13.5190   29.0091  C     
67   O        13.8561   12.7025   29.6404  O     
68   C        17.5072   13.3183   28.6556  C     
69   C        18.0477   11.8850   28.4125  C     
70   C        15.7151   14.7836   29.3409  C     
71   H         4.5192    3.2809   26.0253  H     
72   H         5.7675    4.3636   24.3016  H     
73   H         4.8253    1.1743   30.9843  H     
74   H         6.2339    0.5966   30.1140  H     
75   H         4.4514    3.8224   30.3815  H     
76   H         4.2654    4.0018   28.7037  H     
77   H         7.5512    2.5768   30.8792  H     
78   H         6.9197    1.6089   32.2239  H     
79   H         6.1590    3.1532   31.8084  H     
80   H         8.0348    7.5603   22.3685  H     
81   H         8.1284   18.3722   23.0665  H     
82   H         9.1962   18.3415   24.4698  H     
83   H         6.0547   10.3524   26.8033  H     
84   H         4.5123   14.2367   27.3636  H     
85   H         5.2471   12.7920   23.4937  H     
86   H         5.5999   10.8760   30.2674  H     
87   H         5.9131   10.1769   28.7778  H     
88   H         4.2067   14.9113   23.7121  H     
89   H         3.4414   15.3188   25.2318  H     
90   H         5.4854   16.1916   26.0450  H     
91   H         7.7029   16.9224   25.7149  H     
92   H         6.8102   18.3232   25.1324  H     
93   H         6.7225   10.7107   23.3044  H     
94   H         6.7447    9.5922   24.6455  H     
95   H         4.4584   10.2412   22.9162  H     
96   H         2.5739    7.6017   23.9185  H     
97   H         2.7201    8.8476   22.6872  H     
98   H         4.1930    6.1714   22.6102  H     
99   H         2.6629    6.4591   21.8049  H     
100  H         3.5941    7.6025   20.0409  H     
101  H         4.7042    8.4852   21.0696  H     
102  H         9.5149   15.8517   24.1324  H     
103  H         8.5347   15.9551   22.6669  H     
104  H         6.1154    6.3008   21.2555  H     
105  H         5.0583    5.6327   20.0080  H     
106  H         6.8886    6.3390   18.7599  H     
107  H         5.7770    7.7024   18.5802  H     
108  H         7.4213    9.1109   19.3161  H     
109  H         7.2365    8.4129   20.9070  H     
110  H        10.2423   17.7158   21.8143  H     
111  H        11.2638   17.2437   23.1735  H     
112  H        10.2698   15.4162   20.9274  H     
113  H        11.8547   16.1398   21.0040  H     
114  H        12.3473   14.0006   21.7737  H     
115  H        12.1549   14.8214   23.3019  H     
116  H         9.0727    6.6195   19.5566  H     
117  H         9.5131    8.2562   19.0730  H     
118  H         9.7492    8.9477   21.4111  H     
119  H        10.7298    7.4997   21.1128  H     
120  H         9.8424   13.9188   23.5273  H     
121  H         9.9651   13.1865   21.9285  H     
122  H        11.2904   12.3963   24.3978  H     
123  H         7.5399    6.3106   24.1023  H     
124  H         8.9721    6.0991   25.1551  H     
125  H        11.8387   10.0529   24.5426  H     
126  H        12.3116    9.3217   23.0213  H     
127  H        13.9989   13.7232   26.9568  H     
128  H        13.5024   13.0186   24.7499  H     
129  H        15.5257   11.6422   29.6571  H     
130  H        13.4089   13.3660   29.0735  H     
131  H        17.7436   13.8994   27.7536  H     
132  H        18.1101   13.7285   29.4727  H     
133  H        17.8637   11.2480   29.2813  H     
134  H        19.1256   11.9230   28.2343  H     
135  H        17.5754   11.4503   27.5312  H     
136  H        16.3821   15.5200   29.3767  H     
137  H        14.7893   14.9979   29.6147  H     
@<TRIPOS>BOND
     1    1    2 1
     2    1   51 1
     3    2    3 2
     4    2    7 1
     5    3    4 1
     6    3    8 1
     7    4    5 2
     8    4    9 1
     9    5    6 1
    10    5   10 1
    11    6    7 2
    12   10   11 1
    13   10   12 2
    14   11   13 1
    15   11   14 2
    16   13   15 1
    17   16   47 1
    18   16   50 am
    19   17   30 1
    20   17   39 1
    21   18   19 2
    22   18   23 1
    23   18   32 1
    24   19   20 1
    25   20   21 2
    26   20   24 1
    27   21   22 1
    28   22   23 2
    29   22   27 1
    30   24   25 am
    31   24   26 2
    32   27   28 1
    33   28   29 am
    34   29   30 1
    35   29   31 2
    36   32   33 1
    37   33   34 am
    38   34   35 1
    39   34   36 2
    40   35   37 1
    41   37   38 1
    42   38   40 1
    43   39   43 1
    44   40   41 1
    45   41   42 1
    46   42   46 1
    47   43   44 1
    48   44   45 1
    49   45   48 1
    50   46   47 1
    51   48   49 1
    52   49   53 am
    53   50   51 1
    54   50   52 2
    55   53   54 1
    56   53   55 2
    57   54   56 1
    58   56   57 1
    59   57   58 2
    60   57   62 1
    61   58   59 1
    62   58   63 1
    63   59   60 2
    64   59   64 1
    65   60   61 1
    66   60   65 1
    67   61   62 2
    68   65   66 1
    69   65   67 1
    70   66   68 1
    71   66   70 2
    72   68   69 1
    73    6   71 1
    74    7   72 1
    75   13   73 1
    76   13   74 1
    77   14   75 1
    78   14   76 1
    79   15   77 1
    80   15   78 1
    81   15   79 1
    82   16   80 1
    83   17   81 1
    84   17   82 1
    85   19   83 1
    86   21   84 1
    87   23   85 1
    88   25   86 1
    89   25   87 1
    90   27   88 1
    91   27   89 1
    92   28   90 1
    93   30   91 1
    94   30   92 1
    95   32   93 1
    96   32   94 1
    97   33   95 1
    98   35   96 1
    99   35   97 1
   100   37   98 1
   101   37   99 1
   102   38  100 1
   103   38  101 1
   104   39  102 1
   105   39  103 1
   106   40  104 1
   107   40  105 1
   108   41  106 1
   109   41  107 1
   110   42  108 1
   111   42  109 1
   112   43  110 1
   113   43  111 1
   114   44  112 1
   115   44  113 1
   116   45  114 1
   117   45  115 1
   118   46  116 1
   119   46  117 1
   120   47  118 1
   121   47  119 1
   122   48  120 1
   123   48  121 1
   124   49  122 1
   125   51  123 1
   126   51  124 1
   127   54  125 1
   128   54  126 1
   129   61  127 1
   130   62  128 1
   131   65  129 1
   132   67  130 1
   133   68  131 1
   134   68  132 1
   135   69  133 1
   136   69  134 1
   137   69  135 1
   138   70  136 1
   139   70  137 1
@<TRIPOS>PROPERTY_DATA
  Total_Score	| 0.5921
  Crash		| -4.5594
  Polar		| 2.8933
  FragIndex	| 1
  FragRMSD	| 0.166

