@<TRIPOS>MOLECULE
BindingDB_50300264
 46 48 0 0 0
SMALL
NO_CHARGES


@<TRIPOS>ATOM
1    C         5.3271    3.1480   26.1474  C     
2    C         6.0586    3.8328   25.1711  C     
3    C         7.4667    3.7705   25.1083  C     
4    C         8.1459    2.9201   26.0222  C     
5    C         7.4097    2.2029   27.0002  C     
6    C         5.9965    2.3501   27.0866  C     
7    O         7.9739    4.6478   24.1606  O     
8    C         9.3283    4.7449   23.7218  C     
9    C         9.6014    6.0931   23.2240  C     
10   O         8.7551    7.1497   23.2057  O     
11   N         9.4212    8.1705   22.7259  N     
12   C        10.6951    7.7912   22.4952  C     
13   N        10.8021    6.4837   22.7889  N     
14   C        11.7723    8.5838   22.0417  C     
15   C         5.2648    1.7617   28.1044  C     
16   O         4.4218    0.9350   27.7973  O     
17   C         5.1981    2.2888   29.3573  C     
18   C         5.6518    1.5071   30.5144  C     
19   C         4.6790    3.5188   29.5359  C     
20   Cl        8.2144    1.1006   28.0302  Cl    
21   C        11.7290    9.2097   20.7700  C     
22   C        12.8331    9.9218   20.2904  C     
23   C        14.0030   10.0892   21.0726  C     
24   C        14.0319    9.4700   22.3482  C     
25   C        12.9391    8.7543   22.8387  C     
26   C        15.1998   10.8199   20.6130  C     
27   F        15.6644   11.7460   21.5439  F     
28   F        16.2428    9.9313   20.3940  F     
29   F        15.0391   11.5333   19.4372  F     
30   Cl        9.8485    2.7785   26.0177  Cl    
31   C         6.8569    2.1271   31.2779  C     
32   H         4.3028    3.2404   26.1797  H     
33   H         5.5435    4.4210   24.5148  H     
34   H        10.0094    4.5974   24.5528  H     
35   H         9.5446    4.0087   22.9485  H     
36   H         4.8090    1.3981   31.2037  H     
37   H         5.9341    0.4912   30.2195  H     
38   H         4.5850    3.9196   30.4415  H     
39   H         4.3136    4.0470   28.7713  H     
40   H        10.8927    9.1078   20.1830  H     
41   H        12.7643   10.3490   19.3641  H     
42   H        14.8691    9.5373   22.9203  H     
43   H        12.9886    8.3470   23.7816  H     
44   H         7.6454    2.4378   30.5955  H     
45   H         7.2763    1.3794   31.9612  H     
46   H         6.5529    2.9911   31.8759  H     
@<TRIPOS>BOND
     1    1    2 2
     2    1    6 1
     3    2    3 1
     4    3    4 2
     5    3    7 1
     6    4    5 1
     7    4   30 1
     8    5    6 2
     9    5   20 1
    10    6   15 1
    11    7    8 1
    12    8    9 1
    13    9   10 1
    14    9   13 2
    15   10   11 1
    16   11   12 2
    17   12   13 1
    18   12   14 1
    19   14   21 2
    20   14   25 1
    21   15   16 2
    22   15   17 1
    23   17   18 1
    24   17   19 2
    25   18   31 1
    26   21   22 1
    27   22   23 2
    28   23   24 1
    29   23   26 1
    30   24   25 2
    31   26   27 1
    32   26   28 1
    33   26   29 1
    34    1   32 1
    35    2   33 1
    36    8   34 1
    37    8   35 1
    38   18   36 1
    39   18   37 1
    40   19   38 1
    41   19   39 1
    42   21   40 1
    43   22   41 1
    44   24   42 1
    45   25   43 1
    46   31   44 1
    47   31   45 1
    48   31   46 1
@<TRIPOS>PROPERTY_DATA
  Total_Score	| 4.5358
  Crash		| -1.1574
  Polar		| 1.2175
  FragIndex	| 1
  FragRMSD	| 0.717

