@<TRIPOS>MOLECULE
BindingDB_50300265
 47 49 0 0 0
SMALL
NO_CHARGES


@<TRIPOS>ATOM
1    C         5.3242    3.1068   26.1799  C     
2    C         6.0260    3.7439   25.1450  C     
3    C         7.4286    3.6442   25.0622  C     
4    C         8.1247    2.8572   26.0073  C     
5    C         7.4189    2.1942   27.0480  C     
6    C         6.0045    2.3374   27.1525  C     
7    O         8.1296    4.2595   24.0503  O     
8    C         8.0463    5.6997   24.0277  C     
9    C         9.3681    6.3037   23.7827  C     
10   O        10.0803    6.2254   22.6344  O     
11   N        11.1447    6.9652   22.7729  N     
12   C        11.1252    7.5253   23.9995  C     
13   N        10.0166    7.1105   24.6304  N     
14   C        12.0933    8.4141   24.5371  C     
15   C         5.2667    1.7538   28.1801  C     
16   O         4.3944    0.9503   27.8775  O     
17   C         5.1917    2.3136   29.4300  C     
18   C         5.6309    1.5475   30.6041  C     
19   C         4.5999    3.5141   29.5907  C     
20   Cl        8.2657    1.1806   28.1275  Cl    
21   C        12.3742    8.4293   25.9268  C     
22   C        13.3240    9.3184   26.4582  C     
23   C        13.9863   10.2361   25.6231  C     
24   C        13.7235   10.2239   24.2383  C     
25   C        12.7878    9.3219   23.7007  C     
26   O        14.9274   11.0824   26.1463  O     
27   Cl        9.8185    2.7591   25.8850  Cl    
28   C        14.3903   12.3565   26.5548  C     
29   C         6.7659    2.2231   31.4179  C     
30   H         4.3041    3.2032   26.2113  H     
31   H         5.5098    4.2945   24.4551  H     
32   H         7.3749    6.0032   23.2192  H     
33   H         7.6604    6.1118   24.9671  H     
34   H         4.7756    1.3939   31.2728  H     
35   H         5.9823    0.5485   30.3132  H     
36   H         4.4902    3.9117   30.4962  H     
37   H         4.2409    4.0252   28.8192  H     
38   H        11.8996    7.7793   26.5578  H     
39   H        13.5237    9.3022   27.4592  H     
40   H        14.2155   10.8721   23.6196  H     
41   H        12.6127    9.3429   22.6922  H     
42   H        13.9384   12.8904   25.7110  H     
43   H        15.2126   12.9625   26.9390  H     
44   H        13.6503   12.2463   27.3550  H     
45   H         7.5950    2.4982   30.7670  H     
46   H         7.1336    1.5312   32.1771  H     
47   H         6.4003    3.1200   31.9180  H     
@<TRIPOS>BOND
     1    1    2 2
     2    1    6 1
     3    2    3 1
     4    3    4 2
     5    3    7 1
     6    4    5 1
     7    4   27 1
     8    5    6 2
     9    5   20 1
    10    6   15 1
    11    7    8 1
    12    8    9 1
    13    9   10 1
    14    9   13 2
    15   10   11 1
    16   11   12 2
    17   12   13 1
    18   12   14 1
    19   14   21 2
    20   14   25 1
    21   15   16 2
    22   15   17 1
    23   17   18 1
    24   17   19 2
    25   18   29 1
    26   21   22 1
    27   22   23 2
    28   23   24 1
    29   23   26 1
    30   24   25 2
    31   26   28 1
    32    1   30 1
    33    2   31 1
    34    8   32 1
    35    8   33 1
    36   18   34 1
    37   18   35 1
    38   19   36 1
    39   19   37 1
    40   21   38 1
    41   22   39 1
    42   24   40 1
    43   25   41 1
    44   28   42 1
    45   28   43 1
    46   28   44 1
    47   29   45 1
    48   29   46 1
    49   29   47 1
@<TRIPOS>PROPERTY_DATA
  Total_Score	| 3.8388
  Crash		| -1.2421
  Polar		| 0.4459
  FragIndex	| 1
  FragRMSD	| 0.393

