@<TRIPOS>MOLECULE
BindingDB_50186225
 99 101 0 0 0
SMALL
NO_CHARGES


@<TRIPOS>ATOM
1    C         7.4263   11.6678   24.4575  C     
2    C         6.8121   10.4672   24.8799  C     
3    C         6.3662   10.3133   26.2172  C     
4    C         6.6084   11.3412   27.1906  C     
5    C         7.2395   12.5274   26.7138  C     
6    C         7.6352   12.6969   25.3847  C     
7    Cl        6.7158    9.2113   23.7270  Cl    
8    Cl        5.5353    8.8591   26.5719  Cl    
9    C         6.3165   11.2694   28.5783  C     
10   C         6.1211   10.1447   29.3127  C     
11   O         6.2967   12.2815   29.2657  O     
12   C         7.1698    9.3622   29.6421  C     
13   O         7.9280   11.8497   23.1955  O     
14   C         4.7782    9.8647   29.8201  C     
15   C         9.6097   13.2080   19.7229  C     
16   C         7.3922    3.7791   24.7722  C     
17   C         6.0134    4.0135   24.9989  C     
18   C         5.3544    3.3935   26.0921  C     
19   C         6.0914    2.5814   27.0026  C     
20   C         7.4679    2.3637   26.7520  C     
21   C         8.1042    2.9372   25.6452  C     
22   Cl        5.1807    5.0307   23.9136  Cl    
23   Cl        3.6857    3.6665   26.3165  Cl    
24   C         5.5170    1.9565   28.1034  C     
25   C         5.6428    2.4832   29.3555  C     
26   O         4.6731    1.0905   27.9212  O     
27   C         6.7947    2.1279   30.1973  C     
28   C         4.7035    3.3257   29.8196  C     
29   C         6.4126    1.3876   31.4968  C     
30   O         8.0345    4.2862   23.6681  O     
31   C        13.4080    9.0491   24.3785  C     
32   C        14.7905    8.7584   24.4013  C     
33   C        15.5786    8.7615   23.2222  C     
34   C        14.9177    9.0431   21.9974  C     
35   C        13.5368    9.3273   21.9387  C     
36   C        12.7961    9.3269   23.1371  C     
37   C        16.9599    8.5220   23.2550  C     
38   N        17.6501    8.3343   24.3611  N     
39   O        17.6303    8.4921   22.2304  O     
40   C        12.8495    9.5909   20.6473  C     
41   N        12.4838   10.9652   20.5110  N     
42   C        11.3575   11.4010   19.9516  C     
43   C        11.1130   12.8271   19.7850  C     
44   O        10.5169   10.6229   19.5203  O     
45   C        12.6272    9.1001   25.6413  C     
46   N        12.5539    7.8224   26.2769  N     
47   C        11.5162    7.3863   26.9853  C     
48   C        11.5349    6.0388   27.5353  C     
49   O        10.5171    8.0785   27.1502  O     
50   C        11.2417    4.9301   26.4983  C     
51   N        10.0565    5.1959   25.7456  N     
52   C         9.9808    5.4384   24.4396  C     
53   O        10.9805    5.5517   23.7401  O     
54   C         8.6712    5.5674   23.8338  C     
55   N         8.8940   12.7919   20.8886  N     
56   C         7.5745   12.6793   20.9804  C     
57   C         6.9494   12.2478   22.2024  C     
58   O         6.8508   12.9104   20.0193  O     
59   H         7.4246   13.3127   27.3441  H     
60   H         8.0837   13.5681   25.0908  H     
61   H         7.0490    8.5466   30.1932  H     
62   H         8.0881    9.5581   29.2985  H     
63   H         4.4823   10.6453   30.5258  H     
64   H         4.7217    8.9046   30.3381  H     
65   H         4.0516    9.8388   28.9937  H     
66   H         9.5379   14.2936   19.6358  H     
67   H         9.1558   12.7642   18.8310  H     
68   H         8.0249    1.7613   27.3644  H     
69   H         9.0917    2.7319   25.4689  H     
70   H         7.4990    1.4846   29.6581  H     
71   H         7.3409    3.0451   30.4530  H     
72   H         4.7848    3.7446   30.7156  H     
73   H         3.9042    3.5657   29.2803  H     
74   H         5.7777    2.0090   32.1310  H     
75   H         7.3171    1.1398   32.0567  H     
76   H         5.8830    0.4633   31.2667  H     
77   H        15.2259    8.5537   25.3092  H     
78   H        15.4542    9.0517   21.1276  H     
79   H        11.7926    9.5285   23.1053  H     
80   H        18.6070    8.1851   24.3156  H     
81   H        17.2149    8.3505   25.2266  H     
82   H        13.4902    9.3224   19.8028  H     
83   H        11.9557    8.9664   20.5960  H     
84   H        13.1058   11.6371   20.8362  H     
85   H        11.5901   13.1460   18.8451  H     
86   H        11.5863   13.4034   20.5872  H     
87   H        13.0952    9.8093   26.3281  H     
88   H        11.6094    9.4520   25.4406  H     
89   H        13.3047    7.2174   26.1626  H     
90   H        12.5273    5.8508   27.9457  H     
91   H        10.8145    5.9540   28.3535  H     
92   H        12.1112    4.7862   25.8506  H     
93   H        11.0797    3.9939   27.0325  H     
94   H         9.2241    5.1766   26.2367  H     
95   H         8.7666    5.9893   22.8314  H     
96   H         8.0602    6.2658   24.4110  H     
97   H         9.4179   12.5616   21.6728  H     
98   H         6.2898   11.4065   21.9536  H     
99   H         6.3293   13.0634   22.6011  H     
@<TRIPOS>BOND
     1    1    2 2
     2    1    6 1
     3    1   13 1
     4    2    3 1
     5    2    7 1
     6    3    4 2
     7    3    8 1
     8    4    5 1
     9    4    9 1
    10    5    6 2
    11    9   10 1
    12    9   11 2
    13   10   12 2
    14   10   14 1
    15   13   57 1
    16   15   43 1
    17   15   55 1
    18   16   17 2
    19   16   21 1
    20   16   30 1
    21   17   18 1
    22   17   22 1
    23   18   19 2
    24   18   23 1
    25   19   20 1
    26   19   24 1
    27   20   21 2
    28   24   25 1
    29   24   26 2
    30   25   27 1
    31   25   28 2
    32   27   29 1
    33   30   54 1
    34   31   32 2
    35   31   36 1
    36   31   45 1
    37   32   33 1
    38   33   34 2
    39   33   37 1
    40   34   35 1
    41   35   36 2
    42   35   40 1
    43   37   38 am
    44   37   39 2
    45   40   41 1
    46   41   42 am
    47   42   43 1
    48   42   44 2
    49   45   46 1
    50   46   47 am
    51   47   48 1
    52   47   49 2
    53   48   50 1
    54   50   51 1
    55   51   52 am
    56   52   53 2
    57   52   54 1
    58   55   56 am
    59   56   57 1
    60   56   58 2
    61    5   59 1
    62    6   60 1
    63   12   61 1
    64   12   62 1
    65   14   63 1
    66   14   64 1
    67   14   65 1
    68   15   66 1
    69   15   67 1
    70   20   68 1
    71   21   69 1
    72   27   70 1
    73   27   71 1
    74   28   72 1
    75   28   73 1
    76   29   74 1
    77   29   75 1
    78   29   76 1
    79   32   77 1
    80   34   78 1
    81   36   79 1
    82   38   80 1
    83   38   81 1
    84   40   82 1
    85   40   83 1
    86   41   84 1
    87   43   85 1
    88   43   86 1
    89   45   87 1
    90   45   88 1
    91   46   89 1
    92   48   90 1
    93   48   91 1
    94   50   92 1
    95   50   93 1
    96   51   94 1
    97   54   95 1
    98   54   96 1
    99   55   97 1
   100   57   98 1
   101   57   99 1
@<TRIPOS>PROPERTY_DATA
  Total_Score	| 4.3251
  Crash		| -3.0880
  Polar		| 2.6935
  FragIndex	| 1
  FragRMSD	| 0.303

