@<TRIPOS>MOLECULE
BindingDB_50186229
 96 98 0 0 0
SMALL
NO_CHARGES


@<TRIPOS>ATOM
1    C        -0.7792    1.7110   25.9691  C     
2    C         0.4134    1.4655   26.6864  C     
3    C         0.6277    0.1994   27.2951  C     
4    C        -0.3588   -0.8208   27.1943  C     
5    C        -1.5393   -0.5523   26.4591  C     
6    C        -1.7537    0.7011   25.8651  C     
7    C        -0.2135   -2.0755   27.7801  C     
8    O        -0.4542   -3.0516   27.0833  O     
9    C        -0.3069   -2.2630   29.1328  C     
10   C         0.8328   -2.8315   29.8695  C     
11   C        -1.4632   -1.9953   29.7733  C     
12   C         1.2961   -4.2150   29.3600  C     
13   C         6.2429    7.7999   19.5959  C     
14   C         5.3337    8.6042   18.8771  C     
15   C         3.9832    8.7613   19.2867  C     
16   C         3.5697    8.0686   20.4541  C     
17   C         4.4473    7.2358   21.1881  C     
18   C         5.7799    7.1189   20.7461  C     
19   C         3.0933    9.5886   18.5918  C     
20   N         3.4182   10.2757   17.5174  N     
21   O         1.9307    9.7224   18.9466  O     
22   C         4.0490    6.5228   22.4359  C     
23   N         2.6364    6.3549   22.6193  N     
24   C         1.8850    6.8484   23.5902  C     
25   C         0.4731    6.5340   23.6003  C     
26   O         2.3531    7.5538   24.4706  O     
27   C         7.6758    7.6918   19.2179  C     
28   N         8.4723    8.0907   20.3359  N     
29   C         9.7396    7.7795   20.5625  C     
30   C        10.2993    8.1359   21.8518  C     
31   O        10.4183    7.1682   19.7489  O     
32   N         0.2928    5.1424   23.8746  N     
33   N         9.5363    7.5439   22.9100  N     
34   C        -0.8119    4.4429   23.6501  C     
35   O        -1.7988    4.9519   23.1306  O     
36   C        -0.8366    3.0412   24.0010  C     
37   O        -1.0215    2.9497   25.4261  O     
38   Cl        1.5458    2.7309   26.8067  Cl    
39   Cl        2.0949   -0.0974   28.0996  Cl    
40   C         9.7208    6.3359   23.4411  C     
41   C         8.8173    5.8069   24.4394  C     
42   O        10.7076    5.6666   23.1394  O     
43   O         8.4218    4.4683   24.0738  O     
44   C         7.6924    3.8145   25.0344  C     
45   C         8.3058    3.0070   26.0210  C     
46   C         7.5116    2.3488   27.0006  C     
47   C         6.0906    2.4831   26.9838  C     
48   C         5.5062    3.2605   25.9522  C     
49   C         6.2928    3.9065   24.9882  C     
50   Cl       10.0008    2.8619   25.9984  Cl    
51   Cl        8.2800    1.3555   28.1545  Cl    
52   C         5.2418    1.9145   27.9487  C     
53   C         5.4392    1.9810   29.3126  C     
54   O         4.1822    1.4397   27.5458  O     
55   C         5.9686    3.2296   29.8911  C     
56   C         5.0923    0.9203   30.0700  C     
57   C         6.3475    3.2898   31.3909  C     
58   H        -2.2702   -1.2613   26.3632  H     
59   H        -2.6293    0.8818   25.3654  H     
60   H         1.6773   -2.1425   29.8180  H     
61   H         0.6066   -2.9449   30.9372  H     
62   H        -1.5625   -2.1583   30.7473  H     
63   H        -2.2538   -1.6379   29.2942  H     
64   H         0.4625   -4.9199   29.3554  H     
65   H         2.0795   -4.6068   30.0152  H     
66   H         1.7070   -4.1364   28.3531  H     
67   H         5.6775    9.0955   18.0506  H     
68   H         2.6107    8.1843   20.7923  H     
69   H         6.4366    6.5520   21.2902  H     
70   H         2.7545   10.8324   17.0787  H     
71   H         4.3164   10.2361   17.1587  H     
72   H         4.4581    5.5122   22.4091  H     
73   H         4.5146    7.0351   23.2799  H     
74   H         2.1888    5.8205   21.9496  H     
75   H        -0.0523    7.1089   24.3645  H     
76   H         0.0482    6.8013   22.6337  H     
77   H         7.8811    6.6536   18.9410  H     
78   H         7.9277    8.3275   18.3611  H     
79   H         8.0101    8.5626   21.0443  H     
80   H        11.3564    7.8514   21.9341  H     
81   H        10.2497    9.2231   21.9690  H     
82   H         1.0496    4.6633   24.2527  H     
83   H         8.7579    8.0476   23.2225  H     
84   H        -1.6612    2.5342   23.4894  H     
85   H         0.1015    2.5752   23.6836  H     
86   H         9.3447    5.8131   25.4002  H     
87   H         7.9344    6.4496   24.5325  H     
88   H         4.4929    3.3811   25.8980  H     
89   H         5.8413    4.4670   24.2638  H     
90   H         6.8682    3.5132   29.3421  H     
91   H         5.2250    4.0134   29.7206  H     
92   H         5.1790    0.9309   31.0550  H     
93   H         4.7244    0.0877   29.6694  H     
94   H         5.4710    3.1021   32.0165  H     
95   H         6.7318    4.2811   31.6373  H     
96   H         7.1220    2.5514   31.6159  H     
@<TRIPOS>BOND
     1    1    2 2
     2    1    6 1
     3    1   37 1
     4    2    3 1
     5    2   38 1
     6    3    4 2
     7    3   39 1
     8    4    5 1
     9    4    7 1
    10    5    6 2
    11    7    8 2
    12    7    9 1
    13    9   10 1
    14    9   11 2
    15   10   12 1
    16   13   14 2
    17   13   18 1
    18   13   27 1
    19   14   15 1
    20   15   16 2
    21   15   19 1
    22   16   17 1
    23   17   18 2
    24   17   22 1
    25   19   20 am
    26   19   21 2
    27   22   23 1
    28   23   24 am
    29   24   25 1
    30   24   26 2
    31   25   32 1
    32   27   28 1
    33   28   29 am
    34   29   30 1
    35   29   31 2
    36   30   33 1
    37   32   34 am
    38   33   40 am
    39   34   35 2
    40   34   36 1
    41   36   37 1
    42   40   41 1
    43   40   42 2
    44   41   43 1
    45   43   44 1
    46   44   45 2
    47   44   49 1
    48   45   46 1
    49   45   50 1
    50   46   47 2
    51   46   51 1
    52   47   48 1
    53   47   52 1
    54   48   49 2
    55   52   53 1
    56   52   54 2
    57   53   55 1
    58   53   56 2
    59   55   57 1
    60    5   58 1
    61    6   59 1
    62   10   60 1
    63   10   61 1
    64   11   62 1
    65   11   63 1
    66   12   64 1
    67   12   65 1
    68   12   66 1
    69   14   67 1
    70   16   68 1
    71   18   69 1
    72   20   70 1
    73   20   71 1
    74   22   72 1
    75   22   73 1
    76   23   74 1
    77   25   75 1
    78   25   76 1
    79   27   77 1
    80   27   78 1
    81   28   79 1
    82   30   80 1
    83   30   81 1
    84   32   82 1
    85   33   83 1
    86   36   84 1
    87   36   85 1
    88   41   86 1
    89   41   87 1
    90   48   88 1
    91   49   89 1
    92   55   90 1
    93   55   91 1
    94   56   92 1
    95   56   93 1
    96   57   94 1
    97   57   95 1
    98   57   96 1
@<TRIPOS>PROPERTY_DATA
  Total_Score	| 3.2394
  Crash		| -2.3047
  Polar		| 2.6472
  FragIndex	| 1
  FragRMSD	| 0.989

