@<TRIPOS>MOLECULE
BindingDB_50300263
 43 45 0 0 0
SMALL
NO_CHARGES


@<TRIPOS>ATOM
1    C         5.4373    3.2558   26.1257  C     
2    C         6.2012    3.8300   25.0983  C     
3    C         7.5968    3.6415   25.0305  C     
4    C         8.2311    2.8079   25.9954  C     
5    C         7.4543    2.2121   27.0287  C     
6    C         6.0517    2.4583   27.1124  C     
7    O         8.1591    4.1870   23.9057  O     
8    C         9.4947    4.7292   23.8893  C     
9    C         9.5825    6.0440   23.2080  C     
10   O         8.5831    6.9185   22.9051  O     
11   N         9.1287    7.9423   22.3023  N     
12   C        10.4567    7.7404   22.2558  C     
13   N        10.7522    6.5540   22.8002  N     
14   C        11.4248    8.6080   21.7447  C     
15   C         5.2692    1.8599   28.0810  C     
16   O         4.5058    0.9637   27.7406  O     
17   C         5.2064    2.3212   29.3667  C     
18   C         5.6984    1.4912   30.4751  C     
19   C         4.5871    3.4915   29.6170  C     
20   Cl        8.2044    1.1191   28.1142  Cl    
21   C        11.2063    9.3059   20.5286  C     
22   C        12.2151   10.1179   19.9877  C     
23   C        13.4412   10.2743   20.6706  C     
24   C        13.6519    9.6146   21.9050  C     
25   C        12.6575    8.7736   22.4199  C     
26   F        14.3753   11.0313   20.1738  F     
27   Cl        9.9007    2.5074   25.9122  Cl    
28   C         6.7815    2.1752   31.3488  C     
29   H         4.4308    3.3881   26.1388  H     
30   H         5.7167    4.3786   24.3844  H     
31   H         9.9182    4.8684   24.8887  H     
32   H        10.1336    4.0255   23.3311  H     
33   H         4.8490    1.2154   31.1110  H     
34   H         6.1301    0.5519   30.1001  H     
35   H         4.4637    3.8247   30.5462  H     
36   H         4.2166    4.0513   28.8808  H     
37   H        10.3253    9.1956   20.0208  H     
38   H        12.0544   10.5963   19.0931  H     
39   H        14.5399    9.7299   22.4068  H     
40   H        12.8336    8.2930   23.3099  H     
41   H         7.5771    2.5924   30.7285  H     
42   H         7.2257    1.4437   32.0326  H     
43   H         6.3538    2.9840   31.9469  H     
@<TRIPOS>BOND
     1    1    2 2
     2    1    6 1
     3    2    3 1
     4    3    4 2
     5    3    7 1
     6    4    5 1
     7    4   27 1
     8    5    6 2
     9    5   20 1
    10    6   15 1
    11    7    8 1
    12    8    9 1
    13    9   10 1
    14    9   13 2
    15   10   11 1
    16   11   12 2
    17   12   13 1
    18   12   14 1
    19   14   21 2
    20   14   25 1
    21   15   16 2
    22   15   17 1
    23   17   18 1
    24   17   19 2
    25   18   28 1
    26   21   22 1
    27   22   23 2
    28   23   24 1
    29   23   26 1
    30   24   25 2
    31    1   29 1
    32    2   30 1
    33    8   31 1
    34    8   32 1
    35   18   33 1
    36   18   34 1
    37   19   35 1
    38   19   36 1
    39   21   37 1
    40   22   38 1
    41   24   39 1
    42   25   40 1
    43   28   41 1
    44   28   42 1
    45   28   43 1
@<TRIPOS>PROPERTY_DATA
  Total_Score	| 4.0227
  Crash		| -0.7806
  Polar		| 1.2751
  FragIndex	| 1
  FragRMSD	| 0.721

