@<TRIPOS>MOLECULE
BindingDB_50189655
 60 64 0 0 0
SMALL
NO_CHARGES


@<TRIPOS>ATOM
1    C         3.5314    7.9749   46.5357  C     
2    C         3.4592    7.8904   47.9349  C     
3    C         4.1818    8.7628   48.7617  C     
4    C         5.0733    9.7167   48.2111  C     
5    C         5.2653    9.6936   46.8085  C     
6    C         4.4905    8.8617   45.9701  C     
7    C         2.6273    7.1305   45.6848  C     
8    C         5.7768   10.6740   49.1091  C     
9    C         1.1083    7.5041   45.6920  C     
10   N         0.3567    6.3499   45.2726  N     
11   C         0.6265    8.0641   46.9808  C     
12   N         0.2829    7.3575   48.0529  N     
13   N         0.4866    9.3950   47.2410  N     
14   C         0.0235    9.5161   48.4874  C     
15   C        -0.1294    8.2212   48.9947  C     
16   C        -0.6753    8.0031   50.2681  C     
17   C        -1.0684    9.1137   51.0312  C     
18   C        -0.8871   10.4264   50.5389  C     
19   C        -0.3261   10.6299   49.2556  C     
20   S         7.4886   10.2074   49.4189  S     
21   N         8.0252   11.7931   49.4513  N     
22   C         7.1538   12.6711   49.0298  C     
23   C         5.8384   12.1764   48.6997  C     
24   O         8.2909    9.5526   48.2213  O     
25   O         7.6850    9.6495   50.9014  O     
26   O         7.4627   13.8468   48.9259  O     
27   S        -1.2796    6.0561   45.4785  S     
28   C        -1.5719    4.6726   46.4988  C     
29   O        -2.0085    7.3479   46.0559  O     
30   O        -2.0121    5.8916   44.0585  O     
31   C        -1.8616    4.8098   47.8630  C     
32   C        -1.9509    3.6758   48.6989  C     
33   C        -1.7777    2.3729   48.1679  C     
34   C        -1.5203    2.2442   46.7851  C     
35   C        -1.4146    3.3727   45.9563  C     
36   C        -1.8721    1.1939   49.0758  C     
37   F        -1.6726   -0.0226   48.4546  F     
38   F        -0.9250    1.2851   50.0721  F     
39   F        -3.1166    1.1439   49.6580  F     
40   H         2.8429    7.2061   48.3803  H     
41   H         4.0615    8.6877   49.7752  H     
42   H         5.9529   10.3119   46.3694  H     
43   H         4.6171    8.9050   44.9632  H     
44   H         2.9677    7.1391   44.6458  H     
45   H         2.7520    6.0981   46.0278  H     
46   H         5.2974   10.6523   50.0934  H     
47   H         0.9520    8.2699   44.9143  H     
48   H         0.8492    5.6903   44.7518  H     
49   H         0.6774   10.1120   46.6286  H     
50   H        -0.8159    7.0482   50.6113  H     
51   H        -1.4854    8.9733   51.9585  H     
52   H        -1.1618   11.2270   51.1117  H     
53   H        -0.2003   11.5794   48.8940  H     
54   H         8.9308   12.0377   49.6992  H     
55   H         5.6577   12.3334   47.6363  H     
56   H         5.0975   12.7541   49.2560  H     
57   H        -1.9947    5.7326   48.2829  H     
58   H        -2.1315    3.8070   49.6964  H     
59   H        -1.3883    1.3190   46.3601  H     
60   H        -1.2081    3.2498   44.9679  H     
@<TRIPOS>BOND
     1    1    2 2
     2    1    6 1
     3    1    7 1
     4    2    3 1
     5    3    4 2
     6    4    5 1
     7    4    8 1
     8    5    6 2
     9    7    9 1
    10    8   20 1
    11    8   23 1
    12    9   10 1
    13    9   11 1
    14   10   27 1
    15   11   12 2
    16   11   13 1
    17   12   15 1
    18   13   14 1
    19   14   15 1
    20   14   19 2
    21   15   16 2
    22   16   17 1
    23   17   18 2
    24   18   19 1
    25   20   21 1
    26   20   24 2
    27   20   25 2
    28   21   22 1
    29   22   23 1
    30   22   26 2
    31   27   28 1
    32   27   29 2
    33   27   30 2
    34   28   31 2
    35   28   35 1
    36   31   32 1
    37   32   33 2
    38   33   34 1
    39   33   36 1
    40   34   35 2
    41   36   37 1
    42   36   38 1
    43   36   39 1
    44    2   40 1
    45    3   41 1
    46    5   42 1
    47    6   43 1
    48    7   44 1
    49    7   45 1
    50    8   46 1
    51    9   47 1
    52   10   48 1
    53   13   49 1
    54   16   50 1
    55   17   51 1
    56   18   52 1
    57   19   53 1
    58   21   54 1
    59   23   55 1
    60   23   56 1
    61   31   57 1
    62   32   58 1
    63   34   59 1
    64   35   60 1
@<TRIPOS>PROPERTY_DATA
  Total_Score	| 12.4263
  Crash		| -1.6519
  Polar		| 5.6020
  FragIndex	| 1
  FragRMSD	| 0.208

