@<TRIPOS>MOLECULE
BindingDB_50189646
 70 75 0 0 0
SMALL
NO_CHARGES


@<TRIPOS>ATOM
1    C         3.5322    7.8536   46.5016  C     
2    C         4.5053    8.7208   45.9556  C     
3    C         5.2238    9.6127   46.7707  C     
4    C         4.9751    9.6934   48.1592  C     
5    C         4.0216    8.8039   48.7089  C     
6    C         3.3310    7.8815   47.8997  C     
7    C         2.7828    6.9092   45.6264  C     
8    C         5.6982   10.6739   49.0224  C     
9    C         1.2458    7.1240   45.4463  C     
10   N         0.4438    6.5345   46.4739  N     
11   C         0.8706    8.5405   45.2542  C     
12   N         0.7213    9.4628   46.2277  N     
13   N         0.6238    9.0974   44.0556  N     
14   C         0.3180   10.3802   44.2519  C     
15   C         0.3723   10.6088   45.6227  C     
16   C         0.0956   11.8779   46.1564  C     
17   C        -0.2318   12.9399   45.2762  C     
18   C        -0.2796   12.6938   43.8776  C     
19   C        -0.0046   11.4117   43.3574  C     
20   S         7.4049   10.2115   49.3599  S     
21   N         7.9314   11.8014   49.3821  N     
22   C         7.0768   12.6633   48.8925  C     
23   C         5.7820   12.1466   48.5156  C     
24   O         8.2532    9.5695   48.1773  O     
25   O         7.6196    9.6798   50.8445  O     
26   O         7.3948   13.8344   48.7466  O     
27   S        -1.1375    5.9884   46.2212  S     
28   C        -1.6831    6.1073   44.5660  C     
29   O        -1.2443    4.4698   46.6866  O     
30   O        -2.1126    6.8392   47.1481  O     
31   C        -1.4422    5.0488   43.6650  C     
32   C        -1.8203    5.1636   42.3143  C     
33   C        -2.4633    6.3316   41.8408  C     
34   C        -2.7058    7.3862   42.7522  C     
35   C        -2.3109    7.2792   44.0985  C     
36   C        -2.8545    6.4484   40.4783  C     
37   C        -4.2124    6.6589   40.1376  C     
38   C        -4.6037    6.7680   38.7902  C     
39   C        -3.6420    6.6841   37.7692  C     
40   C        -2.2895    6.4822   38.0935  C     
41   C        -1.8969    6.3574   39.4394  C     
42   C        -0.5143   14.2816   45.8331  C     
43   H         4.6925    8.7125   44.9481  H     
44   H         5.9243   10.2175   46.3352  H     
45   H         3.8327    8.8079   49.7130  H     
46   H         2.6697    7.2369   48.3383  H     
47   H         3.2115    6.9411   44.6251  H     
48   H         2.9539    5.8933   45.9887  H     
49   H         5.2169   10.7155   50.0023  H     
50   H         0.9874    6.5969   44.5286  H     
51   H         0.7101    6.6908   47.3926  H     
52   H         0.6663    8.6342   43.2042  H     
53   H         0.1373   12.0259   47.1685  H     
54   H        -0.5170   13.4473   43.2274  H     
55   H        -0.0345   11.2359   42.3500  H     
56   H         8.8246   12.0540   49.6594  H     
57   H         5.6705   12.2277   47.4328  H     
58   H         5.0091   12.7562   48.9871  H     
59   H        -0.9738    4.1931   43.9761  H     
60   H        -1.6497    4.3750   41.6840  H     
61   H        -3.1554    8.2501   42.4362  H     
62   H        -2.4822    8.0668   44.7282  H     
63   H        -4.9285    6.7107   40.8685  H     
64   H        -5.5874    6.9138   38.5558  H     
65   H        -3.9259    6.7698   36.7922  H     
66   H        -1.5889    6.4257   37.3524  H     
67   H        -0.9042    6.2246   39.6567  H     
68   H        -1.3754   14.2226   46.5002  H     
69   H        -0.7334   15.0127   45.0524  H     
70   H         0.3511   14.6333   46.3984  H     
@<TRIPOS>BOND
     1    1    2 2
     2    1    6 1
     3    1    7 1
     4    2    3 1
     5    3    4 2
     6    4    5 1
     7    4    8 1
     8    5    6 2
     9    7    9 1
    10    8   20 1
    11    8   23 1
    12    9   10 1
    13    9   11 1
    14   10   27 1
    15   11   12 2
    16   11   13 1
    17   12   15 1
    18   13   14 1
    19   14   15 2
    20   14   19 1
    21   15   16 1
    22   16   17 2
    23   17   18 1
    24   17   42 1
    25   18   19 2
    26   20   21 1
    27   20   24 2
    28   20   25 2
    29   21   22 1
    30   22   23 1
    31   22   26 2
    32   27   28 1
    33   27   29 2
    34   27   30 2
    35   28   31 2
    36   28   35 1
    37   31   32 1
    38   32   33 2
    39   33   34 1
    40   33   36 1
    41   34   35 2
    42   36   37 2
    43   36   41 1
    44   37   38 1
    45   38   39 2
    46   39   40 1
    47   40   41 2
    48    2   43 1
    49    3   44 1
    50    5   45 1
    51    6   46 1
    52    7   47 1
    53    7   48 1
    54    8   49 1
    55    9   50 1
    56   10   51 1
    57   13   52 1
    58   16   53 1
    59   18   54 1
    60   19   55 1
    61   21   56 1
    62   23   57 1
    63   23   58 1
    64   31   59 1
    65   32   60 1
    66   34   61 1
    67   35   62 1
    68   37   63 1
    69   38   64 1
    70   39   65 1
    71   40   66 1
    72   41   67 1
    73   42   68 1
    74   42   69 1
    75   42   70 1
@<TRIPOS>PROPERTY_DATA
  Total_Score	| 11.6284
  Crash		| -1.9568
  Polar		| 5.5168
  FragIndex	| 1
  FragRMSD	| 0.397

