@<TRIPOS>MOLECULE
BindingDB_50189662
 70 75 0 0 0
SMALL
NO_CHARGES


@<TRIPOS>ATOM
1    C         3.5066    7.8537   46.5153  C     
2    C         4.5020    8.7004   45.9674  C     
3    C         5.2258    9.5981   46.7763  C     
4    C         4.9593    9.7109   48.1605  C     
5    C         3.9790    8.8466   48.7108  C     
6    C         3.2749    7.9299   47.9085  C     
7    C         2.7655    6.8851   45.6484  C     
8    C         5.7013   10.6806   49.0219  C     
9    C         1.2301    7.1015   45.4418  C     
10   N         0.4206    6.4827   46.4513  N     
11   C         0.8517    8.5193   45.2809  C     
12   N         0.6823    9.4111   46.2785  N     
13   N         0.6397    9.1156   44.0893  N     
14   C         0.3543   10.4010   44.3222  C     
15   C         0.3675   10.5787   45.6997  C     
16   C         0.0996   11.8307   46.2701  C     
17   C        -0.1632   12.9419   45.4266  C     
18   C        -0.1574   12.7434   44.0153  C     
19   C         0.0965   11.4720   43.4561  C     
20   S         7.4078   10.2120   49.3661  S     
21   N         7.9277   11.8007   49.4312  N     
22   C         7.0682   12.6675   48.9505  C     
23   C         5.8024   12.1453   48.5003  C     
24   O         8.2588    9.5694   48.1849  O     
25   O         7.5939    9.6514   50.8455  O     
26   O         7.3743   13.8490   48.8338  O     
27   S        -1.1219    5.8540   46.1547  S     
28   C        -1.6818    5.9859   44.5060  C     
29   O        -1.0917    4.3076   46.5314  O     
30   O        -2.1547    6.5699   47.1320  O     
31   C        -1.3569    4.9914   43.5654  C     
32   C        -1.8008    5.0958   42.2310  C     
33   C        -2.5756    6.1999   41.7965  C     
34   C        -2.8946    7.1933   42.7572  C     
35   C        -2.4573    7.0887   44.0915  C     
36   C        -3.0394    6.3048   40.4423  C     
37   C        -2.1627    6.0988   39.3459  C     
38   C        -2.6239    6.1775   38.0178  C     
39   C        -3.9725    6.4752   37.7572  C     
40   C        -4.8560    6.7021   38.8249  C     
41   C        -4.3932    6.6129   40.1524  C     
42   C        -0.4290   14.2704   46.0444  C     
43   F        -0.6550   15.2852   45.1434  F     
44   F        -1.5434   14.1940   46.8457  F     
45   F         0.6401   14.6566   46.8199  F     
46   H         4.6975    8.6850   44.9637  H     
47   H         5.9371   10.1934   46.3371  H     
48   H         3.7624    8.8878   49.7149  H     
49   H         2.5682    7.3293   48.3460  H     
50   H         3.2096    6.9014   44.6508  H     
51   H         2.9268    5.8781   46.0288  H     
52   H         5.2120   10.7309   50.0022  H     
53   H         0.9889    6.5980   44.5058  H     
54   H         0.6595    6.6437   47.3813  H     
55   H         0.6975    8.6747   43.2279  H     
56   H         0.1112   11.9314   47.2883  H     
57   H        -0.3336   13.5235   43.3813  H     
58   H         0.1056   11.3397   42.4429  H     
59   H         8.8080   12.0551   49.7367  H     
60   H         5.7750   12.1993   47.4036  H     
61   H         4.9812   12.7492   48.9046  H     
62   H        -0.7944    4.1813   43.8409  H     
63   H        -1.5558    4.3449   41.5758  H     
64   H        -3.4456    8.0147   42.4883  H     
65   H        -2.7002    7.8310   44.7513  H     
66   H        -1.1734    5.8962   39.5051  H     
67   H        -1.9807    6.0230   37.2391  H     
68   H        -4.3104    6.5305   36.7905  H     
69   H        -5.8379    6.9157   38.6360  H     
70   H        -5.0651    6.7593   40.9099  H     
@<TRIPOS>BOND
     1    1    2 2
     2    1    6 1
     3    1    7 1
     4    2    3 1
     5    3    4 2
     6    4    5 1
     7    4    8 1
     8    5    6 2
     9    7    9 1
    10    8   20 1
    11    8   23 1
    12    9   10 1
    13    9   11 1
    14   10   27 1
    15   11   12 2
    16   11   13 1
    17   12   15 1
    18   13   14 1
    19   14   15 2
    20   14   19 1
    21   15   16 1
    22   16   17 2
    23   17   18 1
    24   17   42 1
    25   18   19 2
    26   20   21 1
    27   20   24 2
    28   20   25 2
    29   21   22 1
    30   22   23 1
    31   22   26 2
    32   27   28 1
    33   27   29 2
    34   27   30 2
    35   28   31 2
    36   28   35 1
    37   31   32 1
    38   32   33 2
    39   33   34 1
    40   33   36 1
    41   34   35 2
    42   36   37 2
    43   36   41 1
    44   37   38 1
    45   38   39 2
    46   39   40 1
    47   40   41 2
    48   42   43 1
    49   42   44 1
    50   42   45 1
    51    2   46 1
    52    3   47 1
    53    5   48 1
    54    6   49 1
    55    7   50 1
    56    7   51 1
    57    8   52 1
    58    9   53 1
    59   10   54 1
    60   13   55 1
    61   16   56 1
    62   18   57 1
    63   19   58 1
    64   21   59 1
    65   23   60 1
    66   23   61 1
    67   31   62 1
    68   32   63 1
    69   34   64 1
    70   35   65 1
    71   37   66 1
    72   38   67 1
    73   39   68 1
    74   40   69 1
    75   41   70 1
@<TRIPOS>PROPERTY_DATA
  Total_Score	| 11.6237
  Crash		| -2.1545
  Polar		| 5.4521
  FragIndex	| 1
  FragRMSD	| 0.396

