@<TRIPOS>MOLECULE
BindingDB_14268
 69 73 0 0 0
SMALL
NO_CHARGES


@<TRIPOS>ATOM
1    C        -0.3050   12.9035   45.2111  C     
2    C        -0.2351   12.5428   43.8470  C     
3    C         0.1218   11.2314   43.4694  C     
4    C        -0.0199   11.9571   46.2185  C     
5    C         0.3330   10.6550   45.8260  C     
6    C         0.3927   10.2961   44.4820  C     
7    C         0.9030    8.5814   45.6997  C     
8    N         0.7296    9.0048   44.4347  N     
9    N         0.6574    9.5851   46.5669  N     
10   C         1.2762    7.2114   46.0937  C     
11   N         0.4320    6.3015   45.3768  N     
12   C        -0.7594    5.8705   45.7990  C     
13   O        -1.1354    6.1234   46.9377  O     
14   C        -1.6268    5.0542   44.9517  C     
15   C        -2.6148    5.9302   44.1016  C     
16   C        -2.0809    6.4861   42.8146  C     
17   C        -1.5147    6.2110   40.4304  C     
18   C        -1.9798    5.6784   41.6503  C     
19   C        -1.7232    7.8527   42.7097  C     
20   C        -1.2544    8.3842   41.4920  C     
21   C        -1.1399    7.5661   40.3526  C     
22   N        -2.3637    4.1603   45.8114  N     
23   C        -1.9968    2.9408   46.1841  C     
24   C        -2.7527    2.2503   47.2029  C     
25   O        -1.0037    2.4004   45.7068  O     
26   C         2.7916    6.9284   45.8446  C     
27   C         3.6897    7.7889   46.6656  C     
28   C         3.5085    7.8805   48.0667  C     
29   C         4.6892    8.5872   46.0687  C     
30   C         5.4352    9.4961   46.8349  C     
31   C         5.1829    9.6615   48.2197  C     
32   C         4.2218    8.8173   48.8250  C     
33   C         5.8768   10.6990   49.0342  C     
34   C         5.9063   12.1399   48.4532  C     
35   S         7.5963   10.3359   49.4177  S     
36   O         7.7297    9.7594   50.8933  O     
37   O         8.4351    9.6430   48.2575  O     
38   N         8.0227   11.9560   49.4483  N     
39   C         7.1307   12.7519   48.9129  C     
40   O         7.3623   13.9472   48.7810  O     
41   H        -0.5598   13.8573   45.4729  H     
42   H        -0.4462   13.2338   43.1254  H     
43   H         0.1702   10.9598   42.4886  H     
44   H        -0.0677   12.2084   47.2090  H     
45   H         0.7753    8.4439   43.6385  H     
46   H         1.0932    7.1024   47.1656  H     
47   H         0.6895    6.0909   44.4723  H     
48   H        -1.0288    4.4513   44.2594  H     
49   H        -3.4783    5.2982   43.8771  H     
50   H        -3.0067    6.7536   44.7063  H     
51   H        -1.4539    5.6142   39.6012  H     
52   H        -2.2514    4.6920   41.6780  H     
53   H        -1.8216    8.4765   43.5134  H     
54   H        -1.0080    9.3689   41.4194  H     
55   H        -0.7958    7.9523   39.4717  H     
56   H        -3.1759    4.5115   46.2131  H     
57   H        -2.6878    2.8063   48.1335  H     
58   H        -2.3709    1.2401   47.3743  H     
59   H        -3.7984    2.1729   46.9112  H     
60   H         3.0018    5.8877   46.0938  H     
61   H         3.0063    7.0396   44.7774  H     
62   H         2.8142    7.2967   48.5427  H     
63   H         4.8607    8.5320   45.0626  H     
64   H         6.1537   10.0601   46.3708  H     
65   H         4.0266    8.8823   49.8262  H     
66   H         5.3970   10.7750   50.0161  H     
67   H         5.8974   12.1553   47.3612  H     
68   H         5.0415   12.7051   48.8136  H     
69   H         8.8713   12.2728   49.7853  H     
@<TRIPOS>BOND
     1    1    2 2
     2    1    4 1
     3    2    3 1
     4    3    6 2
     5    4    5 2
     6    5    6 1
     7    5    9 1
     8    6    8 1
     9    7    8 1
    10    7    9 2
    11    7   10 1
    12   10   11 1
    13   10   26 1
    14   11   12 am
    15   12   13 2
    16   12   14 1
    17   14   15 1
    18   14   22 1
    19   15   16 1
    20   16   18 1
    21   16   19 2
    22   17   18 2
    23   17   21 1
    24   19   20 1
    25   20   21 2
    26   22   23 am
    27   23   24 1
    28   23   25 2
    29   26   27 1
    30   27   28 1
    31   27   29 2
    32   28   32 2
    33   29   30 1
    34   30   31 2
    35   31   32 1
    36   31   33 1
    37   33   34 1
    38   33   35 1
    39   34   39 1
    40   35   36 2
    41   35   37 2
    42   35   38 1
    43   38   39 1
    44   39   40 2
    45    1   41 1
    46    2   42 1
    47    3   43 1
    48    4   44 1
    49    8   45 1
    50   10   46 1
    51   11   47 1
    52   14   48 1
    53   15   49 1
    54   15   50 1
    55   17   51 1
    56   18   52 1
    57   19   53 1
    58   20   54 1
    59   21   55 1
    60   22   56 1
    61   24   57 1
    62   24   58 1
    63   24   59 1
    64   26   60 1
    65   26   61 1
    66   28   62 1
    67   29   63 1
    68   30   64 1
    69   32   65 1
    70   33   66 1
    71   34   67 1
    72   34   68 1
    73   38   69 1
@<TRIPOS>PROPERTY_DATA
  Total_Score	| 13.0772
  Crash		| -2.6957
  Polar		| 8.4296
  FragIndex	| 1
  FragRMSD	| 0.264

