@<TRIPOS>MOLECULE
BindingDB_50189674
 49 52 0 0 0
SMALL
NO_CHARGES


@<TRIPOS>ATOM
1    C         3.5789    7.7999   46.5885  C     
2    C         4.5410    8.6657   46.0213  C     
3    C         5.2769    9.5743   46.8139  C     
4    C         5.0793    9.6773   48.2113  C     
5    C         4.1025    8.8155   48.7709  C     
6    C         3.3809    7.8917   47.9842  C     
7    C         2.7468    6.8545   45.7406  C     
8    C         5.8172   10.6746   49.0646  C     
9    C         1.1979    6.9778   45.9851  C     
10   N         0.2721    6.1679   45.2381  N     
11   C         0.7881    8.3535   45.6745  C     
12   N         0.5841    9.3401   46.5656  N     
13   N         0.5626    8.7946   44.4254  N     
14   C         0.2069   10.0734   44.5117  C     
15   C         0.2265   10.4168   45.8607  C     
16   C        -0.0808   11.7211   46.2800  C     
17   C        -0.4245   12.6759   45.2993  C     
18   C        -0.4567   12.3246   43.9307  C     
19   C        -0.1381   11.0120   43.5258  C     
20   S         7.5338   10.2514   49.4292  S     
21   N         8.0319   11.8498   49.4588  N     
22   C         7.1559   12.6899   48.9711  C     
23   C         5.8799   12.1538   48.5766  C     
24   O         8.4550    9.6363   48.2869  O     
25   O         7.7850    9.7896   50.9307  O     
26   O         7.4541   13.8673   48.8319  O     
27   C        -0.8813    5.6193   45.6348  C     
28   C        -1.5853    4.7694   44.7165  C     
29   O        -1.2541    5.7749   46.8032  O     
30   H         4.6836    8.6758   45.0067  H     
31   H         5.9584   10.1761   46.3526  H     
32   H         3.9045    8.8529   49.7682  H     
33   H         2.6653    7.3222   48.4530  H     
34   H         2.9459    7.0036   44.6726  H     
35   H         3.0742    5.8246   45.9533  H     
36   H         5.3259   10.6938   50.0402  H     
37   H         0.9874    6.7680   47.0350  H     
38   H         0.4888    5.9906   44.2995  H     
39   H         0.6303    8.2816   43.6021  H     
40   H        -0.0488   11.9643   47.2771  H     
41   H        -0.6396   13.6268   45.5859  H     
42   H        -0.6990   13.0240   43.2308  H     
43   H        -0.1516   10.7425   42.5344  H     
44   H         8.9178   12.1211   49.7498  H     
45   H         5.7885   12.2400   47.4962  H     
46   H         5.0865   12.7412   49.0356  H     
47   H        -2.0207    5.3623   43.9023  H     
48   H        -2.3921    4.2402   45.2489  H     
49   H        -0.9078    4.0213   44.2841  H     
@<TRIPOS>BOND
     1    1    2 2
     2    1    6 1
     3    1    7 1
     4    2    3 1
     5    3    4 2
     6    4    5 1
     7    4    8 1
     8    5    6 2
     9    9    7 1
    10    8   20 1
    11    8   23 1
    12    9   10 1
    13    9   11 1
    14   10   27 am
    15   11   12 2
    16   11   13 1
    17   12   15 1
    18   13   14 1
    19   14   15 2
    20   14   19 1
    21   15   16 1
    22   16   17 2
    23   17   18 1
    24   18   19 2
    25   20   21 1
    26   20   24 2
    27   20   25 2
    28   21   22 1
    29   22   23 1
    30   22   26 2
    31   27   28 1
    32   27   29 2
    33    2   30 1
    34    3   31 1
    35    5   32 1
    36    6   33 1
    37    7   34 1
    38    7   35 1
    39    8   36 1
    40    9   37 1
    41   10   38 1
    42   13   39 1
    43   16   40 1
    44   17   41 1
    45   18   42 1
    46   19   43 1
    47   21   44 1
    48   23   45 1
    49   23   46 1
    50   28   47 1
    51   28   48 1
    52   28   49 1
@<TRIPOS>PROPERTY_DATA
  Total_Score	| 12.2276
  Crash		| -1.4975
  Polar		| 6.9431
  FragIndex	| 1
  FragRMSD	| 0.258

