@<TRIPOS>MOLECULE
BindingDB_50189647
 68 73 0 0 0
SMALL
NO_CHARGES


@<TRIPOS>ATOM
1    C         3.4179    8.0485   46.7014  C     
2    C         3.1944    8.2476   48.0818  C     
3    C         3.9652    9.1645   48.8118  C     
4    C         5.0331    9.8730   48.1942  C     
5    C         5.2934    9.6187   46.8319  C     
6    C         4.4958    8.7251   46.0916  C     
7    C         2.4883    7.1760   45.9275  C     
8    C         5.8277   10.8208   49.0348  C     
9    C         1.0098    7.7269   45.9303  C     
10   N         0.6599    8.2760   44.6571  N     
11   C         0.0415    6.6647   46.2612  C     
12   N        -0.8629    6.7150   47.2695  N     
13   N        -0.0897    5.5156   45.5814  N     
14   C        -1.0673    4.8109   46.1515  C     
15   C        -1.5591    5.5691   47.2096  C     
16   C        -2.6052    5.0930   48.0148  C     
17   C        -3.1483    3.8159   47.7340  C     
18   C        -2.6293    3.0395   46.6668  C     
19   C        -1.5826    3.5386   45.8632  C     
20   S         7.5141   10.2686   49.3589  S     
21   N         8.0916   11.8425   49.4579  N     
22   C         7.2679   12.7482   48.9925  C     
23   C         5.9780   12.2840   48.5374  C     
24   O         8.3145    9.5778   48.1789  O     
25   O         7.6609    9.6533   50.8152  O     
26   O         7.6111   13.9178   48.9175  O     
27   S        -0.6462    9.3357   44.4521  S     
28   C        -0.4718   10.8389   45.2961  C     
29   O        -0.7395    9.6086   42.8829  O     
30   O        -2.0284    8.6283   44.7964  O     
31   C        -0.5542   10.8534   46.7031  C     
32   C        -0.3306   12.0364   47.4114  C     
33   C        -0.0484   13.2856   46.7751  C     
34   C        -0.0547   13.2355   45.3452  C     
35   C        -0.2379   12.0519   44.6220  C     
36   C         0.2410   14.5033   47.5231  C     
37   C         0.9441   15.6098   46.9382  C     
38   C         1.2495   16.7740   47.6558  C     
39   C         0.8947   16.8835   49.0081  C     
40   C         0.2105   15.8242   49.6280  C     
41   C        -0.1243   14.6763   48.8964  C     
42   C        -4.1171    3.3487   48.4670  C     
43   N        -4.9720    2.9363   49.1162  N     
44   H         2.4302    7.7567   48.5555  H     
45   H         3.7326    9.3132   49.7939  H     
46   H         6.0567   10.1001   46.3508  H     
47   H         4.7001    8.5849   45.0965  H     
48   H         2.8351    7.0450   44.8976  H     
49   H         2.5486    6.1810   46.3850  H     
50   H         5.3856   10.8913   50.0279  H     
51   H         0.9066    8.5049   46.6824  H     
52   H         0.9636    7.8018   43.8726  H     
53   H         0.4536    5.2572   44.8260  H     
54   H        -2.9562    5.6726   48.7864  H     
55   H        -2.9981    2.1053   46.4663  H     
56   H        -1.1974    2.9885   45.0969  H     
57   H         8.9750   12.0583   49.7939  H     
58   H         5.9438   12.3842   47.4489  H     
59   H         5.1859   12.9038   48.9670  H     
60   H        -0.7541    9.9929   47.2230  H     
61   H        -0.3685   11.9280   48.4203  H     
62   H         0.0648   14.0622   44.7674  H     
63   H        -0.2093   12.0831   43.5986  H     
64   H         1.2960   15.6007   45.9823  H     
65   H         1.7607   17.5350   47.1975  H     
66   H         1.1343   17.7265   49.5403  H     
67   H        -0.0577   15.8982   50.6127  H     
68   H        -0.6551   13.9810   49.4230  H     
@<TRIPOS>BOND
     1    1    2 2
     2    1    6 1
     3    1    7 1
     4    2    3 1
     5    3    4 2
     6    4    5 1
     7    4    8 1
     8    5    6 2
     9    7    9 1
    10    8   20 1
    11    8   23 1
    12    9   10 1
    13    9   11 1
    14   10   27 1
    15   11   12 2
    16   11   13 1
    17   12   15 1
    18   13   14 1
    19   14   15 2
    20   14   19 1
    21   15   16 1
    22   16   17 2
    23   17   18 1
    24   17   42 1
    25   18   19 2
    26   20   21 1
    27   20   24 2
    28   20   25 2
    29   21   22 1
    30   22   23 1
    31   22   26 2
    32   27   28 1
    33   27   29 2
    34   27   30 2
    35   28   31 2
    36   28   35 1
    37   31   32 1
    38   32   33 2
    39   33   34 1
    40   33   36 1
    41   34   35 2
    42   36   37 2
    43   36   41 1
    44   37   38 1
    45   38   39 2
    46   39   40 1
    47   40   41 2
    48   42   43 3
    49    2   44 1
    50    3   45 1
    51    5   46 1
    52    6   47 1
    53    7   48 1
    54    7   49 1
    55    8   50 1
    56    9   51 1
    57   10   52 1
    58   13   53 1
    59   16   54 1
    60   18   55 1
    61   19   56 1
    62   21   57 1
    63   23   58 1
    64   23   59 1
    65   31   60 1
    66   32   61 1
    67   34   62 1
    68   35   63 1
    69   37   64 1
    70   38   65 1
    71   39   66 1
    72   40   67 1
    73   41   68 1
@<TRIPOS>PROPERTY_DATA
  Total_Score	| 12.8351
  Crash		| -1.9238
  Polar		| 6.9217
  FragIndex	| 1
  FragRMSD	| 0.622

