@<TRIPOS>MOLECULE
BindingDB_13490
 59 63 0 0 0
SMALL
NO_CHARGES


@<TRIPOS>ATOM
1    C         3.5711    7.9090   46.4670  C     
2    C         3.6929    8.0969   47.8611  C     
3    C         4.6147    9.0230   48.3858  C     
4    C         5.4070    9.8277   47.5314  C     
5    C         5.2239    9.6792   46.1363  C     
6    C         4.3406    8.7230   45.6099  C     
7    C         6.4805   10.7598   47.9928  C     
8    C         7.1311   12.7244   49.1720  C     
9    C         5.9953   12.1425   48.4907  C     
10   N         8.0513   11.8759   49.5692  N     
11   O         7.1270    9.7673   50.6807  O     
12   O         7.3176   13.9259   49.2568  O     
13   C         2.6517    6.8762   45.9150  C     
14   C         1.1542    7.1396   46.2416  C     
15   C         0.7276    8.4693   45.7566  C     
16   C         0.2130   10.0974   44.4180  C     
17   C         0.2197   10.5659   45.7308  C     
18   C        -0.3793   12.3019   43.6182  C     
19   C        -0.0856   10.9497   43.3415  C     
20   C        -0.0638   11.9112   46.0190  C     
21   C        -0.3666   12.7806   44.9486  C     
22   N         0.5371    9.5480   46.5437  N     
23   N         0.5343    8.8020   44.4653  N     
24   N         0.3591    6.1536   45.5765  N     
25   S         7.6620   10.2751   49.2708  S     
26   O         8.9131    9.5590   48.5928  O     
27   C        -0.8310    5.6829   45.9265  C     
28   O        -1.3855    6.0746   46.9457  O     
29   C        -1.4869    4.7056   45.0637  C     
30   F        -0.5577    3.7340   44.7649  F     
31   F        -2.4935    4.0240   45.7140  F     
32   C        -2.0754    5.3669   43.8555  C     
33   C        -3.1715    6.7125   41.6053  C     
34   C        -3.5724    7.0707   42.9028  C     
35   C        -3.0292    6.4041   44.0150  C     
36   C        -1.6937    5.0150   42.5366  C     
37   C        -2.2339    5.6824   41.4223  C     
38   H         3.1429    7.5245   48.5064  H     
39   H         4.7199    9.0634   49.3965  H     
40   H         5.7748   10.2397   45.4838  H     
41   H         4.2647    8.6261   44.5951  H     
42   H         7.1285   10.9356   47.1237  H     
43   H         5.6785   12.7687   47.6538  H     
44   H         5.1675   12.0372   49.1933  H     
45   H         8.9092   12.1547   49.9214  H     
46   H         2.7685    6.8068   44.8285  H     
47   H         2.9446    5.9026   46.3142  H     
48   H         1.0192    7.0921   47.3266  H     
49   H        -0.5992   12.9402   42.8504  H     
50   H        -0.0885   10.5963   42.3825  H     
51   H        -0.0468   12.2508   46.9825  H     
52   H        -0.5764   13.7630   45.1376  H     
53   H         0.6218    8.2033   43.7050  H     
54   H         0.7441    5.7978   44.7615  H     
55   H        -3.5625    7.1993   40.7965  H     
56   H        -4.2551    7.8190   43.0387  H     
57   H        -3.3290    6.6880   44.9505  H     
58   H        -1.0096    4.2739   42.3724  H     
59   H        -1.9419    5.4205   40.4783  H     
@<TRIPOS>BOND
     1    1    2 1
     2    1    6 2
     3    1   13 1
     4    2    3 2
     5    3    4 1
     6    4    5 2
     7    4    7 1
     8    5    6 1
     9    7    9 1
    10    7   25 1
    11    8    9 1
    12    8   10 1
    13    8   12 2
    14   10   25 1
    15   11   25 2
    16   14   13 1
    17   14   15 1
    18   14   24 1
    19   15   22 2
    20   15   23 1
    21   16   17 2
    22   16   19 1
    23   16   23 1
    24   17   20 1
    25   17   22 1
    26   18   19 2
    27   18   21 1
    28   20   21 2
    29   24   27 am
    30   25   26 2
    31   27   28 2
    32   27   29 1
    33   29   30 1
    34   29   31 1
    35   29   32 1
    36   32   35 2
    37   32   36 1
    38   33   34 2
    39   33   37 1
    40   34   35 1
    41   36   37 2
    42    2   38 1
    43    3   39 1
    44    5   40 1
    45    6   41 1
    46    7   42 1
    47    9   43 1
    48    9   44 1
    49   10   45 1
    50   13   46 1
    51   13   47 1
    52   14   48 1
    53   18   49 1
    54   19   50 1
    55   20   51 1
    56   21   52 1
    57   23   53 1
    58   24   54 1
    59   33   55 1
    60   34   56 1
    61   35   57 1
    62   36   58 1
    63   37   59 1
@<TRIPOS>PROPERTY_DATA
  Total_Score	| 11.0786
  Crash		| -2.5523
  Polar		| 6.2279
  FragIndex	| 1
  FragRMSD	| 0.517

