@<TRIPOS>MOLECULE
BindingDB_13474
 52 55 0 0 0
SMALL
NO_CHARGES


@<TRIPOS>ATOM
1    C         7.1351   12.7135   48.9540  C     
2    C         5.8993   12.1229   48.5108  C     
3    C         5.8755   10.6683   49.0554  C     
4    N         8.0340   11.8993   49.4531  N     
5    O         7.3680   13.9067   48.8342  O     
6    S         7.5932   10.2864   49.4391  S     
7    O         8.4488    9.5992   48.2799  O     
8    O         7.7488    9.7720   50.9354  O     
9    C         5.1860    9.6402   48.2140  C     
10   C         3.5054    7.8538   48.0270  C     
11   C         4.2263    8.7808   48.8026  C     
12   C         5.4414    9.4962   46.8303  C     
13   C         4.6902    8.5901   46.0475  C     
14   C         3.6794    7.7858   46.6272  C     
15   C         2.8084    6.8928   45.7915  C     
16   C         1.2773    7.1100   46.0260  C     
17   C         0.8708    8.4723   45.6200  C     
18   C         0.3110   10.5513   45.7191  C     
19   C         0.0086   11.8753   46.0865  C     
20   C        -0.5146   12.7667   45.1187  C     
21   C        -0.6812   12.3065   43.7818  C     
22   C        -0.3510   10.9791   43.4192  C     
23   C         0.1431   10.1193   44.4051  C     
24   N         0.7608    9.5291   46.4531  N     
25   N         0.5144    8.8327   44.3713  N     
26   C        -0.8617   14.1566   45.5335  C     
27   F        -1.4645   14.9108   44.5530  F     
28   F        -1.7306   14.1392   46.6011  F     
29   F         0.2794   14.8232   45.9135  F     
30   N         0.4108    6.1974   45.3349  N     
31   C        -0.7054    5.6382   45.7943  C     
32   O        -1.0685    5.8465   46.9435  O     
33   C        -1.5316    4.8388   44.9046  C     
34   F        -2.5712    4.2166   45.5713  F     
35   F        -2.0827    5.6359   43.9226  F     
36   F        -0.7713    3.8580   44.3017  F     
37   H         5.0514   12.6894   48.9127  H     
38   H         5.8549   12.1640   47.4199  H     
39   H         5.3849   10.7209   50.0357  H     
40   H         8.8906   12.2040   49.7890  H     
41   H         2.8089    7.2713   48.4979  H     
42   H         4.0393    8.8329   49.8114  H     
43   H         6.1594   10.0672   46.3744  H     
44   H         4.8613    8.5494   45.0406  H     
45   H         3.0108    7.0305   44.7299  H     
46   H         3.0639    5.8621   46.0363  H     
47   H         1.0672    7.0088   47.0983  H     
48   H         0.1483   12.1653   47.0620  H     
49   H        -1.0460   12.9300   43.0617  H     
50   H        -0.4767   10.6584   42.4580  H     
51   H         0.4872    8.2405   43.6033  H     
52   H         0.6219    6.0174   44.4009  H     
@<TRIPOS>BOND
     1    1    2 1
     2    1    4 1
     3    1    5 2
     4    2    3 1
     5    3    6 1
     6    3    9 1
     7    4    6 1
     8    6    7 2
     9    6    8 2
    10    9   11 1
    11    9   12 2
    12   10   11 2
    13   10   14 1
    14   12   13 1
    15   13   14 2
    16   14   15 1
    17   16   15 1
    18   16   17 1
    19   16   30 1
    20   17   24 2
    21   17   25 1
    22   18   19 1
    23   18   23 2
    24   18   24 1
    25   19   20 2
    26   20   21 1
    27   20   26 1
    28   21   22 2
    29   22   23 1
    30   23   25 1
    31   26   27 1
    32   26   28 1
    33   26   29 1
    34   30   31 am
    35   31   32 2
    36   31   33 1
    37   33   34 1
    38   33   35 1
    39   33   36 1
    40    2   37 1
    41    2   38 1
    42    3   39 1
    43    4   40 1
    44   10   41 1
    45   11   42 1
    46   12   43 1
    47   13   44 1
    48   15   45 1
    49   15   46 1
    50   16   47 1
    51   19   48 1
    52   21   49 1
    53   22   50 1
    54   25   51 1
    55   30   52 1
@<TRIPOS>PROPERTY_DATA
  Total_Score	| 12.4107
  Crash		| -1.6067
  Polar		| 7.1111
  FragIndex	| 1
  FragRMSD	| 0.479

