@<TRIPOS>MOLECULE
BindingDB_50198037
 42 43 0 0 0
SMALL
NO_CHARGES


@<TRIPOS>ATOM
1    N        -2.3913   26.2411   11.3118  N     
2    C        -3.0300   27.4835   11.0702  C     
3    C        -3.8712   27.8548   12.3494  C     
4    C        -3.0782   28.0861   13.6746  C     
5    C        -4.8759   29.0056   12.0966  C     
6    P        -1.8913   28.5281   10.4376  P     
7    O        -2.3945   29.9128   10.3812  O     
8    O        -0.6149   28.5718   11.3235  O     
9    O        -1.4033   28.0348    9.0431  O     
10   S        -3.0805   24.7816   10.8190  S     
11   C        -2.5768   24.1329    9.2926  C     
12   O        -4.6346   24.6859   11.1270  O     
13   O        -2.5425   23.8010   11.9393  O     
14   C        -3.4862   24.0052    8.2277  C     
15   C        -3.0625   23.4952    6.9814  C     
16   C        -1.7063   23.1232    6.7445  C     
17   C        -0.8035   23.2599    7.8410  C     
18   C        -1.2397   23.7423    9.0923  C     
19   C        -1.2800   22.6455    5.4561  C     
20   C        -0.1387   21.8194    5.3148  C     
21   C         0.2745   21.3592    4.0516  C     
22   C        -0.4654   21.7047    2.9020  C     
23   C        -1.6054   22.5155    3.0196  C     
24   C        -2.0026   22.9852    4.2789  C     
25   F         1.3363   20.6121    3.9369  F     
26   H        -1.7805   26.1845   12.0708  H     
27   H        -3.7425   27.3647   10.2579  H     
28   H        -4.4962   26.9802   12.5675  H     
29   H        -2.4222   27.2504   13.9060  H     
30   H        -3.7765   28.1857   14.5109  H     
31   H        -2.4862   28.9898   13.6120  H     
32   H        -4.3210   29.9508   11.9796  H     
33   H        -5.5927   29.0734   12.9319  H     
34   H        -5.4540   28.7936   11.1869  H     
35   H        -4.4681   24.2762    8.3229  H     
36   H        -3.7667   23.3991    6.2388  H     
37   H         0.1880   23.0355    7.7264  H     
38   H        -0.5560   23.8122    9.8507  H     
39   H         0.4004   21.5227    6.1295  H     
40   H        -0.1719   21.3648    1.9748  H     
41   H        -2.1392   22.7704    2.1901  H     
42   H        -2.8233   23.5890    4.3165  H     
@<TRIPOS>BOND
     1    1    2 1
     2    1   10 1
     3    2    3 1
     4    2    6 1
     5    3    4 1
     6    3    5 1
     7    6    7 2
     8    6    8 1
     9    6    9 1
    10   10   11 1
    11   10   12 2
    12   10   13 2
    13   11   14 2
    14   11   18 1
    15   14   15 1
    16   15   16 2
    17   16   17 1
    18   16   19 1
    19   17   18 2
    20   19   20 2
    21   19   24 1
    22   20   21 1
    23   21   22 2
    24   21   25 1
    25   22   23 1
    26   23   24 2
    27    1   26 1
    28    2   27 1
    29    3   28 1
    30    4   29 1
    31    4   30 1
    32    4   31 1
    33    5   32 1
    34    5   33 1
    35    5   34 1
    36   14   35 1
    37   15   36 1
    38   17   37 1
    39   18   38 1
    40   20   39 1
    41   22   40 1
    42   23   41 1
    43   24   42 1
@<TRIPOS>PROPERTY_DATA
  Total_Score	| 10.8441
  Crash		| -0.6972
  Polar		| 6.1741
  FragIndex	| 1
  FragRMSD	| 0.374

