@<TRIPOS>MOLECULE
BindingDB_12072
 46 47 0 0 0
SMALL
NO_CHARGES


@<TRIPOS>ATOM
1    C        -3.4101   24.0650    8.1262  C     
2    C        -2.9795   23.5570    6.8866  C     
3    C        -1.6366   23.1358    6.6676  C     
4    C        -0.7397   23.2715    7.7641  C     
5    C        -1.1685   23.7657    9.0128  C     
6    C        -1.2069   22.5853    5.4030  C     
7    C        -1.9055   22.8799    4.1984  C     
8    C        -1.5219   22.3222    2.9638  C     
9    C        -0.4111   21.4583    2.8830  C     
10   C         0.3175   21.1627    4.0580  C     
11   C        -0.0838   21.7146    5.3005  C     
12   O        -0.0405   21.0051    1.6386  O     
13   C         0.5107   19.6831    1.5753  C     
14   C        -2.5073   24.1615    9.2070  C     
15   S        -3.0239   24.7384   10.7673  S     
16   O        -4.6037   24.7384   10.9678  O     
17   O        -2.5093   23.7153   11.8803  O     
18   N        -2.3372   26.2168   11.1986  N     
19   C        -2.9938   27.4635   10.9690  C     
20   C        -3.8521   27.8094   12.2390  C     
21   C        -3.0166   28.0076   13.5389  C     
22   C        -4.8368   28.9849   12.0261  C     
23   O        -2.3966   29.8711   10.2567  O     
24   P        -1.8475   28.5549   10.4430  P     
25   O        -0.6270   28.6444   11.3768  O     
26   O        -1.3004   28.1253    9.0609  O     
27   H        -4.3861   24.3459    8.2387  H     
28   H        -3.6766   23.4668    6.1461  H     
29   H         0.2452   23.0116    7.6597  H     
30   H        -0.4904   23.8322    9.7781  H     
31   H        -2.7123   23.5133    4.1972  H     
32   H        -2.0466   22.5563    2.1123  H     
33   H         1.1303   20.5458    4.0087  H     
34   H         0.4428   21.4542    6.1318  H     
35   H         1.4969   19.6626    2.0454  H     
36   H         0.6042   19.4086    0.5158  H     
37   H        -0.1438   18.9485    2.0500  H     
38   H        -1.6624   26.1893   11.9040  H     
39   H        -3.6884   27.3511   10.1253  H     
40   H        -4.4853   26.9402   12.4326  H     
41   H        -2.3451   27.1675   13.7003  H     
42   H        -3.6942   28.0549   14.3927  H     
43   H        -2.4317   28.9237   13.4992  H     
44   H        -4.3026   29.9358   11.9514  H     
45   H        -5.5350   29.0424   12.8644  H     
46   H        -5.4250   28.8418   11.1132  H     
@<TRIPOS>BOND
     1    1    2 2
     2    1   14 1
     3    2    3 1
     4    3    4 2
     5    3    6 1
     6    4    5 1
     7    5   14 2
     8    6    7 2
     9    6   11 1
    10    7    8 1
    11    8    9 2
    12    9   10 1
    13    9   12 1
    14   10   11 2
    15   12   13 1
    16   14   15 1
    17   15   16 2
    18   15   17 2
    19   15   18 1
    20   18   19 1
    21   19   20 1
    22   19   24 1
    23   20   21 1
    24   20   22 1
    25   23   24 2
    26   24   25 1
    27   24   26 1
    28    1   27 1
    29    2   28 1
    30    4   29 1
    31    5   30 1
    32    7   31 1
    33    8   32 1
    34   10   33 1
    35   11   34 1
    36   13   35 1
    37   13   36 1
    38   13   37 1
    39   18   38 1
    40   19   39 1
    41   20   40 1
    42   21   41 1
    43   21   42 1
    44   21   43 1
    45   22   44 1
    46   22   45 1
    47   22   46 1
@<TRIPOS>PROPERTY_DATA
  Total_Score	| 11.2063
  Crash		| -0.8104
  Polar		| 6.0899
  FragIndex	| 1
  FragRMSD	| 0.379

