@<TRIPOS>MOLECULE
BindingDB_50198030
 42 43 0 0 0
SMALL
NO_CHARGES


@<TRIPOS>ATOM
1    N        -2.3803   26.2374   11.2650  N     
2    C        -3.0039   27.5016   11.0239  C     
3    C        -3.8256   27.9305   12.2989  C     
4    C        -2.9931   28.0747   13.6066  C     
5    C        -4.7085   29.1912   12.0781  C     
6    P        -1.8214   28.5312   10.4424  P     
7    O        -0.7012   28.6771   11.3478  O     
8    O        -1.3025   28.0906    9.0570  O     
9    O        -2.3976   29.9387   10.2304  O     
10   S        -3.0688   24.7682   10.8113  S     
11   C        -2.5009   24.1638    9.2865  C     
12   O        -4.6510   24.7939   10.9531  O     
13   O        -2.6251   23.7470   11.9424  O     
14   C        -1.1609   23.7665    9.1477  C     
15   C        -0.6993   23.2392    7.9279  C     
16   C        -1.5634   23.0998    6.8159  C     
17   C        -2.9064   23.5224    6.9680  C     
18   C        -3.3727   24.0479    8.1866  C     
19   C        -1.1040   22.5151    5.5904  C     
20   C        -1.5843   22.9639    4.3336  C     
21   C        -1.1573   22.3549    3.1347  C     
22   C        -0.2332   21.2961    3.1697  C     
23   C         0.2578   20.8425    4.4053  C     
24   C        -0.1755   21.4423    5.6020  C     
25   Cl       -1.7669   22.8775    1.6476  Cl    
26   H        -1.6563   26.2006   11.9150  H     
27   H        -3.7189   27.3895   10.2021  H     
28   H        -4.5318   27.1112   12.4943  H     
29   H        -2.3711   27.1889   13.7629  H     
30   H        -3.6636   28.1842   14.4667  H     
31   H        -2.3527   28.9600   13.5591  H     
32   H        -4.0990   30.0920   12.0129  H     
33   H        -5.4053   29.3076   12.9083  H     
34   H        -5.2884   29.0891   11.1595  H     
35   H        -0.5069   23.8459    9.9308  H     
36   H         0.2853   22.9691    7.8554  H     
37   H        -3.5713   23.4277    6.1937  H     
38   H        -4.3515   24.3310    8.2664  H     
39   H        -2.2383   23.7498    4.2784  H     
40   H         0.0864   20.8537    2.3034  H     
41   H         0.9246   20.0691    4.4340  H     
42   H         0.1794   21.0650    6.4862  H     
@<TRIPOS>BOND
     1    1    2 1
     2    1   10 1
     3    2    3 1
     4    2    6 1
     5    3    4 1
     6    3    5 1
     7    6    7 2
     8    6    8 1
     9    6    9 1
    10   10   11 1
    11   10   12 2
    12   10   13 2
    13   11   14 2
    14   11   18 1
    15   14   15 1
    16   15   16 2
    17   16   17 1
    18   16   19 1
    19   17   18 2
    20   19   20 2
    21   19   24 1
    22   20   21 1
    23   21   22 2
    24   21   25 1
    25   22   23 1
    26   23   24 2
    27    1   26 1
    28    2   27 1
    29    3   28 1
    30    4   29 1
    31    4   30 1
    32    4   31 1
    33    5   32 1
    34    5   33 1
    35    5   34 1
    36   14   35 1
    37   15   36 1
    38   17   37 1
    39   18   38 1
    40   20   39 1
    41   22   40 1
    42   23   41 1
    43   24   42 1
@<TRIPOS>PROPERTY_DATA
  Total_Score	| 10.1082
  Crash		| -1.0203
  Polar		| 6.7269
  FragIndex	| 1
  FragRMSD	| 0.816

