@<TRIPOS>MOLECULE
BindingDB_50198038
 49 50 0 0 0
SMALL
NO_CHARGES


@<TRIPOS>ATOM
1    N        -2.4092   26.4362   11.4870  N     
2    C        -2.9371   27.7193   11.1243  C     
3    C        -3.7302   28.4463   12.2911  C     
4    C        -5.1633   27.8541   12.5135  C     
5    C        -3.0206   28.5927   13.6938  C     
6    P        -1.6918   28.5775   10.4096  P     
7    O        -0.5302   28.6422   11.2649  O     
8    O        -1.2458   28.0053    9.0475  O     
9    O        -2.1100   30.0170   10.0719  O     
10   S        -3.0511   24.9756   10.9229  S     
11   C        -2.5380   24.3774    9.3681  C     
12   O        -4.6299   24.9591   11.1061  O     
13   O        -2.5989   23.8873   11.9884  O     
14   C        -1.2033   23.9822    9.1704  C     
15   C        -0.7970   23.4039    7.9522  C     
16   C        -1.7078   23.2316    6.8786  C     
17   C        -3.0407   23.6554    7.0886  C     
18   C        -3.4513   24.2184    8.3080  C     
19   C        -1.2878   22.6539    5.6336  C     
20   C        -0.1850   21.7711    5.5567  C     
21   C         0.2337   21.2160    4.3307  C     
22   C        -0.4646   21.5029    3.1423  C     
23   C        -1.5716   22.3635    3.2052  C     
24   C        -1.9773   22.9264    4.4279  C     
25   O        -0.1130   21.0497    1.8893  O     
26   C         0.5761   19.8025    1.7209  C     
27   C         0.7344   19.5531    0.2157  C     
28   H        -1.7317   26.3856   12.1794  H     
29   H        -3.6651   27.5726   10.3166  H     
30   H        -3.9054   29.4836   11.9352  H     
31   H        -5.6853   27.7377   11.5517  H     
32   H        -5.7660   28.5252   13.1383  H     
33   H        -5.0859   26.8756   13.0079  H     
34   H        -2.6683   27.6063   14.0619  H     
35   H        -3.7088   29.0489   14.4230  H     
36   H        -2.1711   29.2840   13.6069  H     
37   H        -0.5163   24.0836    9.9157  H     
38   H         0.1806   23.1155    7.8583  H     
39   H        -3.7474   23.5370    6.3530  H     
40   H        -4.4273   24.4926    8.4184  H     
41   H         0.3484   21.5207    6.3947  H     
42   H         1.0580   20.6140    4.3245  H     
43   H        -2.0841   22.6038    2.3510  H     
44   H        -2.7694   23.5699    4.4171  H     
45   H         1.5707   19.8444    2.1633  H     
46   H         0.0109   18.9800    2.1591  H     
47   H        -0.2369   19.3746   -0.2379  H     
48   H         1.3735   18.6865    0.0457  H     
49   H         1.1932   20.4245   -0.2548  H     
@<TRIPOS>BOND
     1    1    2 1
     2    1   10 1
     3    2    3 1
     4    2    6 1
     5    3    4 1
     6    3    5 1
     7    6    7 2
     8    6    8 1
     9    6    9 1
    10   10   11 1
    11   10   12 2
    12   10   13 2
    13   11   14 2
    14   11   18 1
    15   14   15 1
    16   15   16 2
    17   16   17 1
    18   16   19 1
    19   17   18 2
    20   19   20 2
    21   19   24 1
    22   20   21 1
    23   21   22 2
    24   22   23 1
    25   22   25 1
    26   23   24 2
    27   25   26 1
    28   26   27 1
    29    1   28 1
    30    2   29 1
    31    3   30 1
    32    4   31 1
    33    4   32 1
    34    4   33 1
    35    5   34 1
    36    5   35 1
    37    5   36 1
    38   14   37 1
    39   15   38 1
    40   17   39 1
    41   18   40 1
    42   20   41 1
    43   21   42 1
    44   23   43 1
    45   24   44 1
    46   26   45 1
    47   26   46 1
    48   27   47 1
    49   27   48 1
    50   27   49 1
@<TRIPOS>PROPERTY_DATA
  Total_Score	| 12.2393
  Crash		| -1.0152
  Polar		| 6.1700
  FragIndex	| 1
  FragRMSD	| 0.690

