@<TRIPOS>MOLECULE
BindingDB_50198032
 48 49 0 0 0
SMALL
NO_CHARGES


@<TRIPOS>ATOM
1    N        -2.0191   26.1929   10.8983  N     
2    C        -2.6557   27.4590   11.1079  C     
3    C        -3.0696   27.6515   12.6376  C     
4    C        -2.8333   29.0510   13.2729  C     
5    C        -4.5642   27.2767   12.8578  C     
6    P        -1.6219   28.5759   10.4136  P     
7    O        -2.2854   29.8222   10.1630  O     
8    O        -0.3792   28.8425   11.2850  O     
9    O        -1.1149   28.0915    9.0332  O     
10   S        -2.8021   24.7242   10.5810  S     
11   C        -2.2455   23.9885    9.1069  C     
12   O        -4.3816   24.8738   10.5262  O     
13   O        -2.4991   23.7789   11.8271  O     
14   C        -0.9305   23.4954    9.0098  C     
15   C        -0.4623   22.9283    7.8055  C     
16   C        -1.3106   22.8316    6.6780  C     
17   C        -2.6244   23.3136    6.7923  C     
18   C        -3.0937   23.8974    7.9851  C     
19   C        -0.8411   22.0868    5.4545  C     
20   C        -1.3870   22.5456    4.0701  C     
21   C        -1.0090   21.7896    2.8274  C     
22   C        -1.7564   22.0369    1.6466  C     
23   C        -1.4762   21.3522    0.4504  C     
24   C        -0.4196   20.4225    0.4074  C     
25   C         0.3617   20.1928    1.5474  C     
26   C         0.0609   20.8730    2.7535  C     
27   H        -1.0512   26.1469   10.9945  H     
28   H        -3.5569   27.5041   10.4936  H     
29   H        -2.4799   26.9548   13.2380  H     
30   H        -1.7777   29.3118   13.2723  H     
31   H        -3.1573   29.0621   14.3202  H     
32   H        -3.3924   29.8154   12.7394  H     
33   H        -5.2139   27.9126   12.2567  H     
34   H        -4.8523   27.3785   13.9064  H     
35   H        -4.7447   26.2418   12.5842  H     
36   H        -0.3049   23.5350    9.8210  H     
37   H         0.4968   22.5736    7.7819  H     
38   H        -3.2909   23.2721    6.0273  H     
39   H        -4.0563   24.2328    8.0107  H     
40   H         0.2479   22.1241    5.4163  H     
41   H        -1.1190   21.0459    5.6108  H     
42   H        -2.4756   22.4881    4.1033  H     
43   H        -1.1272   23.5930    3.9246  H     
44   H        -2.5270   22.7113    1.6552  H     
45   H        -2.0428   21.5182   -0.3842  H     
46   H        -0.2252   19.9117   -0.4602  H     
47   H         1.1422   19.5331    1.5161  H     
48   H         0.6628   20.6693    3.5441  H     
@<TRIPOS>BOND
     1    1    2 1
     2    1   10 1
     3    2    3 1
     4    2    6 1
     5    3    4 1
     6    3    5 1
     7    6    7 2
     8    6    8 1
     9    6    9 1
    10   10   11 1
    11   10   12 2
    12   10   13 2
    13   11   14 2
    14   11   18 1
    15   14   15 1
    16   15   16 2
    17   16   17 1
    18   16   19 1
    19   17   18 2
    20   19   20 1
    21   20   21 1
    22   21   22 2
    23   21   26 1
    24   22   23 1
    25   23   24 2
    26   24   25 1
    27   25   26 2
    28    1   27 1
    29    2   28 1
    30    3   29 1
    31    4   30 1
    32    4   31 1
    33    4   32 1
    34    5   33 1
    35    5   34 1
    36    5   35 1
    37   14   36 1
    38   15   37 1
    39   17   38 1
    40   18   39 1
    41   19   40 1
    42   19   41 1
    43   20   42 1
    44   20   43 1
    45   22   44 1
    46   23   45 1
    47   24   46 1
    48   25   47 1
    49   26   48 1
@<TRIPOS>PROPERTY_DATA
  Total_Score	| 10.4175
  Crash		| -1.2658
  Polar		| 5.9568
  FragIndex	| 1
  FragRMSD	| 0.574

