@<TRIPOS>MOLECULE
BindingDB_50198033
 45 46 0 0 0
SMALL
NO_CHARGES


@<TRIPOS>ATOM
1    N        -1.9853   26.2706   10.9912  N     
2    C        -2.6064   27.5462   11.1569  C     
3    C        -3.0014   27.7417   12.6840  C     
4    C        -2.7574   29.1349   13.3291  C     
5    C        -4.4746   27.2951   12.9567  C     
6    S        -2.8063   24.8274   10.6917  S     
7    C        -2.3218   24.1485    9.1649  C     
8    O        -4.3857   25.0171   10.7663  O     
9    O        -2.4751   23.8319   11.8797  O     
10   C        -3.2318   24.0663    8.0879  C     
11   C        -2.8394   23.4995    6.8640  C     
12   C        -1.5137   23.0220    6.6618  C     
13   C        -0.6001   23.1412    7.7480  C     
14   C        -0.9979   23.6887    8.9846  C     
15   C        -1.1356   22.4257    5.4151  C     
16   C        -0.3052   21.2808    5.3846  C     
17   C         0.0099   20.6418    4.1664  C     
18   C        -0.4940   21.1256    2.9419  C     
19   C        -1.3077   22.2822    2.9564  C     
20   C        -1.6217   22.9155    4.1750  C     
21   P        -1.5987   28.6430   10.3894  P     
22   O        -0.3720   28.9301   11.1008  O     
23   O        -1.1811   28.0792    9.0221  O     
24   O        -2.3228   29.9772   10.1177  O     
25   C        -0.2005   20.3981    1.6829  C     
26   H        -1.0107   26.2189   11.0516  H     
27   H        -3.5191   27.5826   10.5546  H     
28   H        -2.3987   27.0566   13.2877  H     
29   H        -1.7068   29.4288   13.1924  H     
30   H        -2.9599   29.1202   14.4071  H     
31   H        -3.3962   29.8912   12.8764  H     
32   H        -5.1705   27.9587   12.4441  H     
33   H        -4.6830   27.3066   14.0371  H     
34   H        -4.6378   26.2800   12.5813  H     
35   H        -4.1932   24.4143    8.1916  H     
36   H        -3.5407   23.4308    6.1193  H     
37   H         0.3784   22.8283    7.6484  H     
38   H        -0.3196   23.7549    9.7551  H     
39   H         0.0542   20.8746    6.2466  H     
40   H         0.6032   19.8101    4.1843  H     
41   H        -1.6994   22.6569    2.0868  H     
42   H        -2.2286   23.7303    4.1443  H     
43   H         0.8777   20.3576    1.5202  H     
44   H        -0.6584   20.8865    0.8229  H     
45   H        -0.5896   19.3777    1.7424  H     
@<TRIPOS>BOND
     1    1    2 1
     2    1    6 1
     3    2    3 1
     4    2   21 1
     5    3    4 1
     6    3    5 1
     7    6    7 1
     8    6    8 2
     9    6    9 2
    10    7   10 2
    11    7   14 1
    12   10   11 1
    13   11   12 2
    14   12   13 1
    15   12   15 1
    16   13   14 2
    17   15   16 2
    18   15   20 1
    19   16   17 1
    20   17   18 2
    21   18   19 1
    22   18   25 1
    23   19   20 2
    24   21   22 2
    25   21   23 1
    26   21   24 1
    27    1   26 1
    28    2   27 1
    29    3   28 1
    30    4   29 1
    31    4   30 1
    32    4   31 1
    33    5   32 1
    34    5   33 1
    35    5   34 1
    36   10   35 1
    37   11   36 1
    38   13   37 1
    39   14   38 1
    40   16   39 1
    41   17   40 1
    42   19   41 1
    43   20   42 1
    44   25   43 1
    45   25   44 1
    46   25   45 1
@<TRIPOS>PROPERTY_DATA
  Total_Score	| 10.8740
  Crash		| -0.9974
  Polar		| 5.9303
  FragIndex	| 1
  FragRMSD	| 0.850

