@<TRIPOS>MOLECULE
BindingDB_50198036
 52 53 0 0 0
SMALL
NO_CHARGES


@<TRIPOS>ATOM
1    N        -2.3538   26.3143   11.3694  N     
2    C        -2.9096   27.5903   11.0174  C     
3    C        -3.7162   28.2516   12.1983  C     
4    C        -5.0362   27.4840   12.4807  C     
5    C        -2.9227   28.4214   13.5229  C     
6    P        -1.6709   28.5320   10.4062  P     
7    O        -2.1239   29.8782   10.1523  O     
8    O        -0.4557   28.6061   11.3513  O     
9    O        -1.1772   27.9868    9.0464  O     
10   S        -2.9106   24.8220   10.7979  S     
11   C        -2.4400   24.3591    9.1800  C     
12   O        -4.4940   24.7948   10.9614  O     
13   O        -2.4325   23.7418   11.8667  O     
14   C        -2.9105   25.1361    8.0970  C     
15   C        -2.6580   24.7499    6.7783  C     
16   C        -1.9262   23.5790    6.4704  C     
17   C        -1.3931   22.8298    7.5568  C     
18   C        -1.6590   23.2070    8.8921  C     
19   C        -1.8508   23.1661    5.0438  C     
20   C        -0.8707   22.0363    4.6218  C     
21   C        -1.0166   21.4980    3.2297  C     
22   C        -0.5552   20.1847    2.9618  C     
23   C        -0.6880   19.6010    1.6850  C     
24   C        -1.2637   20.3325    0.6260  C     
25   C        -1.7311   21.6397    0.8695  C     
26   C        -1.5991   22.2156    2.1466  C     
27   O        -1.3957   19.7508   -0.6065  O     
28   C        -0.6451   20.4278   -1.6337  C     
29   H        -1.6546   26.2932   12.0470  H     
30   H        -3.6043   27.4677   10.1781  H     
31   H        -4.0226   29.2543   11.8840  H     
32   H        -5.6301   27.3890   11.5682  H     
33   H        -5.6446   28.0216   13.2193  H     
34   H        -4.8238   26.4856   12.8643  H     
35   H        -2.6216   27.4542   13.9205  H     
36   H        -3.5311   28.9235   14.2718  H     
37   H        -2.0345   29.0282   13.3757  H     
38   H        -3.4685   25.9779    8.2619  H     
39   H        -3.0298   25.3150    6.0173  H     
40   H        -0.8293   21.9914    7.3740  H     
41   H        -1.2980   22.6323    9.6646  H     
42   H        -2.8514   22.8360    4.7627  H     
43   H        -1.6020   24.0517    4.4640  H     
44   H         0.1517   22.4103    4.7337  H     
45   H        -0.9981   21.2226    5.3403  H     
46   H        -0.1407   19.6206    3.7086  H     
47   H        -0.3687   18.6400    1.5224  H     
48   H        -2.1695   22.1748    0.1123  H     
49   H        -1.9549   23.1635    2.2721  H     
50   H        -1.0825   21.4076   -1.8546  H     
51   H        -0.6876   19.8162   -2.5415  H     
52   H         0.4067   20.5511   -1.3541  H     
@<TRIPOS>BOND
     1    1    2 1
     2    1   10 1
     3    2    3 1
     4    2    6 1
     5    3    4 1
     6    3    5 1
     7    6    7 2
     8    6    8 1
     9    6    9 1
    10   10   11 1
    11   10   12 2
    12   10   13 2
    13   11   14 2
    14   11   18 1
    15   14   15 1
    16   15   16 2
    17   16   17 1
    18   16   19 1
    19   17   18 2
    20   19   20 1
    21   20   21 1
    22   21   22 2
    23   21   26 1
    24   22   23 1
    25   23   24 2
    26   24   25 1
    27   24   27 1
    28   25   26 2
    29   27   28 1
    30    1   29 1
    31    2   30 1
    32    3   31 1
    33    4   32 1
    34    4   33 1
    35    4   34 1
    36    5   35 1
    37    5   36 1
    38    5   37 1
    39   14   38 1
    40   15   39 1
    41   17   40 1
    42   18   41 1
    43   19   42 1
    44   19   43 1
    45   20   44 1
    46   20   45 1
    47   22   46 1
    48   23   47 1
    49   25   48 1
    50   26   49 1
    51   28   50 1
    52   28   51 1
    53   28   52 1
@<TRIPOS>PROPERTY_DATA
  Total_Score	| 11.3810
  Crash		| -1.2507
  Polar		| 7.0808
  FragIndex	| 1
  FragRMSD	| 0.663

