@<TRIPOS>MOLECULE
BindingDB_50198039
 42 43 0 0 0
SMALL
NO_CHARGES


@<TRIPOS>ATOM
1    N        -2.3620   26.3839   11.3964  N     
2    C        -2.8783   27.6565   10.9997  C     
3    C        -3.6940   28.3593   12.1499  C     
4    C        -4.9791   27.5590   12.5092  C     
5    C        -2.8849   28.6055   13.4585  C     
6    P        -1.6286   28.5506   10.3484  P     
7    O        -2.1938   29.8289    9.9249  O     
8    O        -0.4175   28.8531   11.2702  O     
9    O        -1.0736   27.9695    9.0297  O     
10   S        -3.0363   24.9148   10.9119  S     
11   C        -2.5457   24.2796    9.3644  C     
12   O        -4.6150   24.9044   11.1224  O     
13   O        -2.5817   23.8480   12.0016  O     
14   C        -1.2102   23.8759    9.1383  C     
15   C        -0.8196   23.3594    7.8856  C     
16   C        -1.7507   23.2145    6.8238  C     
17   C        -3.0875   23.6142    7.0692  C     
18   C        -3.4841   24.1318    8.3190  C     
19   C        -1.3410   22.7305    5.5418  C     
20   C        -0.2064   21.8880    5.4050  C     
21   C         0.2113   21.4271    4.1420  C     
22   C        -0.4997   21.7928    2.9853  C     
23   C        -1.6361   22.6139    3.0988  C     
24   C        -2.0533   23.0705    4.3618  C     
25   F        -0.1245   21.3634    1.8091  F     
26   H        -1.6723   26.3370   12.0817  H     
27   H        -3.5723   27.5069   10.1527  H     
28   H        -4.0210   29.3343   11.7830  H     
29   H        -5.6493   27.4603   11.6367  H     
30   H        -5.5339   28.0877   13.3118  H     
31   H        -4.7122   26.5577   12.8771  H     
32   H        -2.5864   27.6650   13.9187  H     
33   H        -3.5014   29.1657   14.1813  H     
34   H        -1.9963   29.2087   13.2581  H     
35   H        -0.5145   23.9670    9.8886  H     
36   H         0.1687   23.0903    7.7633  H     
37   H        -3.7937   23.5063    6.3388  H     
38   H        -4.4574   24.4078    8.4467  H     
39   H         0.3257   21.5836    6.2331  H     
40   H         1.0358   20.8262    4.0632  H     
41   H        -2.1645   22.8934    2.2660  H     
42   H        -2.8842   23.6761    4.4209  H     
@<TRIPOS>BOND
     1    1    2 1
     2    1   10 1
     3    2    3 1
     4    2    6 1
     5    3    4 1
     6    3    5 1
     7    6    7 2
     8    6    8 1
     9    6    9 1
    10   10   11 1
    11   10   12 2
    12   10   13 2
    13   11   14 2
    14   11   18 1
    15   14   15 1
    16   15   16 2
    17   16   17 1
    18   16   19 1
    19   17   18 2
    20   19   20 2
    21   19   24 1
    22   20   21 1
    23   21   22 2
    24   22   23 1
    25   22   25 1
    26   23   24 2
    27    1   26 1
    28    2   27 1
    29    3   28 1
    30    4   29 1
    31    4   30 1
    32    4   31 1
    33    5   32 1
    34    5   33 1
    35    5   34 1
    36   14   35 1
    37   15   36 1
    38   17   37 1
    39   18   38 1
    40   20   39 1
    41   21   40 1
    42   23   41 1
    43   24   42 1
@<TRIPOS>PROPERTY_DATA
  Total_Score	| 10.5251
  Crash		| -0.8997
  Polar		| 6.0414
  FragIndex	| 1
  FragRMSD	| 0.159

