@<TRIPOS>MOLECULE
BindingDB_50198034
 42 43 0 0 0
SMALL
NO_CHARGES


@<TRIPOS>ATOM
1    N        -1.9285   26.3263   10.9310  N     
2    C        -2.5476   27.5988   11.1379  C     
3    C        -2.9719   27.7738   12.6531  C     
4    C        -2.6581   29.1354   13.3400  C     
5    C        -4.4722   27.4401   12.8622  C     
6    P        -1.5378   28.7016   10.3664  P     
7    O        -1.1981   28.2239    9.0763  O     
8    O        -2.2739   30.0336   10.1205  O     
9    O        -0.2655   28.9762   11.1768  O     
10   S        -2.7416   24.8728   10.6478  S     
11   C        -2.3280   24.1685    9.1190  C     
12   O        -4.3188   25.1117   10.5867  O     
13   O        -2.5373   23.9106   11.8981  O     
14   C        -1.7451   22.8877    9.0311  C     
15   C        -1.4115   22.3451    7.7759  C     
16   C        -1.6504   23.0588    6.5710  C     
17   C        -2.2674   24.3347    6.6823  C     
18   C        -2.6006   24.8747    7.9347  C     
19   C        -1.2802   22.5208    5.2977  C     
20   C        -2.0384   22.8015    4.1307  C     
21   C        -1.7054   22.2333    2.8827  C     
22   C        -0.6088   21.3610    2.7788  C     
23   C         0.1788   21.0958    3.9126  C     
24   C        -0.1497   21.6706    5.1557  C     
25   Cl       -0.2514   20.6156    1.3004  Cl    
26   H        -0.9609   26.2826   10.9981  H     
27   H        -3.4617   27.6380   10.5189  H     
28   H        -2.4176   27.0459   13.2532  H     
29   H        -1.5945   29.3768   13.2765  H     
30   H        -2.9089   29.0852   14.4379  H     
31   H        -3.2458   29.9487   12.9236  H     
32   H        -5.0951   28.1687   12.3324  H     
33   H        -4.7575   27.4382   13.9185  H     
34   H        -4.6919   26.4457   12.4657  H     
35   H        -1.5549   22.3425    9.8707  H     
36   H        -1.0004   21.4092    7.7509  H     
37   H        -2.4701   24.8891    5.8510  H     
38   H        -3.0478   25.7975    7.9706  H     
39   H        -2.8656   23.4028    4.1717  H     
40   H        -2.2801   22.4408    2.0646  H     
41   H         0.9920   20.4732    3.8474  H     
42   H         0.4520   21.4694    5.9548  H     
@<TRIPOS>BOND
     1    1    2 1
     2    1   10 1
     3    2    3 1
     4    2    6 1
     5    3    4 1
     6    3    5 1
     7    6    7 2
     8    6    8 1
     9    6    9 1
    10   10   11 1
    11   10   12 2
    12   10   13 2
    13   11   14 2
    14   11   18 1
    15   14   15 1
    16   15   16 2
    17   16   17 1
    18   16   19 1
    19   17   18 2
    20   19   20 2
    21   19   24 1
    22   20   21 1
    23   21   22 2
    24   22   23 1
    25   22   25 1
    26   23   24 2
    27    1   26 1
    28    2   27 1
    29    3   28 1
    30    4   29 1
    31    4   30 1
    32    4   31 1
    33    5   32 1
    34    5   33 1
    35    5   34 1
    36   14   35 1
    37   15   36 1
    38   17   37 1
    39   18   38 1
    40   20   39 1
    41   21   40 1
    42   23   41 1
    43   24   42 1
@<TRIPOS>PROPERTY_DATA
  Total_Score	| 10.3761
  Crash		| -0.7988
  Polar		| 6.0396
  FragIndex	| 1
  FragRMSD	| 0.972

