@<TRIPOS>MOLECULE
BindingDB_50198035
 45 46 0 0 0
SMALL
NO_CHARGES


@<TRIPOS>ATOM
1    N        -2.5065   26.4486   11.5283  N     
2    C        -2.9828   27.7338   11.1228  C     
3    C        -3.6755   28.5046   12.3088  C     
4    C        -5.0148   27.8264   12.7238  C     
5    C        -2.7836   28.7133   13.5723  C     
6    P        -1.7155   28.5449   10.3914  P     
7    O        -0.5346   28.6156   11.2103  O     
8    O        -1.3403   27.9112    9.0364  O     
9    O        -2.1222   29.9910   10.0503  O     
10   S        -3.1753   24.9935   10.9981  S     
11   C        -2.5529   24.3706    9.4958  C     
12   O        -4.7616   25.0164   11.1044  O     
13   O        -2.7330   23.9591   12.1233  O     
14   C        -1.2164   23.9343    9.4090  C     
15   C        -0.7220   23.3831    8.2131  C     
16   C        -1.5545   23.2248    7.0763  C     
17   C        -2.8933   23.6734    7.1751  C     
18   C        -3.3884   24.2415    8.3633  C     
19   C        -1.0833   22.6050    5.8832  C     
20   C        -1.6317   22.9441    4.6200  C     
21   C        -1.1685   22.3375    3.4286  C     
22   C        -0.1394   21.3706    3.5023  C     
23   C         0.3970   21.0074    4.7507  C     
24   C        -0.0695   21.6195    5.9287  C     
25   C        -1.7564   22.7328    2.1281  C     
26   H        -1.7937   26.4056   12.1869  H     
27   H        -3.7345   27.6148   10.3372  H     
28   H        -3.9536   29.5047   11.9516  H     
29   H        -5.6817   27.7451   11.8576  H     
30   H        -5.5275   28.4267   13.4873  H     
31   H        -4.8234   26.8215   13.1236  H     
32   H        -2.5582   27.7565   14.0506  H     
33   H        -3.3036   29.3515   14.2932  H     
34   H        -1.8452   29.2082   13.3148  H     
35   H        -0.5995   24.0098   10.2211  H     
36   H         0.2604   23.0948    8.1788  H     
37   H        -3.5398   23.5637    6.3903  H     
38   H        -4.3651   24.5493    8.4026  H     
39   H        -2.3704   23.6509    4.5590  H     
40   H         0.2134   20.9145    2.6553  H     
41   H         1.1237   20.2902    4.8020  H     
42   H         0.3185   21.3178    6.8233  H     
43   H        -2.8107   22.4408    2.0984  H     
44   H        -1.2453   22.2643    1.2795  H     
45   H        -1.6868   23.8174    2.0133  H     
@<TRIPOS>BOND
     1    1    2 1
     2    1   10 1
     3    2    3 1
     4    2    6 1
     5    3    4 1
     6    3    5 1
     7    6    7 2
     8    6    8 1
     9    6    9 1
    10   10   11 1
    11   10   12 2
    12   10   13 2
    13   11   14 2
    14   11   18 1
    15   14   15 1
    16   15   16 2
    17   16   17 1
    18   16   19 1
    19   17   18 2
    20   19   20 2
    21   19   24 1
    22   20   21 1
    23   21   22 2
    24   21   25 1
    25   22   23 1
    26   23   24 2
    27    1   26 1
    28    2   27 1
    29    3   28 1
    30    4   29 1
    31    4   30 1
    32    4   31 1
    33    5   32 1
    34    5   33 1
    35    5   34 1
    36   14   35 1
    37   15   36 1
    38   17   37 1
    39   18   38 1
    40   20   39 1
    41   22   40 1
    42   23   41 1
    43   24   42 1
    44   25   43 1
    45   25   44 1
    46   25   45 1
@<TRIPOS>PROPERTY_DATA
  Total_Score	| 10.8874
  Crash		| -1.0546
  Polar		| 6.0636
  FragIndex	| 1
  FragRMSD	| 0.765

