@<TRIPOS>MOLECULE
BindingDB_50198031
 52 53 0 0 0
SMALL
NO_CHARGES


@<TRIPOS>ATOM
1    N        -2.4942   26.4428   11.4767  N     
2    C        -2.9565   27.7316   11.0698  C     
3    C        -3.6779   28.4843   12.2459  C     
4    C        -5.0625   27.8489   12.5654  C     
5    C        -2.8541   28.6108   13.5572  C     
6    P        -1.6698   28.5615   10.3950  P     
7    O        -0.5106   28.6093   11.2488  O     
8    O        -1.2440   27.9387    9.0512  O     
9    O        -2.0604   30.0168   10.0818  O     
10   S        -3.1928   24.9878   10.9946  S     
11   C        -2.6712   24.3727    9.4531  C     
12   O        -4.7689   24.9823   11.2014  O     
13   O        -2.6844   23.9423   12.0786  O     
14   C        -3.5790   24.2159    8.3906  C     
15   C        -3.1405   23.6957    7.1595  C     
16   C        -1.7893   23.3169    6.9432  C     
17   C        -0.8963   23.4780    8.0330  C     
18   C        -1.3280   23.9928    9.2688  C     
19   C        -1.3501   22.8079    5.6746  C     
20   C        -0.1685   22.0333    5.5525  C     
21   C         0.2711   21.5551    4.3045  C     
22   C        -0.4845   21.7814    3.1317  C     
23   C        -1.6563   22.5515    3.2378  C     
24   C        -2.0790   23.0575    4.4828  C     
25   O        -0.1363   21.3326    1.8770  O     
26   C         0.4558   20.0273    1.6962  C     
27   C        -0.4289   18.8938    2.2796  C     
28   C         0.6840   19.8141    0.1790  C     
29   H        -1.7648   26.3947   12.1179  H     
30   H        -3.6758   27.6234   10.2520  H     
31   H        -3.9035   29.5030   11.9094  H     
32   H        -5.6660   27.7601   11.6621  H     
33   H        -5.6166   28.4679   13.2778  H     
34   H        -4.9378   26.8539   13.0008  H     
35   H        -2.6127   27.6277   13.9617  H     
36   H        -3.4168   29.1606   14.3111  H     
37   H        -1.9288   29.1522   13.3857  H     
38   H        -4.5605   24.4678    8.4991  H     
39   H        -3.8361   23.5804    6.4168  H     
40   H         0.0892   23.2342    7.9367  H     
41   H        -0.6585   24.0836   10.0382  H     
42   H         0.3884   21.8016    6.3798  H     
43   H         1.1489   21.0286    4.2652  H     
44   H        -2.2114   22.7432    2.3995  H     
45   H        -2.9246   23.6317    4.4989  H     
46   H         1.4400   19.9921    2.1774  H     
47   H        -0.5018   18.9901    3.3667  H     
48   H        -0.0020   17.9085    2.0522  H     
49   H        -1.4373   18.9484    1.8495  H     
50   H        -0.2731   19.8087   -0.3568  H     
51   H         1.1997   18.8682   -0.0095  H     
52   H         1.2988   20.6240   -0.2115  H     
@<TRIPOS>BOND
     1    1    2 1
     2    1   10 1
     3    2    3 1
     4    2    6 1
     5    3    4 1
     6    3    5 1
     7    6    7 2
     8    6    8 1
     9    6    9 1
    10   10   11 1
    11   10   12 2
    12   10   13 2
    13   11   14 2
    14   11   18 1
    15   14   15 1
    16   15   16 2
    17   16   17 1
    18   16   19 1
    19   17   18 2
    20   19   20 2
    21   19   24 1
    22   20   21 1
    23   21   22 2
    24   22   23 1
    25   22   25 1
    26   23   24 2
    27   25   26 1
    28   26   27 1
    29   26   28 1
    30    1   29 1
    31    2   30 1
    32    3   31 1
    33    4   32 1
    34    4   33 1
    35    4   34 1
    36    5   35 1
    37    5   36 1
    38    5   37 1
    39   14   38 1
    40   15   39 1
    41   17   40 1
    42   18   41 1
    43   20   42 1
    44   21   43 1
    45   23   44 1
    46   24   45 1
    47   26   46 1
    48   27   47 1
    49   27   48 1
    50   27   49 1
    51   28   50 1
    52   28   51 1
    53   28   52 1
@<TRIPOS>PROPERTY_DATA
  Total_Score	| 12.5053
  Crash		| -1.5096
  Polar		| 6.0957
  FragIndex	| 1
  FragRMSD	| 0.699

