@<TRIPOS>MOLECULE
BindingDB_12073
 46 47 0 0 0
SMALL
NO_CHARGES


@<TRIPOS>ATOM
1    C        -3.2172   24.1369    8.1773  C     
2    C        -2.8642   23.5444    6.9553  C     
3    C        -1.5580   23.0666    6.7014  C     
4    C        -0.6128   23.1809    7.7538  C     
5    C        -0.9567   23.7675    8.9846  C     
6    C        -1.1922   22.5035    5.4324  C     
7    C        -0.0724   21.6378    5.2796  C     
8    C         0.3000   21.1219    4.0303  C     
9    C        -0.4563   21.4127    2.8660  C     
10   C        -1.5604   22.2836    2.9939  C     
11   C        -1.9167   22.8149    4.2490  C     
12   O        -0.1186   20.9809    1.6093  O     
13   C         0.4828   19.6741    1.5031  C     
14   C        -2.2559   24.2704    9.2074  C     
15   S        -2.6769   24.9695   10.7491  S     
16   O        -4.2532   25.1782   10.9265  O     
17   O        -2.4319   23.8327   11.8325  O     
18   N        -1.7860   26.3165   11.2772  N     
19   C        -2.2403   27.6723   11.5223  C     
20   C        -3.4582   27.7780   12.5177  C     
21   C        -2.9958   27.8325   13.9969  C     
22   C        -4.4461   28.9692   12.2533  C     
23   O        -2.3258   29.8818   10.2895  O     
24   P        -2.4292   28.4625   10.0598  P     
25   O        -1.3840   28.1170    8.9787  O     
26   O        -3.8667   28.2121    9.5543  O     
27   H        -4.1719   24.4591    8.3186  H     
28   H        -3.5947   23.4518    6.2452  H     
29   H         0.3509   22.8520    7.6347  H     
30   H        -0.2472   23.8294    9.7174  H     
31   H         0.4926   21.3665    6.0926  H     
32   H         1.1279   20.5242    3.9605  H     
33   H        -2.0999   22.5492    2.1576  H     
34   H        -2.7092   23.4621    4.2814  H     
35   H         1.5127   19.6804    1.8726  H     
36   H         0.5029   19.3911    0.4491  H     
37   H        -0.0983   18.9198    2.0429  H     
38   H        -0.8153   26.2402   11.1387  H     
39   H        -1.3958   28.1677   12.0134  H     
40   H        -4.0651   26.8715   12.3956  H     
41   H        -2.2484   27.0642   14.1849  H     
42   H        -3.8429   27.6685   14.6588  H     
43   H        -2.5509   28.7978   14.2331  H     
44   H        -3.9192   29.9338   12.3643  H     
45   H        -5.2766   28.9621   12.9778  H     
46   H        -4.8480   28.9120   11.2230  H     
@<TRIPOS>BOND
     1    1    2 2
     2    1   14 1
     3    2    3 1
     4    3    4 2
     5    3    6 1
     6    4    5 1
     7    5   14 2
     8    6    7 2
     9    6   11 1
    10    7    8 1
    11    8    9 2
    12    9   10 1
    13    9   12 1
    14   10   11 2
    15   12   13 1
    16   14   15 1
    17   15   16 2
    18   15   17 2
    19   15   18 1
    20   18   19 1
    21   19   20 1
    22   19   24 1
    23   20   21 1
    24   20   22 1
    25   23   24 2
    26   24   25 1
    27   24   26 1
    28    1   27 1
    29    2   28 1
    30    4   29 1
    31    5   30 1
    32    7   31 1
    33    8   32 1
    34   10   33 1
    35   11   34 1
    36   13   35 1
    37   13   36 1
    38   13   37 1
    39   18   38 1
    40   19   39 1
    41   20   40 1
    42   21   41 1
    43   21   42 1
    44   21   43 1
    45   22   44 1
    46   22   45 1
    47   22   46 1
@<TRIPOS>PROPERTY_DATA
  Total_Score	| 11.0338
  Crash		| -1.5334
  Polar		| 6.0276
  FragIndex	| 1
  FragRMSD	| 0.900

