@<TRIPOS>MOLECULE
BindingDB_50198040
 54 56 0 0 0
SMALL
NO_CHARGES


@<TRIPOS>ATOM
1    N        -2.4689   26.4726   11.4843  N     
2    C        -2.9703   27.7464   11.0683  C     
3    C        -3.6460   28.5134   12.2641  C     
4    C        -5.0185   27.8844   12.6408  C     
5    C        -2.7733   28.6358   13.5480  C     
6    S        -3.1500   24.9957   11.0353  S     
7    C        -2.5993   24.3329    9.5261  C     
8    O        -4.7295   25.0080   11.2322  O     
9    O        -2.6737   23.9824   12.1669  O     
10   C        -3.4910   24.1473    8.4526  C     
11   C        -3.0468   23.5594    7.2503  C     
12   C        -1.6997   23.1447    7.0912  C     
13   C        -0.8109   23.3510    8.1750  C     
14   C        -1.2505   23.9357    9.3764  C     
15   C        -1.2594   22.5268    5.8802  C     
16   C        -0.2964   21.4893    5.8946  C     
17   C         0.1248   20.8697    4.6996  C     
18   C        -0.3922   21.2441    3.4310  C     
19   C        -1.3522   22.2923    3.4364  C     
20   C        -1.7718   22.9182    4.6221  C     
21   P        -1.7305   28.5707   10.3030  P     
22   O        -1.3600   27.9281    9.0683  O     
23   O        -2.1870   29.9842    9.8948  O     
24   O        -0.4648   28.7046   11.1703  O     
25   N         0.0074   20.6171    2.2689  N     
26   C        -0.4632   20.9661    0.9543  C     
27   C         0.4524   20.2340   -0.0406  C     
28   C         0.9573   19.0301    0.7566  C     
29   C         0.9375   19.5210    2.2135  C     
30   H        -1.7619   26.4486   12.1479  H     
31   H        -3.7312   27.6097   10.2922  H     
32   H        -3.8654   29.5339   11.9333  H     
33   H        -5.6525   27.8000   11.7558  H     
34   H        -5.5391   28.5201   13.3629  H     
35   H        -4.8825   26.8878   13.0672  H     
36   H        -2.5208   27.6518   13.9466  H     
37   H        -3.3078   29.1900   14.3214  H     
38   H        -1.8493   29.1762   13.3414  H     
39   H        -4.4716   24.4196    8.5392  H     
40   H        -3.7233   23.4258    6.4962  H     
41   H         0.1731   23.0732    8.0983  H     
42   H        -0.5886   24.0665   10.1430  H     
43   H         0.0961   21.1628    6.7790  H     
44   H         0.8207   20.1275    4.7840  H     
45   H        -1.7714   22.6223    2.5634  H     
46   H        -2.4673   23.6682    4.5642  H     
47   H        -1.4998   20.6351    0.8368  H     
48   H        -0.4015   22.0417    0.7692  H     
49   H        -0.0835   19.9335   -0.9442  H     
50   H         1.2970   20.8719   -0.3175  H     
51   H         0.2659   18.1920    0.6424  H     
52   H         1.9559   18.7199    0.4372  H     
53   H         1.9348   19.8562    2.5150  H     
54   H         0.6179   18.6992    2.8612  H     
@<TRIPOS>BOND
     1    1    2 1
     2    1    6 1
     3    2    3 1
     4    2   21 1
     5    3    4 1
     6    3    5 1
     7    6    7 1
     8    6    8 2
     9    6    9 2
    10    7   10 2
    11    7   14 1
    12   10   11 1
    13   11   12 2
    14   12   13 1
    15   12   15 1
    16   13   14 2
    17   15   16 2
    18   15   20 1
    19   16   17 1
    20   17   18 2
    21   18   19 1
    22   18   25 1
    23   19   20 2
    24   21   22 2
    25   21   23 1
    26   21   24 1
    27   25   26 1
    28   25   29 1
    29   26   27 1
    30   27   28 1
    31   28   29 1
    32    1   30 1
    33    2   31 1
    34    3   32 1
    35    4   33 1
    36    4   34 1
    37    4   35 1
    38    5   36 1
    39    5   37 1
    40    5   38 1
    41   10   39 1
    42   11   40 1
    43   13   41 1
    44   14   42 1
    45   16   43 1
    46   17   44 1
    47   19   45 1
    48   20   46 1
    49   26   47 1
    50   26   48 1
    51   27   49 1
    52   27   50 1
    53   28   51 1
    54   28   52 1
    55   29   53 1
    56   29   54 1
@<TRIPOS>PROPERTY_DATA
  Total_Score	| 11.7694
  Crash		| -1.9341
  Polar		| 5.9355
  FragIndex	| 1
  FragRMSD	| 0.749

