@<TRIPOS>MOLECULE
BindingDB_17149
 37 39 0 0 0
SMALL
NO_CHARGES


@<TRIPOS>ATOM
1    C        73.4632   54.9318   16.7904  C     
2    C        71.3900   54.8215   16.0702  C     
3    C        72.9798   56.0871   17.3106  C     
4    O        74.6069   54.5114   16.9136  O     
5    N        72.5812   54.2317   16.1250  N     
6    N        70.3278   54.2655   15.4772  N     
7    S        71.3498   56.3588   16.8521  S     
8    C        73.6664   56.8655   18.1775  C     
9    C        73.2586   58.0786   18.7185  C     
10   C        73.9015   58.7426   19.7593  C     
11   C        73.1970   59.9068   20.0241  C     
12   C        72.1287   59.9607   19.1281  C     
13   O        72.1987   58.8424   18.3555  O     
14   C        71.1293   60.9631   18.9910  C     
15   C        69.0767   62.9246   18.6777  C     
16   C        69.2251   61.8689   17.7555  C     
17   C        70.2305   60.9053   17.9100  C     
18   C        70.9947   62.0349   19.9042  C     
19   C        69.9839   63.0226   19.7779  C     
20   S        67.7752   64.0502   18.3299  S     
21   O        67.3361   65.1744   19.3735  O     
22   O        68.3101   64.8585   17.0685  O     
23   N        66.3944   63.2872   17.7437  N     
24   C        69.9092   64.1218   20.7930  C     
25   F        70.8658   64.0918   21.7862  F     
26   F        70.0455   65.3512   20.1875  F     
27   F        68.7115   64.0782   21.4695  F     
28   H        72.7759   53.3665   15.7233  H     
29   H        69.4698   54.7225   15.4661  H     
30   H        74.5617   56.5482   18.4713  H     
31   H        74.7436   58.4270   20.2537  H     
32   H        73.4477   60.5923   20.7423  H     
33   H        68.6028   61.7860   16.9523  H     
34   H        70.2989   60.1632   17.2163  H     
35   H        71.6444   62.0885   20.6847  H     
36   H        65.8947   63.6743   16.9988  H     
37   H        66.0335   62.5101   18.2086  H     
@<TRIPOS>BOND
     1    1    3 1
     2    1    4 2
     3    1    5 1
     4    2    5 1
     5    2    6 2
     6    2    7 1
     7    3    7 1
     8    3    8 2
     9    8    9 1
    10    9   10 2
    11    9   13 1
    12   10   11 1
    13   11   12 2
    14   12   13 1
    15   12   14 1
    16   14   17 1
    17   14   18 2
    18   15   16 1
    19   15   19 2
    20   15   20 1
    21   16   17 2
    22   18   19 1
    23   19   24 1
    24   20   21 2
    25   20   22 2
    26   20   23 am
    27   24   25 1
    28   24   26 1
    29   24   27 1
    30    5   28 1
    31    6   29 1
    32    8   30 1
    33   10   31 1
    34   11   32 1
    35   16   33 1
    36   17   34 1
    37   18   35 1
    38   23   36 1
    39   23   37 1
@<TRIPOS>PROPERTY_DATA
  Total_Score	| 5.3237
  Crash		| -0.7204
  Polar		| 0.8531
  FragIndex	| 1
  FragRMSD	| 0.691

