@<TRIPOS>MOLECULE
BindingDB_17141
 34 36 0 0 0
SMALL
NO_CHARGES


@<TRIPOS>ATOM
1    C        73.4416   54.8216   16.8041  C     
2    C        71.3570   54.7573   16.1003  C     
3    C        72.9994   55.9932   17.3206  C     
4    O        74.5793   54.3832   16.8933  O     
5    N        72.5386   54.1439   16.1431  N     
6    N        70.2708   54.2358   15.5100  N     
7    S        71.3600   56.2940   16.8917  S     
8    C        73.7236   56.7688   18.1542  C     
9    C        73.3602   57.9810   18.7222  C     
10   C        74.0376   58.5982   19.7723  C     
11   C        73.3693   59.7708   20.0761  C     
12   C        72.3107   59.8882   19.1710  C     
13   O        72.3258   58.7845   18.3730  O     
14   C        71.3711   60.9563   19.0553  C     
15   C        69.5088   63.0980   18.7682  C     
16   C        70.3853   63.0559   19.8708  C     
17   C        71.3055   62.0031   20.0059  C     
18   C        70.4730   61.0049   17.9613  C     
19   C        69.5580   62.0646   17.8157  C     
20   S        68.4050   64.4343   18.5669  S     
21   O        68.2074   64.7952   17.0290  O     
22   O        67.0165   64.0083   19.2128  O     
23   N        68.9635   65.7915   19.3827  N     
24   H        72.7109   53.2810   15.7249  H     
25   H        69.4320   54.7201   15.5145  H     
26   H        74.6219   56.4320   18.4143  H     
27   H        74.8720   58.2419   20.2529  H     
28   H        73.6464   60.4182   20.8159  H     
29   H        70.3768   63.7928   20.5762  H     
30   H        71.9291   62.0202   20.8167  H     
31   H        70.4925   60.2762   17.2463  H     
32   H        68.9414   62.0810   17.0047  H     
33   H        68.3375   66.4535   19.7159  H     
34   H        69.9056   65.8802   19.5813  H     
@<TRIPOS>BOND
     1    1    3 1
     2    1    4 2
     3    1    5 1
     4    2    5 1
     5    2    6 2
     6    2    7 1
     7    3    7 1
     8    3    8 2
     9    8    9 1
    10    9   10 2
    11    9   13 1
    12   10   11 1
    13   11   12 2
    14   12   13 1
    15   12   14 1
    16   14   17 1
    17   14   18 2
    18   15   16 1
    19   15   19 2
    20   15   20 1
    21   16   17 2
    22   18   19 1
    23   20   21 2
    24   20   22 2
    25   20   23 am
    26    5   24 1
    27    6   25 1
    28    8   26 1
    29   10   27 1
    30   11   28 1
    31   16   29 1
    32   17   30 1
    33   18   31 1
    34   19   32 1
    35   23   33 1
    36   23   34 1
@<TRIPOS>PROPERTY_DATA
  Total_Score	| 5.1882
  Crash		| -0.7789
  Polar		| 0.4703
  FragIndex	| 1
  FragRMSD	| 0.954

