@<TRIPOS>MOLECULE
BindingDB_17148
 33 35 0 0 0
SMALL
NO_CHARGES


@<TRIPOS>ATOM
1    C        73.3719   54.9207   16.8480  C     
2    C        71.2999   54.8951   16.0932  C     
3    C        72.9252   56.0901   17.3729  C     
4    O        74.5095   54.4774   16.9469  O     
5    N        72.4758   54.2676   16.1532  N     
6    N        70.2377   54.4055   15.4396  N     
7    S        71.2938   56.4065   16.9305  S     
8    C        73.6483   56.8503   18.2201  C     
9    C        73.2869   58.0678   18.7788  C     
10   C        73.9954   58.7029   19.7947  C     
11   C        73.3444   59.8897   20.0799  C     
12   C        72.2536   59.9903   19.2170  C     
13   O        72.2467   58.8737   18.4399  O     
14   C        71.3408   61.0730   19.0948  C     
15   C        69.5984   63.3292   18.7360  C     
16   C        69.6654   62.2896   17.7755  C     
17   C        70.5105   61.1775   17.9562  C     
18   C        71.2560   62.0939   20.0704  C     
19   C        70.3971   63.1938   19.8985  C     
20   C        68.8092   64.4646   18.5249  C     
21   O        68.3770   64.7499   17.4165  O     
22   N        68.4887   65.3039   19.4860  N     
23   H        72.6492   53.4128   15.7256  H     
24   H        69.4050   54.9023   15.4204  H     
25   H        74.5405   56.5034   18.4929  H     
26   H        74.8429   58.3617   20.2523  H     
27   H        73.6519   60.5725   20.7742  H     
28   H        69.1029   62.3350   16.9231  H     
29   H        70.5360   60.4608   17.2261  H     
30   H        71.8246   62.0569   20.9196  H     
31   H        70.3977   63.9165   20.6231  H     
32   H        67.9768   66.0992   19.2787  H     
33   H        68.7797   65.1475   20.3970  H     
@<TRIPOS>BOND
     1    1    3 1
     2    1    4 2
     3    1    5 1
     4    2    5 1
     5    2    6 2
     6    2    7 1
     7    3    7 1
     8    3    8 2
     9    8    9 1
    10    9   10 2
    11    9   13 1
    12   10   11 1
    13   11   12 2
    14   12   13 1
    15   12   14 1
    16   14   17 1
    17   14   18 2
    18   15   16 1
    19   15   19 2
    20   15   20 1
    21   16   17 2
    22   18   19 1
    23   20   21 2
    24   20   22 am
    25    5   23 1
    26    6   24 1
    27    8   25 1
    28   10   26 1
    29   11   27 1
    30   16   28 1
    31   17   29 1
    32   18   30 1
    33   19   31 1
    34   22   32 1
    35   22   33 1
@<TRIPOS>PROPERTY_DATA
  Total_Score	| 4.3717
  Crash		| -0.8427
  Polar		| 0.6733
  FragIndex	| 1
  FragRMSD	| 0.308

