@<TRIPOS>MOLECULE
BindingDB_17152
 33 35 0 0 0
SMALL
NO_CHARGES


@<TRIPOS>ATOM
1    C        73.3294   54.7757   16.7994  C     
2    C        71.1757   54.5802   16.4629  C     
3    C        72.9104   55.9574   17.3164  C     
4    O        74.4827   54.3871   16.7395  O     
5    N        72.3506   54.0249   16.3585  N     
6    S        71.2254   56.1703   17.0766  S     
7    C        73.6890   56.7679   18.0701  C     
8    C        73.3366   57.9816   18.6452  C     
9    C        74.0526   58.6002   19.6643  C     
10   C        73.3844   59.7681   19.9872  C     
11   C        72.2935   59.8915   19.1205  C     
12   O        72.2868   58.7883   18.3253  O     
13   C        71.3575   60.9608   19.0413  C     
14   C        69.4934   63.1119   18.8077  C     
15   C        70.3601   63.0277   19.9125  C     
16   C        71.2829   61.9746   20.0207  C     
17   C        70.4747   61.0458   17.9355  C     
18   C        69.5609   62.1149   17.8166  C     
19   S        68.3905   64.4523   18.6362  S     
20   O        68.1707   64.8133   17.1031  O     
21   O        67.0168   64.0479   19.3234  O     
22   N        68.9870   65.8082   19.4249  N     
23   O        70.1376   54.0007   16.1811  O     
24   H        72.4875   53.1321   15.9979  H     
25   H        74.6027   56.4416   18.2866  H     
26   H        74.9041   58.2594   20.1100  H     
27   H        73.6734   60.4130   20.7246  H     
28   H        70.3439   63.7425   20.6448  H     
29   H        71.8998   61.9685   20.8332  H     
30   H        70.5037   60.3405   17.1919  H     
31   H        68.9556   62.1631   16.9926  H     
32   H        68.3903   66.5335   19.6749  H     
33   H        69.9316   65.8612   19.6572  H     
@<TRIPOS>BOND
     1    1    3 1
     2    1    4 2
     3    1    5 1
     4    2    5 1
     5    2    6 1
     6    2   23 2
     7    3    6 1
     8    3    7 2
     9    7    8 1
    10    8    9 2
    11    8   12 1
    12    9   10 1
    13   10   11 2
    14   11   12 1
    15   11   13 1
    16   13   16 1
    17   13   17 2
    18   14   15 1
    19   14   18 2
    20   14   19 1
    21   15   16 2
    22   17   18 1
    23   19   20 2
    24   19   21 2
    25   19   22 am
    26    5   24 1
    27    7   25 1
    28    9   26 1
    29   10   27 1
    30   15   28 1
    31   16   29 1
    32   17   30 1
    33   18   31 1
    34   22   32 1
    35   22   33 1
@<TRIPOS>PROPERTY_DATA
  Total_Score	| 6.3218
  Crash		| -0.5657
  Polar		| 1.5417
  FragIndex	| 1
  FragRMSD	| 0.975

