@<TRIPOS>MOLECULE
BindingDB_17143
 31 33 0 0 0
SMALL
NO_CHARGES


@<TRIPOS>ATOM
1    C        73.3855   54.9893   16.9346  C     
2    C        71.3221   54.9211   16.1619  C     
3    C        72.9193   56.1616   17.4344  C     
4    O        74.5171   54.5466   17.0769  O     
5    N        72.5046   54.3100   16.2462  N     
6    N        70.2710   54.3998   15.5131  N     
7    S        71.2876   56.4453   16.9745  S     
8    C        73.6331   56.9585   18.2577  C     
9    C        73.2465   58.1746   18.8037  C     
10   C        73.9088   58.8098   19.8507  C     
11   C        73.2382   59.9900   20.1181  C     
12   C        72.1799   60.0856   19.2146  C     
13   O        72.2125   58.9738   18.4311  O     
14   C        71.2539   61.1543   19.0711  C     
15   C        69.4581   63.3516   18.6879  C     
16   C        69.6244   62.3647   17.6895  C     
17   C        70.4951   61.2757   17.8842  C     
18   C        71.0769   62.1370   20.0750  C     
19   C        70.1839   63.2091   19.8924  C     
20   C        68.6093   64.4672   18.4803  C     
21   O        68.2380   64.8567   17.2387  O     
22   O        68.1192   65.1855   19.5167  O     
23   H        72.6908   53.4469   15.8426  H     
24   H        69.4298   54.8819   15.4793  H     
25   H        74.5393   56.6408   18.5243  H     
26   H        74.7429   58.4751   20.3363  H     
27   H        73.5123   60.6720   20.8270  H     
28   H        69.1090   62.4268   16.8092  H     
29   H        70.5887   60.5865   17.1338  H     
30   H        71.5938   62.0855   20.9558  H     
31   H        70.0958   63.9035   20.6391  H     
@<TRIPOS>BOND
     1    1    3 1
     2    1    4 2
     3    1    5 1
     4    2    5 1
     5    2    6 2
     6    2    7 1
     7    3    7 1
     8    3    8 2
     9    8    9 1
    10    9   10 2
    11    9   13 1
    12   10   11 1
    13   11   12 2
    14   12   13 1
    15   12   14 1
    16   14   17 1
    17   14   18 2
    18   15   16 1
    19   15   19 2
    20   15   20 1
    21   16   17 2
    22   18   19 1
    23   20   21 2
    24   20   22 1
    25    5   23 1
    26    6   24 1
    27    8   25 1
    28   10   26 1
    29   11   27 1
    30   16   28 1
    31   17   29 1
    32   18   30 1
    33   19   31 1
@<TRIPOS>PROPERTY_DATA
  Total_Score	| 5.3808
  Crash		| -0.6890
  Polar		| 1.2349
  FragIndex	| 1
  FragRMSD	| 0.250

