@<TRIPOS>MOLECULE
BindingDB_17144
 37 39 0 0 0
SMALL
NO_CHARGES


@<TRIPOS>ATOM
1    C        73.4509   54.8345   16.7684  C     
2    C        71.3777   54.7777   16.0194  C     
3    C        72.9922   56.0029   17.2825  C     
4    O        74.5822   54.3882   16.8942  O     
5    N        72.5562   54.1604   16.0882  N     
6    N        70.3163   54.2572   15.3829  N     
7    S        71.3602   56.3024   16.8269  S     
8    C        73.7065   56.7829   18.1184  C     
9    C        73.3273   57.9962   18.6808  C     
10   C        74.0097   58.6417   19.7080  C     
11   C        73.3292   59.8139   19.9929  C     
12   C        72.2368   59.8899   19.1309  C     
13   O        72.2662   58.7764   18.3465  O     
14   C        71.2596   60.9188   19.0290  C     
15   C        69.3087   62.9810   18.7808  C     
16   C        69.4060   61.9638   17.8069  C     
17   C        70.3694   60.9481   17.9309  C     
18   C        71.1486   61.9389   20.0086  C     
19   C        70.1838   62.9580   19.8858  C     
20   S        68.1445   64.2685   18.5801  S     
21   O        68.4365   65.0445   17.2215  O     
22   O        66.7169   63.6114   18.3398  O     
23   N        67.9723   65.3448   19.8652  N     
24   C        68.9194   66.3612   20.1405  C     
25   H        72.7375   53.3002   15.6797  H     
26   H        69.4756   54.7376   15.3582  H     
27   H        74.6104   56.4554   18.3919  H     
28   H        74.8564   58.3154   20.1757  H     
29   H        73.6054   60.4978   20.7027  H     
30   H        68.7810   61.9529   16.9977  H     
31   H        70.4251   60.2346   17.2021  H     
32   H        71.7559   61.9559   20.8323  H     
33   H        70.1222   63.6906   20.6008  H     
34   H        67.1114   65.3841   20.3082  H     
35   H        69.9396   65.9755   20.0521  H     
36   H        68.7666   66.7232   21.1573  H     
37   H        68.7868   67.1979   19.4543  H     
@<TRIPOS>BOND
     1    1    3 1
     2    1    4 2
     3    1    5 1
     4    2    5 1
     5    2    6 2
     6    2    7 1
     7    3    7 1
     8    3    8 2
     9    8    9 1
    10    9   10 2
    11    9   13 1
    12   10   11 1
    13   11   12 2
    14   12   13 1
    15   12   14 1
    16   14   17 1
    17   14   18 2
    18   15   16 1
    19   15   19 2
    20   15   20 1
    21   16   17 2
    22   18   19 1
    23   20   21 2
    24   20   22 2
    25   20   23 1
    26   23   24 1
    27    5   25 1
    28    6   26 1
    29    8   27 1
    30   10   28 1
    31   11   29 1
    32   16   30 1
    33   17   31 1
    34   18   32 1
    35   19   33 1
    36   23   34 1
    37   24   35 1
    38   24   36 1
    39   24   37 1
@<TRIPOS>PROPERTY_DATA
  Total_Score	| 5.4301
  Crash		| -1.0428
  Polar		| 0.5845
  FragIndex	| 1
  FragRMSD	| 0.888

