@<TRIPOS>MOLECULE
BindingDB_17145
 49 51 0 0 0
SMALL
NO_CHARGES


@<TRIPOS>ATOM
1    C        73.5856   54.9873   16.9742  C     
2    C        71.5686   54.7850   16.1191  C     
3    C        73.0142   56.1094   17.4733  C     
4    O        74.7488   54.6423   17.1203  O     
5    N        72.7910   54.2644   16.2308  N     
6    N        70.6158   54.2342   15.3558  N     
7    S        71.3660   56.2453   17.0167  S     
8    C        73.6709   56.9811   18.2707  C     
9    C        73.2195   58.1814   18.8140  C     
10   C        73.8622   58.8617   19.8367  C     
11   C        73.1543   60.0192   20.0902  C     
12   C        72.0734   60.0531   19.2152  C     
13   O        72.1460   58.9264   18.4477  O     
14   C        71.0949   61.0642   19.0479  C     
15   C        69.0590   63.0113   18.6353  C     
16   C        69.1665   61.8975   17.7734  C     
17   C        70.1608   60.9375   17.9862  C     
18   C        70.9704   62.1827   19.9065  C     
19   C        69.9685   63.1546   19.6989  C     
20   S        67.7862   64.1625   18.3139  S     
21   O        67.4620   65.0926   19.5625  O     
22   O        68.2867   65.1211   17.1477  O     
23   N        66.4287   63.3594   17.7098  N     
24   C        65.7639   62.3678   18.4779  C     
25   C        64.8125   61.4727   17.6153  C     
26   N        65.5251   60.6266   16.5920  N     
27   C        66.1450   59.4050   17.1760  C     
28   C        64.6663   60.2583   15.4235  C     
29   H        73.0710   53.4423   15.7906  H     
30   H        70.8020   53.4205   14.8618  H     
31   H        74.6095   56.7464   18.5140  H     
32   H        74.7102   58.5714   20.3123  H     
33   H        73.3902   60.7174   20.7916  H     
34   H        68.5154   61.7682   16.9903  H     
35   H        70.2138   60.1468   17.3362  H     
36   H        71.6061   62.3188   20.6829  H     
37   H        69.8938   63.9563   20.3211  H     
38   H        66.3757   63.2344   16.7538  H     
39   H        66.4997   61.7242   18.9894  H     
40   H        65.1276   62.8301   19.2568  H     
41   H        64.2299   60.8249   18.3008  H     
42   H        64.0630   62.1391   17.1234  H     
43   H        66.2791   61.2037   16.2144  H     
44   H        66.7631   59.6634   18.0379  H     
45   H        66.7940   58.9255   16.4382  H     
46   H        65.3860   58.6731   17.4930  H     
47   H        63.8383   59.5788   15.7060  H     
48   H        65.2713   59.7710   14.6488  H     
49   H        64.2341   61.1582   14.9683  H     
@<TRIPOS>BOND
     1    1    3 1
     2    1    4 2
     3    1    5 1
     4    2    5 1
     5    2    6 2
     6    2    7 1
     7    3    7 1
     8    3    8 2
     9    8    9 1
    10    9   10 2
    11    9   13 1
    12   10   11 1
    13   11   12 2
    14   12   13 1
    15   12   14 1
    16   14   17 1
    17   14   18 2
    18   15   16 1
    19   15   19 2
    20   15   20 1
    21   16   17 2
    22   18   19 1
    23   20   21 2
    24   20   22 2
    25   20   23 1
    26   23   24 1
    27   24   25 1
    28   25   26 1
    29   26   27 1
    30   26   28 1
    31    5   29 1
    32    6   30 1
    33    8   31 1
    34   10   32 1
    35   11   33 1
    36   16   34 1
    37   17   35 1
    38   18   36 1
    39   19   37 1
    40   23   38 1
    41   24   39 1
    42   24   40 1
    43   25   41 1
    44   25   42 1
    45   26   43 1
    46   27   44 1
    47   27   45 1
    48   27   46 1
    49   28   47 1
    50   28   48 1
    51   28   49 1
@<TRIPOS>PROPERTY_DATA
  Total_Score	| 7.8376
  Crash		| -1.1985
  Polar		| 3.4988
  FragIndex	| 1
  FragRMSD	| 0.162

