@<TRIPOS>MOLECULE
BindingDB_17142
 31 33 0 0 0
SMALL
NO_CHARGES


@<TRIPOS>ATOM
1    C        73.4878   54.9943   16.9137  C     
2    C        71.4362   54.8819   16.1131  C     
3    C        72.9822   56.1364   17.4440  C     
4    O        74.6356   54.5927   17.0411  O     
5    N        72.6343   54.3033   16.1994  N     
6    N        70.4088   54.3463   15.4368  N     
7    S        71.3531   56.3921   16.9546  S     
8    C        73.6641   56.9314   18.2976  C     
9    C        73.2388   58.1320   18.8458  C     
10   C        73.9038   58.8617   19.8169  C     
11   C        73.1725   60.0153   20.0510  C     
12   C        72.0428   60.0172   19.2145  C     
13   O        72.1427   58.8508   18.5136  O     
14   C        70.9713   60.9555   18.9191  C     
15   C        68.9358   62.6626   17.8373  C     
16   C        69.1104   61.3793   17.3236  C     
17   C        70.1152   60.5576   17.8452  C     
18   C        70.7205   62.2538   19.5037  C     
19   C        69.7337   63.0889   18.9051  C     
20   N        71.3007   62.7603   20.6349  N     
21   O        71.1694   63.8893   21.0293  O     
22   O        71.7750   61.9904   21.5516  O     
23   H        72.8526   53.4584   15.7721  H     
24   H        69.5551   54.8043   15.4015  H     
25   H        74.5776   56.6398   18.5684  H     
26   H        74.7843   58.6092   20.2692  H     
27   H        73.4911   60.7038   20.7256  H     
28   H        68.2157   63.2770   17.4498  H     
29   H        68.5198   61.0454   16.5562  H     
30   H        70.2066   59.6468   17.3916  H     
31   H        69.5347   64.0198   19.2761  H     
@<TRIPOS>BOND
     1    1    3 1
     2    1    4 2
     3    1    5 1
     4    2    5 1
     5    2    6 2
     6    2    7 1
     7    3    7 1
     8    3    8 2
     9    8    9 1
    10    9   10 2
    11    9   13 1
    12   10   11 1
    13   11   12 2
    14   12   13 1
    15   12   14 1
    16   14   17 1
    17   14   18 2
    18   15   16 1
    19   15   19 2
    20   16   17 2
    21   18   19 1
    22   18   20 am
    23   20   21 2
    24   20   22 1
    25    5   23 1
    26    6   24 1
    27    8   25 1
    28   10   26 1
    29   11   27 1
    30   15   28 1
    31   16   29 1
    32   17   30 1
    33   19   31 1
@<TRIPOS>PROPERTY_DATA
  Total_Score	| 3.2604
  Crash		| -1.1605
  Polar		| 0.0005
  FragIndex	| 1
  FragRMSD	| 0.450

