@<TRIPOS>MOLECULE
BindingDB_17147
 45 48 0 0 0
SMALL
NO_CHARGES


@<TRIPOS>ATOM
1    C        73.5549   54.9217   16.8796  C     
2    C        71.4986   54.8374   16.0940  C     
3    C        73.0624   56.0690   17.4112  C     
4    O        74.6997   54.5081   16.9957  O     
5    N        72.6962   54.2524   16.1532  N     
6    N        70.4685   54.3310   15.4050  N     
7    S        71.4149   56.3154   16.9824  S     
8    C        73.7711   56.8738   18.2313  C     
9    C        73.3605   58.0852   18.7686  C     
10   C        73.9945   58.7499   19.8162  C     
11   C        73.2907   59.9168   20.0620  C     
12   C        72.2382   59.9687   19.1477  C     
13   O        72.3068   58.8471   18.3814  O     
14   C        71.2453   60.9700   18.9975  C     
15   C        69.2040   62.9312   18.6617  C     
16   C        69.3276   61.8665   17.7447  C     
17   C        70.3358   60.9004   17.9138  C     
18   C        71.1183   62.0534   19.9019  C     
19   C        70.1140   63.0213   19.7329  C     
20   O        68.3256   65.0318   17.2078  O     
21   O        66.5840   63.4584   18.0067  O     
22   S        67.9519   64.1269   18.4648  S     
23   C        68.9984   66.0459   21.6793  C     
24   C        68.5217   66.1660   20.2052  C     
25   C        66.6090   64.6845   20.7560  C     
26   C        67.2228   64.4719   22.1577  C     
27   N        67.6566   65.0658   19.8439  N     
28   O        67.9174   65.6741   22.5645  O     
29   H        72.9100   53.4173   15.7042  H     
30   H        70.5763   53.5044   14.9121  H     
31   H        74.6861   56.5774   18.4908  H     
32   H        74.8239   58.4372   20.3229  H     
33   H        73.5274   60.6044   20.7814  H     
34   H        68.6863   61.7850   16.9485  H     
35   H        70.3976   60.1388   17.2306  H     
36   H        71.7574   62.1537   20.6917  H     
37   H        70.0640   63.7928   20.3944  H     
38   H        69.7978   65.3065   21.7670  H     
39   H        69.4093   67.0100   22.0018  H     
40   H        67.9681   67.0973   20.0890  H     
41   H        69.4023   66.2246   19.5609  H     
42   H        66.0890   63.7674   20.4589  H     
43   H        65.8570   65.4837   20.8002  H     
44   H        66.4259   64.2628   22.8782  H     
45   H        67.9067   63.6136   22.1300  H     
@<TRIPOS>BOND
     1    1    3 1
     2    1    4 2
     3    1    5 1
     4    2    5 1
     5    2    6 2
     6    2    7 1
     7    3    7 1
     8    3    8 2
     9    8    9 1
    10    9   10 2
    11    9   13 1
    12   10   11 1
    13   11   12 2
    14   12   13 1
    15   12   14 1
    16   14   17 1
    17   14   18 2
    18   15   16 1
    19   15   19 2
    20   15   22 1
    21   16   17 2
    22   18   19 1
    23   20   22 2
    24   21   22 2
    25   22   27 1
    26   23   24 1
    27   23   28 1
    28   24   27 1
    29   25   26 1
    30   25   27 1
    31   26   28 1
    32    5   29 1
    33    6   30 1
    34    8   31 1
    35   10   32 1
    36   11   33 1
    37   16   34 1
    38   17   35 1
    39   18   36 1
    40   19   37 1
    41   23   38 1
    42   23   39 1
    43   24   40 1
    44   24   41 1
    45   25   42 1
    46   25   43 1
    47   26   44 1
    48   26   45 1
@<TRIPOS>PROPERTY_DATA
  Total_Score	| 5.6687
  Crash		| -1.2285
  Polar		| 0.5242
  FragIndex	| 1
  FragRMSD	| 1.118

