@<TRIPOS>MOLECULE
BindingDB_17151
 37 39 0 0 0
SMALL
NO_CHARGES


@<TRIPOS>ATOM
1    C        72.3685   54.8701   16.6841  C     
2    C        70.3424   55.4166   15.9908  C     
3    C        72.2818   56.0959   17.3175  C     
4    O        73.2816   54.0578   16.7403  O     
5    N        71.3361   54.5315   15.9500  N     
6    N        69.1602   55.2707   15.3687  N     
7    S        70.7263   56.7720   16.9853  S     
8    C        73.2172   56.6976   18.1123  C     
9    C        73.0532   57.9910   18.6870  C     
10   C        73.7865   58.6078   19.7150  C     
11   C        73.2219   59.8404   20.0036  C     
12   C        72.1494   60.0123   19.1315  C     
13   O        72.0814   58.8921   18.3581  O     
14   C        71.2279   61.0925   19.0525  C     
15   C        69.3285   63.2128   18.8570  C     
16   C        69.2114   62.0672   18.0434  C     
17   C        70.1507   61.0236   18.1385  C     
18   C        71.3280   62.2387   19.8757  C     
19   C        70.3876   63.2809   19.7867  C     
20   S        68.2195   64.5417   18.6673  S     
21   O        67.9309   64.8246   17.1281  O     
22   O        66.8650   64.1325   19.3932  O     
23   N        68.7775   65.9459   19.4002  N     
24   C        74.4421   55.9509   18.4332  C     
25   H        71.2950   53.7021   15.4482  H     
26   H        68.9461   54.4923   14.8276  H     
27   H        74.5840   58.2290   20.2187  H     
28   H        73.5311   60.4789   20.7355  H     
29   H        68.4407   61.9801   17.3709  H     
30   H        70.0359   60.2101   17.5266  H     
31   H        72.0943   62.3448   20.5476  H     
32   H        70.4911   64.0990   20.3972  H     
33   H        68.1494   66.5677   19.8143  H     
34   H        69.7279   66.0816   19.5138  H     
35   H        74.1725   55.0356   18.9615  H     
36   H        75.1700   56.4750   19.0492  H     
37   H        74.9696   55.6887   17.5128  H     
@<TRIPOS>BOND
     1    1    3 1
     2    1    4 2
     3    1    5 1
     4    2    5 1
     5    2    6 2
     6    2    7 1
     7    3    7 1
     8    3    8 2
     9    8    9 1
    10    8   24 1
    11    9   10 2
    12    9   13 1
    13   10   11 1
    14   11   12 2
    15   12   13 1
    16   12   14 1
    17   14   17 1
    18   14   18 2
    19   15   16 1
    20   15   19 2
    21   15   20 1
    22   16   17 2
    23   18   19 1
    24   20   21 2
    25   20   22 2
    26   20   23 am
    27    5   25 1
    28    6   26 1
    29   10   27 1
    30   11   28 1
    31   16   29 1
    32   17   30 1
    33   18   31 1
    34   19   32 1
    35   23   33 1
    36   23   34 1
    37   24   35 1
    38   24   36 1
    39   24   37 1
@<TRIPOS>PROPERTY_DATA
  Total_Score	| 4.2811
  Crash		| -1.3584
  Polar		| 0.9492
  FragIndex	| 1
  FragRMSD	| 1.098

