@<TRIPOS>MOLECULE
BindingDB_17146
 47 50 0 0 0
SMALL
NO_CHARGES


@<TRIPOS>ATOM
1    C        73.4993   54.7973   16.8102  C     
2    C        71.4598   54.7141   15.9922  C     
3    C        73.0269   55.9725   17.2834  C     
4    O        74.6293   54.3543   16.9772  O     
5    N        72.6384   54.1018   16.1165  N     
6    N        70.4168   54.1853   15.3352  N     
7    S        71.4164   56.2585   16.7679  S     
8    C        73.7183   56.7685   18.1254  C     
9    C        73.3254   57.9898   18.6470  C     
10   C        74.0244   58.6771   19.6359  C     
11   C        73.3412   59.8473   19.9011  C     
12   C        72.2302   59.8773   19.0552  C     
13   O        72.2479   58.7406   18.3118  O     
14   C        71.2407   60.8905   18.9366  C     
15   C        69.2184   62.8808   18.6705  C     
16   C        69.3423   61.8571   17.7111  C     
17   C        70.3374   60.8730   17.8484  C     
18   C        71.1113   61.9356   19.8860  C     
19   C        70.1077   62.9143   19.7607  C     
20   O        68.4601   65.0295   17.2749  O     
21   O        66.6442   63.4993   17.9095  O     
22   S        67.9976   64.1063   18.4860  S     
23   C        69.0107   66.0664   21.6567  C     
24   C        68.4863   66.1789   20.1987  C     
25   C        66.5925   64.6640   20.7512  C     
26   C        67.1506   64.4896   22.1889  C     
27   N        67.6597   65.0454   19.8550  N     
28   N        67.9240   65.6909   22.5971  N     
29   H        72.8285   53.2282   15.7336  H     
30   H        69.5779   54.6724   15.2774  H     
31   H        74.6121   56.4456   18.4151  H     
32   H        74.8885   58.3798   20.0966  H     
33   H        73.6223   60.5621   20.5787  H     
34   H        68.7086   61.8225   16.9075  H     
35   H        70.4003   60.1510   17.1300  H     
36   H        71.7347   61.9895   20.6933  H     
37   H        70.0419   63.6468   20.4734  H     
38   H        69.8048   65.3142   21.7121  H     
39   H        69.4236   67.0310   21.9781  H     
40   H        67.8852   67.0897   20.1081  H     
41   H        69.3517   66.2761   19.5363  H     
42   H        66.1077   63.7251   20.4545  H     
43   H        65.8301   65.4512   20.7520  H     
44   H        66.3218   64.3551   22.8946  H     
45   H        67.7952   63.6006   22.2345  H     
46   H        68.3397   65.5092   23.5206  H     
47   H        67.2708   66.4845   22.6743  H     
@<TRIPOS>BOND
     1    1    3 1
     2    1    4 2
     3    1    5 1
     4    2    5 1
     5    2    6 2
     6    2    7 1
     7    3    7 1
     8    3    8 2
     9    8    9 1
    10    9   10 2
    11    9   13 1
    12   10   11 1
    13   11   12 2
    14   12   13 1
    15   12   14 1
    16   14   17 1
    17   14   18 2
    18   15   16 1
    19   15   19 2
    20   15   22 1
    21   16   17 2
    22   18   19 1
    23   20   22 2
    24   21   22 2
    25   22   27 1
    26   23   24 1
    27   23   28 1
    28   24   27 1
    29   25   26 1
    30   25   27 1
    31   26   28 1
    32    5   29 1
    33    6   30 1
    34    8   31 1
    35   10   32 1
    36   11   33 1
    37   16   34 1
    38   17   35 1
    39   18   36 1
    40   19   37 1
    41   23   38 1
    42   23   39 1
    43   24   40 1
    44   24   41 1
    45   25   42 1
    46   25   43 1
    47   26   44 1
    48   26   45 1
    49   28   46 1
    50   28   47 1
@<TRIPOS>PROPERTY_DATA
  Total_Score	| 5.9279
  Crash		| -1.1259
  Polar		| 0.6381
  FragIndex	| 1
  FragRMSD	| 0.863

