@<TRIPOS>MOLECULE
BindingDB_17150
 34 36 0 0 0
SMALL
NO_CHARGES


@<TRIPOS>ATOM
1    C        73.5796   55.0506   16.8795  C     
2    C        71.5427   54.9390   16.0553  C     
3    C        73.0668   56.1985   17.3895  C     
4    O        74.6741   54.5744   17.1497  O     
5    N        72.7374   54.3611   16.1556  N     
6    N        70.5137   54.3817   15.4087  N     
7    S        71.4404   56.4486   16.8846  S     
8    C        73.7424   57.0118   18.2303  C     
9    C        73.3012   58.2051   18.7832  C     
10   C        73.9031   58.8536   19.8564  C     
11   C        73.1644   59.9926   20.1266  C     
12   C        72.1253   60.0483   19.1996  C     
13   O        72.2380   58.9561   18.4005  O     
14   C        71.1145   61.0372   19.0586  C     
15   C        69.0495   62.9848   18.7186  C     
16   C        69.3071   62.0153   17.7266  C     
17   C        70.3158   61.0530   17.8950  C     
18   C        70.8606   62.0145   20.0504  C     
19   C        69.8385   62.9764   19.8963  C     
20   S        67.7908   64.1501   18.3698  S     
21   O        67.4382   65.2617   19.4515  O     
22   O        68.3424   64.9923   17.1403  O     
23   N        66.3697   63.4817   17.7698  N     
24   Cl       69.6148   64.0671   21.1753  Cl    
25   H        72.9497   53.4963   15.7685  H     
26   H        70.6362   53.5342   14.9535  H     
27   H        74.6517   56.7145   18.5225  H     
28   H        74.7367   58.5489   20.3618  H     
29   H        73.3757   60.6688   20.8607  H     
30   H        68.7606   61.9970   16.8632  H     
31   H        70.4653   60.3697   17.1476  H     
32   H        71.4121   62.0202   20.9111  H     
33   H        66.3304   63.2404   16.8329  H     
34   H        65.7212   63.1078   18.3862  H     
@<TRIPOS>BOND
     1    1    3 1
     2    1    4 2
     3    1    5 1
     4    2    5 1
     5    2    6 2
     6    2    7 1
     7    3    7 1
     8    3    8 2
     9    8    9 1
    10    9   10 2
    11    9   13 1
    12   10   11 1
    13   11   12 2
    14   12   13 1
    15   12   14 1
    16   14   17 1
    17   14   18 2
    18   15   16 1
    19   15   19 2
    20   15   20 1
    21   16   17 2
    22   18   19 1
    23   19   24 1
    24   20   21 2
    25   20   22 2
    26   20   23 am
    27    5   25 1
    28    6   26 1
    29    8   27 1
    30   10   28 1
    31   11   29 1
    32   16   30 1
    33   17   31 1
    34   18   32 1
    35   23   33 1
    36   23   34 1
@<TRIPOS>PROPERTY_DATA
  Total_Score	| 4.8818
  Crash		| -1.1982
  Polar		| 1.6942
  FragIndex	| 1
  FragRMSD	| 0.733

