@<TRIPOS>MOLECULE
BindingDB_21339
 35 36 0 0 0
SMALL
NO_CHARGES


@<TRIPOS>ATOM
1    C         9.3613   14.2650   19.9864  C     
2    C         9.1978   15.2077   21.1929  C     
3    O         7.4286   15.6834   19.6313  O     
4    O        10.5017   14.6553   19.2040  O     
5    O        10.4572   15.7297   21.6020  O     
6    C         8.0492   14.4666   19.1729  C     
7    C         7.0102   13.3240   19.3141  C     
8    O         7.5574   12.0763   18.8377  O     
9    P         6.5822   10.8671   18.8813  P     
10   O         5.9009   10.7331   20.1423  O     
11   O         5.6469   10.8183   17.6604  O     
12   O         7.4461    9.6159   18.7753  O     
13   C         8.2643   16.2969   20.6162  C     
14   C         6.5903   16.2799   22.3542  C     
15   C         7.4248   18.3947   21.7404  C     
16   C         6.7195   18.9538   22.7644  C     
17   N         7.4337   16.9997   21.5807  N     
18   O         6.4643   15.0570   22.2486  O     
19   N         5.9193   16.8440   23.3415  N     
20   C         5.9754   18.1628   23.5695  C     
21   O         5.3275   18.6417   24.4856  O     
22   C         7.9424   19.3351   20.7346  C     
23   H         9.5042   13.2252   20.2997  H     
24   H         8.7151   14.6835   22.0380  H     
25   H        10.6270   13.9432   18.5331  H     
26   H        10.3490   15.9444   22.5582  H     
27   H         8.2675   14.5768   18.1054  H     
28   H         6.7243   13.2443   20.3749  H     
29   H         6.1150   13.6059   18.7354  H     
30   H         8.9089   16.9612   20.0635  H     
31   H         6.6539   19.9553   22.8690  H     
32   H         5.3364   16.3122   23.9133  H     
33   H         7.3398   19.2566   19.8107  H     
34   H         8.9936   19.1430   20.4893  H     
35   H         7.9157   20.3964   21.0520  H     
@<TRIPOS>BOND
     1    1    2 1
     2    1    4 1
     3    1    6 1
     4    2    5 1
     5    2   13 1
     6    3    6 1
     7    3   13 1
     8    6    7 1
     9    7    8 1
    10    8    9 1
    11    9   10 2
    12    9   11 1
    13    9   12 1
    14   13   17 1
    15   14   17 1
    16   14   18 2
    17   14   19 1
    18   15   16 2
    19   15   17 1
    20   15   22 1
    21   16   20 1
    22   19   20 1
    23   20   21 2
    24    1   23 1
    25    2   24 1
    26    4   25 1
    27    5   26 1
    28    6   27 1
    29    7   28 1
    30    7   29 1
    31   13   30 1
    32   16   31 1
    33   19   32 1
    34   22   33 1
    35   22   34 1
    36   22   35 1
@<TRIPOS>PROPERTY_DATA
  Total_Score	| 12.4368
  Crash		| -2.0835
  Polar		| 11.6763
  FragIndex	| 1
  FragRMSD	| 0.787

