@<TRIPOS>MOLECULE
BindingDB_21335
 33 34 0 0 0
SMALL
NO_CHARGES


@<TRIPOS>ATOM
1    C         9.3826   14.2843   19.9629  C     
2    C         9.1995   15.1990   21.1971  C     
3    O         7.4220   15.6703   19.6300  O     
4    O        10.5508   14.6779   19.2263  O     
5    O        10.4216   15.7889   21.6547  O     
6    C         8.0764   14.4656   19.1489  C     
7    C         7.0235   13.3052   19.2792  C     
8    O         7.5840   12.0669   18.7988  O     
9    P         6.6495   10.8302   18.8783  P     
10   O         6.0179   10.6804   20.1634  O     
11   O         5.6620   10.7342   17.6925  O     
12   O         7.5212    9.5812   18.7570  O     
13   C         8.2508   16.2842   20.6222  C     
14   C         6.5680   16.2795   22.3848  C     
15   C         7.4534   18.3706   21.7829  C     
16   C         6.7751   18.9588   22.7987  C     
17   N         7.4250   16.9888   21.6095  N     
18   O         6.3683   15.0856   22.2198  O     
19   N         5.8997   16.8710   23.3688  N     
20   C         6.0181   18.1783   23.6094  C     
21   O         5.3861   18.6584   24.5329  O     
22   C         7.9542   19.1875   20.9240  C     
23   N         8.3731   19.9391   20.1557  N     
24   H         9.5160   13.2417   20.2951  H     
25   H         8.7309   14.6465   22.0237  H     
26   H        10.6807   13.9750   18.5544  H     
27   H        10.2561   16.0082   22.5939  H     
28   H         8.2916   14.5979   18.0829  H     
29   H         6.7232   13.2129   20.3344  H     
30   H         6.1366   13.5927   18.6747  H     
31   H         8.8813   16.9820   20.0792  H     
32   H         6.7652   19.9499   22.9463  H     
33   H         5.3257   16.3410   23.9446  H     
@<TRIPOS>BOND
     1    1    2 1
     2    1    4 1
     3    1    6 1
     4    2    5 1
     5    2   13 1
     6    3    6 1
     7    3   13 1
     8    6    7 1
     9    7    8 1
    10    8    9 1
    11    9   10 2
    12    9   11 1
    13    9   12 1
    14   13   17 1
    15   14   17 1
    16   14   18 2
    17   14   19 1
    18   15   16 2
    19   15   17 1
    20   15   22 1
    21   16   20 1
    22   19   20 1
    23   20   21 2
    24   22   23 3
    25    1   24 1
    26    2   25 1
    27    4   26 1
    28    5   27 1
    29    6   28 1
    30    7   29 1
    31    7   30 1
    32   13   31 1
    33   16   32 1
    34   19   33 1
@<TRIPOS>PROPERTY_DATA
  Total_Score	| 12.9812
  Crash		| -1.4583
  Polar		| 11.6222
  FragIndex	| 1
  FragRMSD	| 0.781

