@<TRIPOS>MOLECULE
BindingDB_50398698
 35 36 0 0 0
SMALL
NO_CHARGES


@<TRIPOS>ATOM
1    O         5.7164   10.8127   17.7452  O     
2    P         6.6869   10.8006   18.8084  P     
3    O         7.5328    9.5343   18.6254  O     
4    N         6.0490   17.4699   23.0334  N     
5    C         6.7646   16.5745   22.3297  C     
6    N         7.8019   16.9794   21.5594  N     
7    C         8.0972   18.3116   21.5035  C     
8    C         7.3920   19.2318   22.1761  C     
9    C         6.3170   18.8052   22.9297  C     
10   N         5.5295   19.7410   23.4894  N     
11   O         6.4217   15.3963   22.3681  O     
12   C         8.5710   16.0674   20.7225  C     
13   O         7.7502   15.5476   19.6691  O     
14   C         8.3008   14.2901   19.2397  C     
15   C         9.4887   13.9525   20.1827  C     
16   C         9.2023   14.8333   21.4043  C     
17   O        10.3860   15.1140   22.1437  O     
18   O        10.7356   14.3376   19.5929  O     
19   C         7.1591   13.2480   19.2491  C     
20   O         7.6616   12.0073   18.7158  O     
21   O         6.0510   10.6868   20.2051  O     
22   O         5.0676   17.1115   23.8314  O     
23   H         8.8317   18.6463   20.9232  H     
24   H         7.6238   20.1976   22.1041  H     
25   H         5.7318   20.6799   23.3519  H     
26   H         4.7195   19.4858   23.9548  H     
27   H         9.3965   16.5936   20.2263  H     
28   H         8.6540   14.3960   18.2102  H     
29   H         9.5404   12.8957   20.4597  H     
30   H         8.4997   14.3222   22.0647  H     
31   H        10.1242   15.7533   22.8354  H     
32   H        10.8410   13.7624   18.8104  H     
33   H         6.8055   13.1260   20.2793  H     
34   H         6.3343   13.6335   18.6372  H     
35   H         5.1200   16.1417   23.9447  H     
@<TRIPOS>BOND
     1    1    2 2
     2    2    3 1
     3    2   20 1
     4    2   21 1
     5    4    5 1
     6    4    9 2
     7    4   22 1
     8    5    6 1
     9    5   11 2
    10    6    7 1
    11   12    6 1
    12    7    8 2
    13    8    9 1
    14    9   10 1
    15   12   13 1
    16   12   16 1
    17   13   14 1
    18   14   15 1
    19   14   19 1
    20   15   16 1
    21   15   18 1
    22   16   17 1
    23   19   20 1
    24    7   23 1
    25    8   24 1
    26   10   25 1
    27   10   26 1
    28   12   27 1
    29   14   28 1
    30   15   29 1
    31   16   30 1
    32   17   31 1
    33   18   32 1
    34   19   33 1
    35   19   34 1
    36   22   35 1
@<TRIPOS>PROPERTY_DATA
  Total_Score	| 9.7953
  Crash		| -2.7132
  Polar		| 10.1715
  FragIndex	| 1
  FragRMSD	| 0.537

