@<TRIPOS>MOLECULE
BindingDB_21337
 35 36 0 0 0
SMALL
NO_CHARGES


@<TRIPOS>ATOM
1    C         9.4523   14.2800   19.9206  C     
2    C         9.2388   15.1460   21.1697  C     
3    O         7.4858   15.6542   19.6249  O     
4    O        10.5633   14.7670   19.1646  O     
5    O        10.4662   15.6452   21.6874  O     
6    C         8.1157   14.4500   19.1509  C     
7    C         7.1145   13.2850   19.3393  C     
8    O         7.6913   12.0737   18.8119  O     
9    P         6.7635   10.8276   18.8703  P     
10   O         7.5431    9.6626   18.5467  O     
11   O         6.1883   10.6244   20.2830  O     
12   O         5.6141   10.9305   17.8513  O     
13   C         8.3069   16.2607   20.6352  C     
14   C         6.6172   16.2382   22.3955  C     
15   C         7.5160   18.3230   21.7988  C     
16   C         6.8096   18.9121   22.7899  C     
17   N         7.4775   16.9469   21.6253  N     
18   O         6.4243   15.0340   22.2894  O     
19   N         5.9085   16.8389   23.3443  N     
20   C         6.0005   18.1436   23.5617  C     
21   O         5.3181   18.6415   24.4428  O     
22   N         8.1905   19.1275   21.0378  N     
23   N         7.8622   19.4167   19.9568  N     
24   N         7.5532   19.7538   18.8888  N     
25   H         9.6556   13.2411   20.1946  H     
26   H         8.7604   14.5417   21.9429  H     
27   H        10.7185   14.1041   18.4615  H     
28   H        10.2862   15.8901   22.6195  H     
29   H         8.3048   14.5556   18.0797  H     
30   H         6.1908   13.5386   18.8057  H     
31   H         6.8872   13.1869   20.4064  H     
32   H         8.9519   16.9611   20.0979  H     
33   H         6.8370   19.8992   22.9326  H     
34   H         5.3111   16.3063   23.8923  H     
35   H         6.9370   19.2496   18.3959  H     
@<TRIPOS>BOND
     1    1    2 1
     2    1    4 1
     3    1    6 1
     4    2    5 1
     5    2   13 1
     6    3    6 1
     7    3   13 1
     8    6    7 1
     9    7    8 1
    10    8    9 1
    11    9   10 2
    12    9   11 1
    13    9   12 1
    14   13   17 1
    15   14   17 1
    16   14   18 2
    17   14   19 1
    18   15   16 2
    19   15   17 1
    20   15   22 1
    21   16   20 1
    22   19   20 1
    23   20   21 2
    24   22   23 2
    25   23   24 2
    26    1   25 1
    27    2   26 1
    28    4   27 1
    29    5   28 1
    30    6   29 1
    31    7   30 1
    32    7   31 1
    33   13   32 1
    34   16   33 1
    35   19   34 1
    36   24   35 1
@<TRIPOS>PROPERTY_DATA
  Total_Score	| 14.8964
  Crash		| -1.0733
  Polar		| 12.5872
  FragIndex	| 1
  FragRMSD	| 0.740

