@<TRIPOS>MOLECULE
BindingDB_21340
 31 32 0 0 0
SMALL
NO_CHARGES


@<TRIPOS>ATOM
1    C         9.4744   14.1158   20.0249  C     
2    C         9.2202   14.8658   21.3326  C     
3    O         7.6793   15.6836   19.6970  O     
4    O        10.6521   14.6292   19.3948  O     
5    O        10.4262   15.1604   22.0196  O     
6    C         8.2121   14.4405   19.1902  C     
7    C         7.1118   13.3588   19.2624  C     
8    O         7.6215   12.1310   18.6913  O     
9    P         6.6763   10.9037   18.8086  P     
10   O         5.6900   10.8696   17.7616  O     
11   O         7.5435    9.6549   18.5871  O     
12   O         6.0912   10.7039   20.2164  O     
13   C         8.4494   16.1103   20.8381  C     
14   C         6.5504   16.1451   22.4131  C     
15   C         7.1939   18.6902   22.9996  C     
16   N         7.6053   16.7505   21.8197  N     
17   O         6.1928   14.9985   22.1905  O     
18   N         5.8448   16.8300   23.3106  N     
19   C         6.1345   18.0907   23.6109  C     
20   O         5.4466   18.6817   24.4274  O     
21   N         7.8663   17.9901   22.1461  N     
22   H         9.6156   13.0439   20.2045  H     
23   H         8.6075   14.2457   21.9900  H     
24   H        10.8564   14.0009   18.6743  H     
25   H        10.1848   15.7475   22.7660  H     
26   H         8.4764   14.5531   18.1362  H     
27   H         6.8338   13.2184   20.3121  H     
28   H         6.2284   13.7150   18.7210  H     
29   H         9.1899   16.8253   20.4631  H     
30   H         7.4580   19.6251   23.1963  H     
31   H         5.1059   16.3804   23.7517  H     
@<TRIPOS>BOND
     1    1    2 1
     2    1    4 1
     3    1    6 1
     4    2    5 1
     5    2   13 1
     6    3    6 1
     7    3   13 1
     8    6    7 1
     9    7    8 1
    10    8    9 1
    11    9   10 2
    12    9   11 1
    13    9   12 1
    14   13   16 1
    15   14   16 1
    16   14   17 2
    17   14   18 1
    18   15   19 1
    19   15   21 2
    20   16   21 1
    21   18   19 1
    22   19   20 2
    23    1   22 1
    24    2   23 1
    25    4   24 1
    26    5   25 1
    27    6   26 1
    28    7   27 1
    29    7   28 1
    30   13   29 1
    31   15   30 1
    32   18   31 1
@<TRIPOS>PROPERTY_DATA
  Total_Score	| 13.5390
  Crash		| -0.6646
  Polar		| 12.0488
  FragIndex	| 1
  FragRMSD	| 0.279

