@<TRIPOS>MOLECULE
BindingDB_21338
 34 35 0 0 0
SMALL
NO_CHARGES


@<TRIPOS>ATOM
1    C         9.4320   14.1407   20.0406  C     
2    C         9.1767   14.9709   21.3043  C     
3    O         7.6058   15.6681   19.6430  O     
4    O        10.6178   14.5922   19.3778  O     
5    O        10.3942   15.3163   21.9557  O     
6    C         8.1718   14.4278   19.1828  C     
7    C         7.0755   13.3358   19.2592  C     
8    O         7.6221   12.0851   18.7948  O     
9    P         6.6443   10.8767   18.8247  P     
10   O         5.6865   10.9386   17.7512  O     
11   O         7.4760    9.6051   18.6050  O     
12   O         5.9804   10.7099   20.2031  O     
13   C         8.3918   16.1788   20.7333  C     
14   C         6.6154   16.2251   22.4027  C     
15   C         7.6065   18.2785   21.8381  C     
16   C         6.8824   18.8885   22.8045  C     
17   N         7.5365   16.9025   21.6734  N     
18   O         6.3761   15.0335   22.2690  O     
19   N         5.8963   16.8459   23.3310  N     
20   C         6.0349   18.1430   23.5625  C     
21   O         5.3551   18.6582   24.4384  O     
22   N         8.2746   19.0642   21.0550  N     
23   H         9.5530   13.0829   20.2873  H     
24   H         8.5776   14.3851   22.0070  H     
25   H        10.7451   13.9746   18.6291  H     
26   H        10.1454   15.8495   22.7383  H     
27   H         8.4486   14.5384   18.1310  H     
28   H         6.7339   13.2462   20.2970  H     
29   H         6.2281   13.6527   18.6343  H     
30   H         9.1433   16.8317   20.2843  H     
31   H         6.9188   19.8754   22.9390  H     
32   H         5.2669   16.3315   23.8589  H     
33   H         8.7461   18.7396   20.3163  H     
34   H         8.2272   19.9875   21.1864  H     
@<TRIPOS>BOND
     1    1    2 1
     2    1    4 1
     3    1    6 1
     4    2    5 1
     5    2   13 1
     6    3    6 1
     7    3   13 1
     8    6    7 1
     9    7    8 1
    10    8    9 1
    11    9   10 2
    12    9   11 1
    13    9   12 1
    14   13   17 1
    15   14   17 1
    16   14   18 2
    17   14   19 1
    18   15   16 2
    19   15   17 1
    20   15   22 1
    21   16   20 1
    22   19   20 1
    23   20   21 2
    24    1   23 1
    25    2   24 1
    26    4   25 1
    27    5   26 1
    28    6   27 1
    29    7   28 1
    30    7   29 1
    31   13   30 1
    32   16   31 1
    33   19   32 1
    34   22   33 1
    35   22   34 1
@<TRIPOS>PROPERTY_DATA
  Total_Score	| 13.7815
  Crash		| -1.5583
  Polar		| 12.8171
  FragIndex	| 1
  FragRMSD	| 0.217

