@<TRIPOS>MOLECULE
BindingDB_50398697
 34 35 0 0 0
SMALL
NO_CHARGES


@<TRIPOS>ATOM
1    O         5.6943   10.8840   17.7636  O     
2    P         6.6851   10.8853   18.8084  P     
3    O         7.5488    9.6355   18.5917  O     
4    N         5.5368   17.1771   22.8070  N     
5    C         6.4271   16.3711   22.2355  C     
6    N         7.5750   16.8799   21.7374  N     
7    C         7.8586   18.1984   21.9745  C     
8    C         6.9871   19.0205   22.5841  C     
9    C         5.7622   18.5070   22.9663  C     
10   N         4.7814   19.3372   23.3634  N     
11   O         6.0865   15.1999   22.1144  O     
12   C         8.4441   16.1108   20.8554  C     
13   O         7.7038   15.6431   19.7126  O     
14   C         8.2368   14.3773   19.2914  C     
15   C         9.4384   14.0492   20.2162  C     
16   C         9.1300   14.8724   21.4771  C     
17   O        10.3147   15.1574   22.2133  O     
18   O        10.6651   14.4930   19.6190  O     
19   C         7.1031   13.3264   19.3279  C     
20   O         7.6206   12.1196   18.7333  O     
21   O         6.0756   10.7184   20.2103  O     
22   O         3.5487   18.9264   23.5650  O     
23   H         8.7148   18.5938   21.6596  H     
24   H         7.1963   19.9866   22.6934  H     
25   H         4.9745   20.2821   23.4350  H     
26   H         9.2419   16.7435   20.4527  H     
27   H         8.5656   14.4679   18.2532  H     
28   H         9.5158   12.9856   20.4491  H     
29   H         8.4401   14.3188   22.1135  H     
30   H        10.0507   15.8029   22.8976  H     
31   H        10.8332   13.8715   18.8832  H     
32   H         6.8052   13.1736   20.3796  H     
33   H         6.2314   13.7024   18.7736  H     
34   H         2.9852   19.7248   23.4039  H     
@<TRIPOS>BOND
     1    1    2 2
     2    2    3 1
     3    2   20 1
     4    2   21 1
     5    4    5 1
     6    4    9 2
     7    5    6 1
     8    5   11 2
     9    6    7 1
    10   12    6 1
    11    7    8 2
    12    8    9 1
    13    9   10 1
    14   10   22 1
    15   12   13 1
    16   12   16 1
    17   13   14 1
    18   14   15 1
    19   14   19 1
    20   15   16 1
    21   15   18 1
    22   16   17 1
    23   19   20 1
    24    7   23 1
    25    8   24 1
    26   10   25 1
    27   12   26 1
    28   14   27 1
    29   15   28 1
    30   16   29 1
    31   17   30 1
    32   18   31 1
    33   19   32 1
    34   19   33 1
    35   22   34 1
@<TRIPOS>PROPERTY_DATA
  Total_Score	| 9.3590
  Crash		| -2.7975
  Polar		| 9.9643
  FragIndex	| 1
  FragRMSD	| 0.406

