@<TRIPOS>MOLECULE
BindingDB_50398699
 32 33 0 0 0
SMALL
NO_CHARGES


@<TRIPOS>ATOM
1    N         7.5424   16.8242   21.7721  N     
2    C         6.5747   16.1840   22.4661  C     
3    N         5.8417   16.8424   23.3591  N     
4    C         6.0149   18.1399   23.5826  C     
5    C         6.9633   18.8336   22.8901  C     
6    C         7.7099   18.1638   21.9895  C     
7    O         6.3088   15.0007   22.3286  O     
8    O         5.3014   18.7027   24.3979  O     
9    C         8.3798   16.1361   20.7998  C     
10   C         9.1550   14.9136   21.3436  C     
11   O        10.3671   15.2361   22.0192  O     
12   C         9.4206   14.1209   20.0607  C     
13   C         8.1552   14.4140   19.2158  C     
14   O        10.6003   14.6098   19.4170  O     
15   O         7.5958   15.6512   19.6968  O     
16   C         7.0578   13.3231   19.2935  C     
17   O         7.5655   12.0893   18.7536  O     
18   P         6.5892   10.8791   18.8153  P     
19   O         5.6816   10.9125   17.6951  O     
20   O         7.4177    9.5923   18.6784  O     
21   O         5.8034   10.8095   20.1443  O     
22   H         5.1684   16.3590   23.8603  H     
23   H         7.0980   19.8109   23.0429  H     
24   H         8.3889   18.6810   21.4835  H     
25   H         9.1204   16.8155   20.3593  H     
26   H         8.5425   14.3072   22.0189  H     
27   H        10.1120   15.8090   22.7701  H     
28   H         9.5586   13.0588   20.2795  H     
29   H         8.4280   14.5404   18.1648  H     
30   H        10.7697   13.9787   18.6887  H     
31   H         6.7634   13.1809   20.3347  H     
32   H         6.1927   13.6797   18.7250  H     
@<TRIPOS>BOND
     1    1    2 1
     2    1    6 1
     3    9    1 1
     4    2    3 1
     5    2    7 2
     6    3    4 1
     7    4    5 1
     8    4    8 2
     9    5    6 2
    10    9   10 1
    11    9   15 1
    12   10   11 1
    13   10   12 1
    14   12   13 1
    15   12   14 1
    16   13   15 1
    17   13   16 1
    18   16   17 1
    19   17   18 1
    20   18   19 2
    21   18   20 1
    22   18   21 1
    23    3   22 1
    24    5   23 1
    25    6   24 1
    26    9   25 1
    27   10   26 1
    28   11   27 1
    29   12   28 1
    30   13   29 1
    31   14   30 1
    32   16   31 1
    33   16   32 1
@<TRIPOS>PROPERTY_DATA
  Total_Score	| 13.2742
  Crash		| -0.9053
  Polar		| 11.6155
  FragIndex	| 1
  FragRMSD	| 0.255

