@<TRIPOS>MOLECULE
BindingDB_50310540
 33 34 0 0 0
SMALL
NO_CHARGES


@<TRIPOS>ATOM
1    C         7.1862   13.2936   19.2507  C     
2    C         8.3274   14.3403   19.2207  C     
3    C         9.5234   14.0078   20.1519  C     
4    C         9.2090   14.8298   21.4069  C     
5    C         8.5378   16.0738   20.7844  C     
6    O         7.7951   15.6054   19.6459  O     
7    N         7.6647   16.8625   21.6428  N     
8    C         6.5572   16.3390   22.2109  C     
9    O         6.2486   15.1541   22.1575  O     
10   N         5.7031   17.1231   22.8590  N     
11   C         5.9148   18.4555   22.9887  C     
12   C         7.0688   19.0124   22.4670  C     
13   C         7.9054   18.2028   21.7946  C     
14   P         6.7138   10.8445   18.8237  P     
15   O         5.7006   10.8427   17.8018  O     
16   O         7.6741   12.0579   18.6969  O     
17   O        10.7543   14.4536   19.5701  O     
18   O        10.3870   15.1128   22.1543  O     
19   N         4.9636   19.2136   23.5518  N     
20   O         7.5590    9.5820   18.5968  O     
21   O         6.1476   10.6887   20.2468  O     
22   H         6.8596   13.1630   20.2849  H     
23   H         6.3466   13.6788   18.6655  H     
24   H         8.6673   14.4384   18.1869  H     
25   H         9.6098   12.9434   20.3879  H     
26   H         8.5220   14.2744   22.0499  H     
27   H         9.3534   16.6878   20.3761  H     
28   H         7.2545   19.9844   22.5501  H     
29   H         8.7012   18.6218   21.3752  H     
30   H        10.9033   13.8658   18.8011  H     
31   H        10.1247   15.7563   22.8422  H     
32   H         5.0755   20.1751   23.5840  H     
33   H         4.1316   18.8077   23.8458  H     
@<TRIPOS>BOND
     1    2    1 1
     2    1   16 1
     3    2    3 1
     4    2    6 1
     5    3    4 1
     6    3   17 1
     7    4    5 1
     8    4   18 1
     9    5    6 1
    10    5    7 1
    11    7    8 1
    12    7   13 1
    13    8    9 2
    14    8   10 1
    15   10   11 2
    16   11   12 1
    17   11   19 1
    18   12   13 2
    19   14   15 2
    20   14   16 1
    21   14   20 1
    22   14   21 1
    23    1   22 1
    24    1   23 1
    25    2   24 1
    26    3   25 1
    27    4   26 1
    28    5   27 1
    29   12   28 1
    30   13   29 1
    31   17   30 1
    32   18   31 1
    33   19   32 1
    34   19   33 1
@<TRIPOS>PROPERTY_DATA
  Total_Score	| 9.6335
  Crash		| -1.9633
  Polar		| 9.6163
  FragIndex	| 1
  FragRMSD	| 0.416

