@<TRIPOS>MOLECULE
BindingDB_50023645
 44 46 0 0 0
SMALL
NO_CHARGES


@<TRIPOS>ATOM
1    N         0.2041    6.6651   14.7447  N     
2    C         0.3568    6.9573   13.4361  C     
3    N         0.8644    8.1280   13.0657  N     
4    C         1.0177    8.8313   15.2955  C     
5    C        -0.1509    5.3189   15.1593  C     
6    C         1.2489    9.0347   13.9589  C     
7    C         0.4936    7.6360   15.6596  C     
8    P        -0.1675    0.1262   16.8627  P     
9    O        -0.1380    5.0808   16.5762  O     
10   C        -1.5408    4.8205   14.7009  C     
11   C        -0.8121    3.8396   16.8142  C     
12   C        -1.9745    3.8180   15.7917  C     
13   C         1.2330    9.8241   16.2481  C     
14   C         0.1725    2.6460   16.6808  C     
15   O         0.1057    6.1740   12.5308  O     
16   O        -0.2947    1.5439   17.4819  O     
17   O        -1.1757   -0.0080   15.7154  O     
18   O         1.2376   -0.1981   16.3445  O     
19   O         1.7764   10.0559   13.5310  O     
20   O        -0.5104   -0.8288   17.8816  O     
21   C         0.1535   10.6027   16.7251  C     
22   C         2.5267   10.0403   16.7818  C     
23   O        -3.1966    4.2189   16.4108  O     
24   C         0.3606   11.5638   17.7321  C     
25   C         2.7266   10.9969   17.7950  C     
26   C         1.6449   11.7640   18.2900  C     
27   C         1.8255   12.7678   19.3643  C     
28   H         0.9724    8.3186   12.1206  H     
29   H         0.6095    4.6566   14.7324  H     
30   H         0.3071    7.4730   16.6222  H     
31   H        -2.2407    5.6601   14.6214  H     
32   H        -1.4766    4.3261   13.7226  H     
33   H        -1.1945    3.8636   17.8369  H     
34   H        -2.1236    2.8199   15.3675  H     
35   H         0.3028    2.4085   15.6176  H     
36   H         1.1488    2.9401   17.0720  H     
37   H        -0.7903   10.4720   16.3451  H     
38   H         3.3256    9.4892   16.4492  H     
39   H        -3.8685    4.1866   15.7001  H     
40   H        -0.4365   12.1114   18.0662  H     
41   H         3.6677   11.1230   18.1776  H     
42   H         1.5806   13.7606   18.9798  H     
43   H         2.8487   12.7836   19.7398  H     
44   H         1.1612   12.5370   20.2004  H     
@<TRIPOS>BOND
     1    1    2 1
     2    1    5 1
     3    1    7 1
     4    2    3 1
     5    2   15 2
     6    3    6 1
     7    4    6 1
     8    4    7 2
     9    4   13 1
    10    5    9 1
    11    5   10 1
    12    6   19 2
    13    8   16 1
    14    8   17 1
    15    8   18 1
    16    8   20 2
    17    9   11 1
    18   10   12 1
    19   11   12 1
    20   11   14 1
    21   12   23 1
    22   13   21 2
    23   13   22 1
    24   14   16 1
    25   21   24 1
    26   22   25 2
    27   24   26 2
    28   25   26 1
    29   26   27 1
    30    3   28 1
    31    5   29 1
    32    7   30 1
    33   10   31 1
    34   10   32 1
    35   11   33 1
    36   12   34 1
    37   14   35 1
    38   14   36 1
    39   21   37 1
    40   22   38 1
    41   23   39 1
    42   24   40 1
    43   25   41 1
    44   27   42 1
    45   27   43 1
    46   27   44 1
@<TRIPOS>PROPERTY_DATA
  Total_Score	| 8.3667
  Crash		| -3.3367
  Polar		| 9.9595
  FragIndex	| 1
  FragRMSD	| 0.916

