@<TRIPOS>MOLECULE
BindingDB_50023647
 41 43 0 0 0
SMALL
NO_CHARGES


@<TRIPOS>ATOM
1    N         0.0659    6.5164   14.6261  N     
2    C        -0.0681    6.9485   13.3550  C     
3    N         0.8866    7.6938   12.8098  N     
4    C         2.0960    7.7641   14.8437  C     
5    C        -0.9480    5.7131   15.2897  C     
6    C         1.9563    8.0785   13.4990  C     
7    C         1.1715    6.8944   15.3282  C     
8    P         0.0819    0.7363   16.2354  P     
9    O        -0.4630    4.4053   15.6571  O     
10   C        -1.4818    6.3620   16.5849  C     
11   C        -0.9456    4.0764   16.9759  C     
12   C        -2.0222    5.1330   17.3157  C     
13   C        -1.4686    2.6156   17.0699  C     
14   O        -1.0489    6.7150   12.6523  O     
15   C         2.9684    8.4595   15.7210  C     
16   O        -0.4014    1.6915   17.3627  O     
17   O         1.2484   -0.1054   16.7843  O     
18   O        -1.0297   -0.2328   15.7907  O     
19   O         2.8402    8.6274   12.8528  O     
20   O         0.5746    1.4454   15.0846  O     
21   O        -2.1863    5.3608   18.7143  O     
22   C         3.4587    9.7549   15.3941  C     
23   C         3.3217    7.9505   17.0061  C     
24   C         4.1035    8.6968   17.9074  C     
25   C         4.2717   10.4864   16.2785  C     
26   C         4.5949    9.9549   17.5368  C     
27   H         0.7983    7.9756   11.8832  H     
28   H        -1.8167    5.5290   14.6405  H     
29   H         1.2030    6.6181   16.2852  H     
30   H        -0.6774    6.8336   17.1598  H     
31   H        -2.2458    7.1134   16.3918  H     
32   H        -0.1088    4.1954   17.6771  H     
33   H        -2.9904    4.8504   16.8875  H     
34   H        -2.1490    2.5460   17.9210  H     
35   H        -2.0542    2.3751   16.1772  H     
36   H        -3.0257    5.8750   18.7891  H     
37   H         3.1944   10.2066   14.5163  H     
38   H         3.0174    7.0175   17.3024  H     
39   H         4.3187    8.3133   18.8365  H     
40   H         4.6120   11.4136   16.0135  H     
41   H         5.1846   10.4864   18.1810  H     
@<TRIPOS>BOND
     1    1    2 1
     2    1    5 1
     3    1    7 1
     4    2    3 1
     5    2   14 2
     6    3    6 1
     7    4    6 1
     8    4    7 2
     9    4   15 1
    10    5    9 1
    11    5   10 1
    12    6   19 2
    13    8   16 1
    14    8   17 1
    15    8   18 1
    16    8   20 2
    17    9   11 1
    18   10   12 1
    19   11   12 1
    20   11   13 1
    21   12   21 1
    22   13   16 1
    23   15   22 1
    24   15   23 2
    25   22   25 2
    26   23   24 1
    27   24   26 2
    28   25   26 1
    29    3   27 1
    30    5   28 1
    31    7   29 1
    32   10   30 1
    33   10   31 1
    34   11   32 1
    35   12   33 1
    36   13   34 1
    37   13   35 1
    38   21   36 1
    39   22   37 1
    40   23   38 1
    41   24   39 1
    42   25   40 1
    43   26   41 1
@<TRIPOS>PROPERTY_DATA
  Total_Score	| 10.8989
  Crash		| -2.0426
  Polar		| 9.3738
  FragIndex	| 1
  FragRMSD	| 1.394

