@<TRIPOS>MOLECULE
BindingDB_50023637
 43 45 0 0 0
SMALL
NO_CHARGES


@<TRIPOS>ATOM
1    N         0.0060    6.4367   14.5063  N     
2    C        -0.1421    6.8798   13.2408  C     
3    N         0.8330    7.5946   12.6825  N     
4    C         2.0734    7.6155   14.6980  C     
5    C        -1.0442    5.7151   15.2007  C     
6    C         1.9276    7.9400   13.3558  C     
7    C         1.1482    6.7489   15.1853  C     
8    P         0.0369    0.7112   16.2615  P     
9    O        -0.6330    4.3689   15.5136  O     
10   C        -1.4432    6.3955   16.5306  C     
11   C        -0.9295    4.0991   16.8947  C     
12   C        -1.9374    5.1898   17.3282  C     
13   C         2.9402    8.3146   15.5755  C     
14   C        -1.4488    2.6557   17.0944  C     
15   O        -1.1500    6.6913   12.5654  O     
16   O        -0.3734    1.7337   17.3596  O     
17   O         0.5307    1.3544   14.9521  O     
18   O         1.1935   -0.1413   16.8091  O     
19   O         2.8061    8.5001   12.7049  O     
20   O        -1.0239   -0.2174   15.9703  O     
21   C         3.2569    7.8251   16.8749  C     
22   C         3.4337    9.6066   15.2326  C     
23   C         4.4886    9.8650   17.4129  C     
24   O        -1.9540    5.4558   18.7272  O     
25   N         5.2232   10.5867   18.2770  N     
26   C         3.9910    8.6029   17.7944  C     
27   C         4.2175   10.3627   16.1276  C     
28   H         0.7291    7.8987   11.7675  H     
29   H        -1.9559    5.6190   14.5985  H     
30   H         1.2020    6.4418   16.1344  H     
31   H        -0.5860    6.8670   17.0283  H     
32   H        -2.2121    7.1552   16.4017  H     
33   H        -0.0011    4.2228   17.4667  H     
34   H        -2.9503    4.9272   17.0048  H     
35   H        -2.0702    2.6418   17.9921  H     
36   H        -2.0954    2.3721   16.2568  H     
37   H         2.9566    6.8936   17.1781  H     
38   H         3.1924   10.0430   14.3378  H     
39   H        -2.7659    5.9916   18.8636  H     
40   H         5.5821   11.4489   18.0079  H     
41   H         5.3928   10.2446   19.1666  H     
42   H         4.1770    8.2356   18.7337  H     
43   H         4.5579   11.2866   15.8415  H     
@<TRIPOS>BOND
     1    1    2 1
     2    1    5 1
     3    1    7 1
     4    2    3 1
     5    2   15 2
     6    3    6 1
     7    4    6 1
     8    4    7 2
     9    4   13 1
    10    5    9 1
    11    5   10 1
    12    6   19 2
    13    8   16 1
    14    8   17 1
    15    8   18 1
    16    8   20 2
    17    9   11 1
    18   10   12 1
    19   11   12 1
    20   11   14 1
    21   12   24 1
    22   13   21 2
    23   13   22 1
    24   14   16 1
    25   21   26 1
    26   22   27 2
    27   23   25 1
    28   23   26 2
    29   23   27 1
    30    3   28 1
    31    5   29 1
    32    7   30 1
    33   10   31 1
    34   10   32 1
    35   11   33 1
    36   12   34 1
    37   14   35 1
    38   14   36 1
    39   21   37 1
    40   22   38 1
    41   24   39 1
    42   25   40 1
    43   25   41 1
    44   26   42 1
    45   27   43 1
@<TRIPOS>PROPERTY_DATA
  Total_Score	| 11.3279
  Crash		| -2.7213
  Polar		| 9.6032
  FragIndex	| 1
  FragRMSD	| 1.341

