@<TRIPOS>MOLECULE
BindingDB_50023642
 42 44 0 0 0
SMALL
NO_CHARGES


@<TRIPOS>ATOM
1    N        -0.0450    6.1464   14.5082  N     
2    C        -0.1764    6.9553   13.4524  C     
3    N         0.7384    7.8888   13.2194  N     
4    C         1.8298    7.4793   15.2941  C     
5    C        -0.8030    4.8999   14.6134  C     
6    C         1.7591    8.1097   14.0532  C     
7    C         0.8994    6.4750   15.4401  C     
8    P         0.1104    0.7366   16.2245  P     
9    O        -0.3043    3.9622   15.5824  O     
10   C        -2.2817    5.0740   14.9655  C     
11   C        -1.1142    3.9688   16.7728  C     
12   C        -2.3194    4.9033   16.4896  C     
13   N         5.4402    9.3071   20.7762  N     
14   C         2.6921    7.8574   16.3852  C     
15   C        -1.4904    2.5177   17.1726  C     
16   C         4.8867    9.0301   19.7973  C     
17   O        -1.0667    6.7955   12.6138  O     
18   O        -0.3327    1.6661   17.3940  O     
19   O         1.2685   -0.1164   16.7623  O     
20   O        -1.0024   -0.2391   15.8131  O     
21   O         2.5476    8.9923   13.6632  O     
22   O         0.6101    1.4086   15.0456  O     
23   C         3.3676    9.1135   16.4672  C     
24   C         2.8963    7.0147   17.5254  C     
25   C         4.2536    8.6672   18.7085  C     
26   O        -2.1455    6.1643   17.1480  O     
27   C         4.1477    9.5024   17.5755  C     
28   C         3.6144    7.3999   18.6689  C     
29   H         0.6619    8.4037   12.3950  H     
30   H        -0.7357    4.3722   13.6502  H     
31   H         0.8117    6.0030   16.3067  H     
32   H        -2.6363    6.0541   14.6488  H     
33   H        -2.8869    4.3024   14.4720  H     
34   H        -0.5087    4.3661   17.5897  H     
35   H        -3.2721    4.4567   16.7924  H     
36   H        -1.9925    2.5740   18.1433  H     
37   H        -2.2516    2.1268   16.4722  H     
38   H         3.2611    9.8085   15.7192  H     
39   H         2.5060    6.0733   17.5901  H     
40   H        -3.0490    6.5184   17.2974  H     
41   H         4.6113   10.4211   17.5764  H     
42   H         3.6546    6.7630   19.4820  H     
@<TRIPOS>BOND
     1    1    2 1
     2    1    5 1
     3    1    7 1
     4    2    3 1
     5    2   17 2
     6    3    6 1
     7    4    6 1
     8    4    7 2
     9    4   14 1
    10    5    9 1
    11    5   10 1
    12    6   21 2
    13    8   18 1
    14    8   19 1
    15    8   20 1
    16    8   22 2
    17    9   11 1
    18   10   12 1
    19   11   12 1
    20   11   15 1
    21   12   26 1
    22   13   16 3
    23   14   23 2
    24   14   24 1
    25   15   18 1
    26   16   25 1
    27   23   27 1
    28   24   28 2
    29   25   27 2
    30   25   28 1
    31    3   29 1
    32    5   30 1
    33    7   31 1
    34   10   32 1
    35   10   33 1
    36   11   34 1
    37   12   35 1
    38   15   36 1
    39   15   37 1
    40   23   38 1
    41   24   39 1
    42   26   40 1
    43   27   41 1
    44   28   42 1
@<TRIPOS>PROPERTY_DATA
  Total_Score	| 7.5416
  Crash		| -5.5232
  Polar		| 9.6416
  FragIndex	| 1
  FragRMSD	| 1.315

