@<TRIPOS>MOLECULE
BindingDB_50028108
 31 32 0 0 0
SMALL
NO_CHARGES


@<TRIPOS>ATOM
1    N         0.1266    6.4126   14.5895  N     
2    C        -0.0883    6.9769   13.3766  C     
3    C        -0.9029    5.6590   15.2918  C     
4    N         0.8972    7.6380   12.7607  N     
5    P         0.0792    0.7223   16.2375  P     
6    C         1.3570    6.5906   15.1679  C     
7    O        -0.4583    4.3377   15.6434  O     
8    C        -1.3981    6.3371   16.5900  C     
9    C         2.3480    7.2644   14.5428  C     
10   C         2.0910    7.8016   13.3246  C     
11   C        -0.9108    4.0460   16.9802  C     
12   C        -1.9637    5.1211   17.3340  C     
13   C        -1.4490    2.6036   17.1271  C     
14   O        -1.1584    6.8989   12.7831  O     
15   O        -0.3730    1.6747   17.3894  O     
16   O        -1.0469   -0.2510   15.8616  O     
17   O         0.5388    1.4609   14.9647  O     
18   O         1.1602   -0.0807   16.7567  O     
19   O         2.9421    8.4450   12.7332  O     
20   O        -2.0829    5.3208   18.7509  O     
21   H        -1.7746    5.5080   14.6578  H     
22   H         0.7279    8.0335   11.8929  H     
23   H         1.5527    6.1816   16.0615  H     
24   H        -0.5640    6.7790   17.1536  H     
25   H        -2.1563    7.1052   16.3962  H     
26   H         3.2438    7.3474   14.9659  H     
27   H        -0.0535    4.1693   17.6548  H     
28   H        -2.9552    4.8595   16.9173  H     
29   H        -2.0930    2.5565   18.0139  H     
30   H        -2.0824    2.3546   16.2665  H     
31   H        -2.7811    6.0187   18.8525  H     
@<TRIPOS>BOND
     1    1    2 1
     2    1    3 1
     3    1    6 1
     4    2    4 1
     5    2   14 2
     6    3    7 1
     7    3    8 1
     8    4   10 1
     9    5   15 1
    10    5   16 1
    11    5   17 1
    12    5   18 2
    13    6    9 2
    14    7   11 1
    15    8   12 1
    16    9   10 1
    17   10   19 2
    18   11   12 1
    19   11   13 1
    20   12   20 1
    21   13   15 1
    22    3   21 1
    23    4   22 1
    24    6   23 1
    25    8   24 1
    26    8   25 1
    27    9   26 1
    28   11   27 1
    29   12   28 1
    30   13   29 1
    31   13   30 1
    32   20   31 1
@<TRIPOS>PROPERTY_DATA
  Total_Score	| 10.2650
  Crash		| -1.4047
  Polar		| 9.8768
  FragIndex	| 1
  FragRMSD	| 1.309

