@<TRIPOS>MOLECULE
BindingDB_50305179
 40 44 0 0 0
SMALL
NO_CHARGES


@<TRIPOS>ATOM
1    C        14.1105    9.8296    3.9118  C     
2    C        13.6584    8.7655    3.1029  C     
3    N        12.6180    8.9514    2.2539  N     
4    C        12.0370   10.1673    2.1560  C     
5    N        10.9995   10.5509    1.4099  N     
6    C        10.7820   11.8209    1.6429  C     
7    N        13.0411   14.1272    3.3846  N     
8    C        11.7279   13.6830    3.0071  C     
9    C        11.6970   12.3234    2.4819  C     
10   C        12.4732   11.2706    2.8915  C     
11   C        13.4979   11.1222    3.8595  C     
12   C        13.9428   12.1998    4.7055  C     
13   C        13.8513   13.5762    4.3290  C     
14   C        14.6465   14.5365    5.0087  C     
15   C        15.4006   14.1938    6.1418  C     
16   C        15.3592   12.8821    6.6254  C     
17   C        14.6367   11.9057    5.9166  C     
18   C        11.1109   14.7827    2.1741  C     
19   C        10.4944   15.8717    2.8481  C     
20   C         9.8513   16.9094    2.1431  C     
21   C         9.8045   16.8914    0.7342  C     
22   C        10.4481   15.8447    0.0429  C     
23   C        11.1059   14.8139    0.7505  C     
24   N         9.1385   17.8503    0.0619  N     
25   H        14.9046    9.6350    4.5218  H     
26   H        14.1128    7.8505    3.1513  H     
27   H        10.4853    9.9819    0.8159  H     
28   H        10.0619   12.3665    1.2243  H     
29   H        13.2279   15.0606    3.1828  H     
30   H        11.1404   13.6173    3.9279  H     
31   H        14.6595   15.5189    4.7070  H     
32   H        15.9488   14.9033    6.6402  H     
33   H        15.8695   12.6282    7.4774  H     
34   H        14.6363   10.9620    6.3032  H     
35   H        10.4937   15.9054    3.8697  H     
36   H         9.4130   17.6708    2.6645  H     
37   H        10.4108   15.8038   -0.9803  H     
38   H        11.5052   14.0269    0.2122  H     
39   H         9.0952   17.8269   -0.9068  H     
40   H         8.6718   18.5530    0.5431  H     
@<TRIPOS>BOND
     1    1    2 2
     2    1   11 1
     3    2    3 1
     4    3    4 2
     5    4    5 1
     6    4   10 1
     7    5    6 1
     8    6    9 2
     9    7    8 1
    10    7   13 1
    11    8    9 1
    12    8   18 1
    13    9   10 1
    14   10   11 2
    15   11   12 1
    16   12   13 2
    17   12   17 1
    18   13   14 1
    19   14   15 2
    20   15   16 1
    21   16   17 2
    22   18   19 2
    23   18   23 1
    24   19   20 1
    25   20   21 2
    26   21   22 1
    27   21   24 1
    28   22   23 2
    29    1   25 1
    30    2   26 1
    31    5   27 1
    32    6   28 1
    33    7   29 1
    34    8   30 1
    35   14   31 1
    36   15   32 1
    37   16   33 1
    38   17   34 1
    39   19   35 1
    40   20   36 1
    41   22   37 1
    42   23   38 1
    43   24   39 1
    44   24   40 1
@<TRIPOS>PROPERTY_DATA
  Total_Score	| 8.8332
  Crash		| -0.9277
  Polar		| 3.7317
  FragIndex	| 1
  FragRMSD	| 1.010

