@<TRIPOS>MOLECULE
BindingDB_50305193
 45 49 0 0 0
SMALL
NO_CHARGES


@<TRIPOS>ATOM
1    C        14.3216    9.5573    3.8261  C     
2    C        13.6436    8.6038    3.0395  C     
3    N        12.7307    8.9969    2.1182  N     
4    C        12.4903   10.3144    1.9332  C     
5    N        11.5937   10.9028    1.1373  N     
6    C        11.6945   12.2010    1.3001  C     
7    N        13.2669   13.8880    4.0005  N     
8    C        13.1861   13.8341    2.5545  C     
9    C        12.6538   12.5046    2.1946  C     
10   C        13.1608   11.3073    2.6442  C     
11   C        14.1018   10.9609    3.6468  C     
12   C        14.6948   11.9299    4.5403  C     
13   C        14.0796   13.1804    4.8349  C     
14   C        14.4700   13.9019    5.9963  C     
15   C        15.5853   13.5089    6.7444  C     
16   C        16.3225   12.3921    6.3420  C     
17   C        15.8713   11.6056    5.2687  C     
18   C        12.2573   14.9532    2.1575  C     
19   C        14.5363   14.0858    1.8885  C     
20   C        14.6227   14.2582    0.4777  C     
21   C        15.8629   14.4258   -0.1743  C     
22   C        17.0685   14.3414    0.5440  C     
23   C        17.0072   14.2428    1.9512  C     
24   C        15.7632   14.1691    2.6080  C     
25   O        12.3473   15.5219    0.9278  O     
26   O        11.2304   15.3610    2.9540  O     
27   C        10.2751   16.3749    2.6320  C     
28   O        18.2371   14.3192   -0.1605  O     
29   F        18.1055   14.2163    2.6564  F     
30   H        14.9259    9.2011    4.5659  H     
31   H        13.8052    7.6076    3.1924  H     
32   H        10.9676   10.4392    0.5556  H     
33   H        11.1559   12.8527    0.7833  H     
34   H        12.9240   14.7084    4.3909  H     
35   H        14.0128   14.7865    6.2424  H     
36   H        15.9033   14.0766    7.5305  H     
37   H        17.1541   12.1133    6.8663  H     
38   H        16.4291   10.7892    5.0260  H     
39   H        13.7720   14.2591   -0.1003  H     
40   H        15.8950   14.5583   -1.1915  H     
41   H        15.7567   14.1821    3.6258  H     
42   H        10.7739   17.3378    2.5080  H     
43   H         9.5578   16.4485    3.4472  H     
44   H         9.7381   16.1207    1.7172  H     
45   H        18.9236   14.0857    0.4922  H     
@<TRIPOS>BOND
     1    1    2 2
     2    1   11 1
     3    2    3 1
     4    3    4 2
     5    4    5 1
     6    4   10 1
     7    5    6 1
     8    6    9 2
     9    7    8 1
    10    7   13 1
    11    8    9 1
    12    8   18 1
    13    8   19 1
    14    9   10 1
    15   10   11 2
    16   11   12 1
    17   12   13 2
    18   12   17 1
    19   13   14 1
    20   14   15 2
    21   15   16 1
    22   16   17 2
    23   18   25 2
    24   18   26 1
    25   19   20 2
    26   19   24 1
    27   20   21 1
    28   21   22 2
    29   22   23 1
    30   22   28 1
    31   23   24 2
    32   23   29 1
    33   26   27 1
    34    1   30 1
    35    2   31 1
    36    5   32 1
    37    6   33 1
    38    7   34 1
    39   14   35 1
    40   15   36 1
    41   16   37 1
    42   17   38 1
    43   20   39 1
    44   21   40 1
    45   24   41 1
    46   27   42 1
    47   27   43 1
    48   27   44 1
    49   28   45 1
@<TRIPOS>PROPERTY_DATA
  Total_Score	| 2.2384
  Crash		| -4.8311
  Polar		| 1.6427
  FragIndex	| 1
  FragRMSD	| 1.027

