@<TRIPOS>MOLECULE
BindingDB_50305183
 37 41 0 0 0
SMALL
NO_CHARGES


@<TRIPOS>ATOM
1    C        12.3732   13.2590    2.7041  C     
2    C        11.3069   12.8108    1.8936  C     
3    N        11.1197   11.4868    1.6772  N     
4    C        11.9879   10.5973    2.2034  C     
5    N        11.9486    9.2681    2.1889  N     
6    C        12.9578    8.8203    2.8994  C     
7    N        14.8256   10.5676    5.2088  N     
8    C        15.0446    9.8587    3.9771  C     
9    C        13.7449    9.8257    3.3086  C     
10   C        13.0962   10.9860    2.9544  C     
11   C        13.3136   12.3525    3.2787  C     
12   C        14.2790   12.7911    4.2676  C     
13   C        14.7788   11.9225    5.2902  C     
14   C        15.3971   12.4565    6.4435  C     
15   C        15.6882   13.8256    6.5260  C     
16   C        15.3548   14.6706    5.4603  C     
17   C        14.6570   14.1597    4.3538  C     
18   C        15.9288    8.6580    4.2194  C     
19   C        17.1916    8.8523    4.8461  C     
20   C        18.0731    7.7752    5.0492  C     
21   N        17.7350    6.5381    4.6159  N     
22   C        16.5709    6.2986    3.9679  C     
23   C        15.6724    7.3533    3.7260  C     
24   H        12.3999   14.2583    2.9058  H     
25   H        10.6385   13.4784    1.5041  H     
26   H        11.2649    8.7340    1.7541  H     
27   H        13.0709    7.8645    3.1015  H     
28   H        15.0947   10.1021    6.0148  H     
29   H        15.6810   10.4791    3.3331  H     
30   H        15.7212   11.8419    7.1961  H     
31   H        16.1856   14.1985    7.3370  H     
32   H        15.5974   15.6633    5.5008  H     
33   H        14.4249   14.8199    3.6107  H     
34   H        17.4880    9.7813    5.1547  H     
35   H        18.9723    7.9194    5.5115  H     
36   H        16.3665    5.3567    3.6306  H     
37   H        14.8713    7.1495    3.1423  H     
@<TRIPOS>BOND
     1    1    2 2
     2    1   11 1
     3    2    3 1
     4    3    4 2
     5    4    5 1
     6    4   10 1
     7    5    6 1
     8    6    9 2
     9    7    8 1
    10    7   13 1
    11    8    9 1
    12    8   18 1
    13    9   10 1
    14   10   11 2
    15   11   12 1
    16   12   13 2
    17   12   17 1
    18   13   14 1
    19   14   15 2
    20   15   16 1
    21   16   17 2
    22   18   19 2
    23   18   23 1
    24   19   20 1
    25   20   21 2
    26   21   22 1
    27   22   23 2
    28    1   24 1
    29    2   25 1
    30    5   26 1
    31    6   27 1
    32    7   28 1
    33    8   29 1
    34   14   30 1
    35   15   31 1
    36   16   32 1
    37   17   33 1
    38   19   34 1
    39   20   35 1
    40   22   36 1
    41   23   37 1
@<TRIPOS>PROPERTY_DATA
  Total_Score	| 3.8777
  Crash		| -1.3551
  Polar		| 0.6343
  FragIndex	| 1
  FragRMSD	| 1.291

