@<TRIPOS>MOLECULE
BindingDB_50305148
 39 43 0 0 0
SMALL
NO_CHARGES


@<TRIPOS>ATOM
1    C        14.0965    9.7839    3.9166  C     
2    C        13.5926    8.7325    3.1193  C     
3    N        12.5810    8.9605    2.2453  N     
4    C        12.0722   10.2041    2.1156  C     
5    N        11.0856   10.6391    1.3315  N     
6    C        10.9459   11.9343    1.5209  C     
7    N        13.2538   14.0990    3.3070  N     
8    C        11.9119   13.6977    3.0201  C     
9    C        11.8298   12.3770    2.4262  C     
10   C        12.5436   11.2867    2.8566  C     
11   C        13.5539   11.1057    3.8408  C     
12   C        14.0703   12.1826    4.6647  C     
13   C        14.0453   13.5563    4.2692  C     
14   C        14.8425   14.5054    4.9481  C     
15   C        15.5641   14.1431    6.0950  C     
16   C        15.4856   12.8339    6.5877  C     
17   C        14.7419   11.8774    5.8820  C     
18   C        11.2717   14.8123    2.2543  C     
19   C        10.5744   15.8412    2.9345  C     
20   C         9.9905   16.9124    2.2320  C     
21   C        10.0959   16.9772    0.8278  C     
22   C        10.7988   15.9743    0.1363  C     
23   C        11.3855   14.9065    0.8442  C     
24   O         9.5808   18.0229    0.1356  O     
25   H        14.8851    9.5698    4.5271  H     
26   H        13.9878    7.7980    3.1972  H     
27   H        10.5438   10.0885    0.7345  H     
28   H        10.2422   12.4780    1.0817  H     
29   H        13.4800   15.0098    3.0506  H     
30   H        11.4061   13.6051    3.9813  H     
31   H        14.8551   15.4822    4.6562  H     
32   H        16.1200   14.8468    6.5996  H     
33   H        15.9793   12.5744    7.4435  H     
34   H        14.7024   10.9380    6.2802  H     
35   H        10.5010   15.8358    3.9514  H     
36   H         9.4999   17.6568    2.7480  H     
37   H        10.9087   16.0363   -0.8760  H     
38   H        11.8963   14.1907    0.3190  H     
39   H         8.8781   18.4233    0.7106  H     
@<TRIPOS>BOND
     1    1    2 2
     2    1   11 1
     3    2    3 1
     4    3    4 2
     5    4    5 1
     6    4   10 1
     7    5    6 1
     8    6    9 2
     9    7    8 1
    10    7   13 1
    11    8    9 1
    12    8   18 1
    13    9   10 1
    14   10   11 2
    15   11   12 1
    16   12   13 2
    17   12   17 1
    18   13   14 1
    19   14   15 2
    20   15   16 1
    21   16   17 2
    22   18   19 2
    23   18   23 1
    24   19   20 1
    25   20   21 2
    26   21   22 1
    27   21   24 1
    28   22   23 2
    29    1   25 1
    30    2   26 1
    31    5   27 1
    32    6   28 1
    33    7   29 1
    34    8   30 1
    35   14   31 1
    36   15   32 1
    37   16   33 1
    38   17   34 1
    39   19   35 1
    40   20   36 1
    41   22   37 1
    42   23   38 1
    43   24   39 1
@<TRIPOS>PROPERTY_DATA
  Total_Score	| 7.8578
  Crash		| -0.9602
  Polar		| 4.2246
  FragIndex	| 1
  FragRMSD	| 0.940

