@<TRIPOS>MOLECULE
BindingDB_50300196
 41 45 0 0 0
SMALL
NO_CHARGES


@<TRIPOS>ATOM
1    C        12.7642   13.8580    1.5206  C     
2    C        14.2337   13.9385    1.5677  C     
3    N        15.0710   13.8023    2.5825  N     
4    C        13.7078   11.3150    3.5559  C     
5    C        14.0672    9.9710    3.8565  C     
6    C        13.3680    8.8935    3.2746  C     
7    N        12.3182    9.1272    2.4483  N     
8    C        12.7035   11.5103    2.5731  C     
9    C        11.9824   10.3982    2.1281  C     
10   N        10.9608   10.8307    1.3911  N     
11   C        11.0442   12.1346    1.3006  C     
12   C        12.1412   12.5926    1.9265  C     
13   O        14.8227   14.2496    0.5393  O     
14   C        12.1021   15.0630    2.1119  C     
15   C        10.8949   15.5653    1.5590  C     
16   C        10.2734   16.7108    2.0852  C     
17   C        10.8602   17.3956    3.1635  C     
18   C        12.0391   16.8969    3.7437  C     
19   C        12.6433   15.7328    3.2333  C     
20   O        10.3142   18.5372    3.6471  O     
21   C        14.2046   12.3662    4.3845  C     
22   C        14.8459   13.5350    3.8902  C     
23   C        15.4613   14.4312    4.7944  C     
24   C        15.3975   14.2203    6.1809  C     
25   C        14.7184   13.1026    6.6826  C     
26   C        14.1199   12.1950    5.7937  C     
27   H        12.5491   13.9055    0.4424  H     
28   H        15.9892   14.0463    2.3800  H     
29   H        14.8057    9.7649    4.5348  H     
30   H        13.6163    7.9314    3.5092  H     
31   H        10.3004   10.2722    0.9533  H     
32   H        10.4682   12.6645    0.6886  H     
33   H        10.4610   15.1091    0.7522  H     
34   H         9.4091   17.0587    1.6637  H     
35   H        12.4581   17.3861    4.5358  H     
36   H        13.4781   15.3675    3.6899  H     
37   H         9.7352   18.8912    2.9428  H     
38   H        15.9647   15.2529    4.4472  H     
39   H        15.8438   14.8794    6.8229  H     
40   H        14.6697   12.9434    7.6923  H     
41   H        13.6362   11.3850    6.1935  H     
@<TRIPOS>BOND
     1    1    2 1
     2    1   12 1
     3    1   14 1
     4    2    3 1
     5    2   13 2
     6    3   22 1
     7    4    5 1
     8    4    8 2
     9    4   21 1
    10    5    6 2
    11    6    7 1
    12    7    9 2
    13    8    9 1
    14    8   12 1
    15    9   10 1
    16   10   11 1
    17   11   12 2
    18   14   15 2
    19   14   19 1
    20   15   16 1
    21   16   17 2
    22   17   18 1
    23   17   20 1
    24   18   19 2
    25   21   22 2
    26   21   26 1
    27   22   23 1
    28   23   24 2
    29   24   25 1
    30   25   26 2
    31    1   27 1
    32    3   28 1
    33    5   29 1
    34    6   30 1
    35   10   31 1
    36   11   32 1
    37   15   33 1
    38   16   34 1
    39   18   35 1
    40   19   36 1
    41   20   37 1
    42   23   38 1
    43   24   39 1
    44   25   40 1
    45   26   41 1
@<TRIPOS>PROPERTY_DATA
  Total_Score	| 8.0740
  Crash		| -1.0236
  Polar		| 3.2115
  FragIndex	| 1
  FragRMSD	| 1.003

