@<TRIPOS>MOLECULE
BindingDB_50305177
 39 43 0 0 0
SMALL
NO_CHARGES


@<TRIPOS>ATOM
1    C        13.9819    9.9078    3.9167  C     
2    C        13.4821    8.8260    3.1668  C     
3    N        12.4972    9.0232    2.2559  N     
4    C        12.0044   10.2662    2.0617  C     
5    N        11.0420   10.6729    1.2358  N     
6    C        10.9026   11.9777    1.3844  C     
7    N        13.1944   14.2120    3.1247  N     
8    C        11.8548   13.7942    2.8338  C     
9    C        11.7785   12.4521    2.2815  C     
10   C        12.4768   11.3785    2.7641  C     
11   C        13.4625   11.2339    3.7764  C     
12   C        13.9909   12.3323    4.5503  C     
13   C        13.9753   13.6901    4.1016  C     
14   C        14.7990   14.6537    4.7387  C     
15   C        15.5334   14.3369    5.8870  C     
16   C        15.4340   13.0540    6.4350  C     
17   C        14.6637   12.0773    5.7803  C     
18   C        11.1893   14.9053    2.0670  C     
19   C        11.4042   15.0553    0.6706  C     
20   C        10.7411   16.0720   -0.0591  C     
21   C         9.8953   16.9711    0.6003  C     
22   C         9.7470   16.8997    1.9971  C     
23   C        10.4119   15.8961    2.7209  C     
24   O        10.3130   15.9388    4.0684  O     
25   H        14.7493    9.6998    4.5553  H     
26   H        13.8579    7.8865    3.2881  H     
27   H        10.5074   10.1012    0.6552  H     
28   H        10.2012   12.4864    0.9066  H     
29   H        13.4167   15.1134    2.8487  H     
30   H        11.3438   13.7045    3.7930  H     
31   H        14.8228   15.6225    4.4026  H     
32   H        16.1045   15.0506    6.3519  H     
33   H        15.9291   12.8222    7.3001  H     
34   H        14.6157   11.1607    6.2271  H     
35   H        12.0028   14.4098    0.1536  H     
36   H        10.8710   16.1409   -1.0704  H     
37   H         9.4188   17.7162    0.0752  H     
38   H         9.1555   17.5824    2.4848  H     
39   H        11.0798   16.4882    4.3516  H     
@<TRIPOS>BOND
     1    1    2 2
     2    1   11 1
     3    2    3 1
     4    3    4 2
     5    4    5 1
     6    4   10 1
     7    5    6 1
     8    6    9 2
     9    7    8 1
    10    7   13 1
    11    8    9 1
    12    8   18 1
    13    9   10 1
    14   10   11 2
    15   11   12 1
    16   12   13 2
    17   12   17 1
    18   13   14 1
    19   14   15 2
    20   15   16 1
    21   16   17 2
    22   18   19 2
    23   18   23 1
    24   19   20 1
    25   20   21 2
    26   21   22 1
    27   22   23 2
    28   23   24 1
    29    1   25 1
    30    2   26 1
    31    5   27 1
    32    6   28 1
    33    7   29 1
    34    8   30 1
    35   14   31 1
    36   15   32 1
    37   16   33 1
    38   17   34 1
    39   19   35 1
    40   20   36 1
    41   21   37 1
    42   22   38 1
    43   24   39 1
@<TRIPOS>PROPERTY_DATA
  Total_Score	| 6.9465
  Crash		| -0.6378
  Polar		| 2.1546
  FragIndex	| 1
  FragRMSD	| 0.972

