@<TRIPOS>MOLECULE
BindingDB_50305194
 45 49 0 0 0
SMALL
NO_CHARGES


@<TRIPOS>ATOM
1    C        14.2822    9.4576    4.0323  C     
2    C        13.6913    8.4984    3.1821  C     
3    N        12.8135    8.8657    2.2203  N     
4    C        12.5445   10.1767    2.0464  C     
5    N        11.7334   10.7416    1.1596  N     
6    C        11.8557   12.0363    1.2767  C     
7    N        13.3553   13.8537    4.0316  N     
8    C        13.2059   13.7203    2.6085  C     
9    C        12.7162   12.3739    2.2571  C     
10   C        13.1453   11.1877    2.8104  C     
11   C        14.0378   10.8554    3.8718  C     
12   C        14.6403   11.8374    4.7517  C     
13   C        14.1539   13.1719    4.8930  C     
14   C        14.6530   14.0040    5.9235  C     
15   C        15.7623   13.6118    6.6941  C     
16   C        16.3548   12.3740    6.4518  C     
17   C        15.8081   11.5068    5.4989  C     
18   C        12.1448   14.7331    2.2249  C     
19   C        14.5731   14.0585    1.9833  C     
20   C        14.7031   14.4719    0.6273  C     
21   C        15.9508   14.5626   -0.0226  C     
22   C        17.1331   14.4152    0.7239  C     
23   C        17.0475   14.2854    2.1090  C     
24   C        15.7990   14.0578    2.7111  C     
25   O        11.9329   15.0005    0.9060  O     
26   O        11.4806   15.4927    3.1501  O     
27   C        10.5851   16.5705    2.8978  C     
28   O        18.3406   14.2612    0.1318  O     
29   H        14.8885    9.0891    4.7678  H     
30   H        13.9138    7.5119    3.2980  H     
31   H        11.1771   10.2736    0.5126  H     
32   H        11.3763   12.6454    0.6651  H     
33   H        13.0864   14.7171    4.3676  H     
34   H        14.2902   14.9505    6.0591  H     
35   H        16.1578   14.2569    7.3819  H     
36   H        17.1924   12.1065    6.9778  H     
37   H        16.3046   10.6306    5.3632  H     
38   H        13.8665   14.6584    0.0676  H     
39   H        15.9910   14.7230   -1.0329  H     
40   H        17.9018   14.2356    2.6727  H     
41   H        15.8339   13.8206    3.6897  H     
42   H        11.0928   17.3698    2.3557  H     
43   H        10.2236   16.9618    3.8535  H     
44   H         9.7388   16.2275    2.3149  H     
45   H        18.7023   13.4800    0.5881  H     
@<TRIPOS>BOND
     1    1    2 2
     2    1   11 1
     3    2    3 1
     4    3    4 2
     5    4    5 1
     6    4   10 1
     7    5    6 1
     8    6    9 2
     9    7    8 1
    10    7   13 1
    11    8    9 1
    12    8   18 1
    13    8   19 1
    14    9   10 1
    15   10   11 2
    16   11   12 1
    17   12   13 2
    18   12   17 1
    19   13   14 1
    20   14   15 2
    21   15   16 1
    22   16   17 2
    23   18   25 2
    24   18   26 1
    25   19   20 2
    26   19   24 1
    27   20   21 1
    28   21   22 2
    29   22   23 1
    30   22   28 1
    31   23   24 2
    32   26   27 1
    33    1   29 1
    34    2   30 1
    35    5   31 1
    36    6   32 1
    37    7   33 1
    38   14   34 1
    39   15   35 1
    40   16   36 1
    41   17   37 1
    42   20   38 1
    43   21   39 1
    44   23   40 1
    45   24   41 1
    46   27   42 1
    47   27   43 1
    48   27   44 1
    49   28   45 1
@<TRIPOS>PROPERTY_DATA
  Total_Score	| 2.5340
  Crash		| -4.3842
  Polar		| 1.5090
  FragIndex	| 1
  FragRMSD	| 1.013

