@<TRIPOS>MOLECULE
BindingDB_50305153
 39 43 0 0 0
SMALL
NO_CHARGES


@<TRIPOS>ATOM
1    C        12.3642   13.1220    3.1640  C     
2    C        11.2394   12.7357    2.4069  C     
3    N        11.0669   11.4450    2.0420  N     
4    C        11.9837   10.5243    2.4028  C     
5    N        11.9984    9.2185    2.1589  N     
6    C        13.0853    8.7091    2.6949  C     
7    N        15.0326   10.3018    5.2069  N     
8    C        15.1411    9.6419    3.9325  C     
9    C        13.8132    9.6526    3.3132  C     
10   C        13.1245   10.8378    3.1407  C     
11   C        13.3624   12.1791    3.5522  C     
12   C        14.4502   12.5673    4.4211  C     
13   C        15.0568   11.6524    5.3358  C     
14   C        15.8646   12.1288    6.3929  C     
15   C        16.2229   13.4836    6.4612  C     
16   C        15.7637   14.3730    5.4814  C     
17   C        14.8825   13.9213    4.4843  C     
18   C        16.0605    8.4629    4.1511  C     
19   C        15.8100    7.1172    3.7828  C     
20   C        16.7451    6.0929    4.0215  C     
21   C        17.9616    6.3765    4.6666  C     
22   C        18.2313    7.6977    5.0741  C     
23   C        17.2983    8.7173    4.8063  C     
24   O        18.8706    5.3912    4.8881  O     
25   Br       19.8249    8.1315    5.9318  Br    
26   H        12.4038   14.0969    3.4632  H     
27   H        10.5323   13.4250    2.1469  H     
28   H        11.3251    8.7433    1.6449  H     
29   H        13.3120    7.7575    2.5867  H     
30   H        15.3738    9.8009    5.9633  H     
31   H        15.7245   10.2787    3.2535  H     
32   H        16.2795   11.4798    7.0675  H     
33   H        16.8592   13.8122    7.1912  H     
34   H        16.0547   15.3536    5.5054  H     
35   H        14.5639   14.6095    3.8000  H     
36   H        14.9423    6.8423    3.3483  H     
37   H        16.5311    5.1358    3.7294  H     
38   H        17.5339    9.6691    5.0972  H     
39   H        18.6422    4.6462    4.2720  H     
@<TRIPOS>BOND
     1    1    2 2
     2    1   11 1
     3    2    3 1
     4    3    4 2
     5    4    5 1
     6    4   10 1
     7    5    6 1
     8    6    9 2
     9    7    8 1
    10    7   13 1
    11    8    9 1
    12    8   18 1
    13    9   10 1
    14   10   11 2
    15   11   12 1
    16   12   13 2
    17   12   17 1
    18   13   14 1
    19   14   15 2
    20   15   16 1
    21   16   17 2
    22   18   19 2
    23   18   23 1
    24   19   20 1
    25   20   21 2
    26   21   22 1
    27   21   24 1
    28   22   23 2
    29   22   25 1
    30    1   26 1
    31    2   27 1
    32    5   28 1
    33    6   29 1
    34    7   30 1
    35    8   31 1
    36   14   32 1
    37   15   33 1
    38   16   34 1
    39   17   35 1
    40   19   36 1
    41   20   37 1
    42   23   38 1
    43   24   39 1
@<TRIPOS>PROPERTY_DATA
  Total_Score	| 4.4064
  Crash		| -1.6449
  Polar		| 1.4900
  FragIndex	| 1
  FragRMSD	| 1.233

