@<TRIPOS>MOLECULE
BindingDB_50305152
 39 43 0 0 0
SMALL
NO_CHARGES


@<TRIPOS>ATOM
1    C        12.4420   13.1727    2.9613  C     
2    C        11.3414   12.7910    2.1669  C     
3    N        11.1351   11.4895    1.8590  N     
4    C        12.0106   10.5601    2.2922  C     
5    N        11.9636    9.2425    2.1477  N     
6    C        12.9995    8.7237    2.7668  C     
7    N        14.9603   10.3250    5.1953  N     
8    C        15.1222    9.6675    3.9240  C     
9    C        13.7940    9.6736    3.2903  C     
10   C        13.1450   10.8706    3.0432  C     
11   C        13.3938   12.2170    3.4307  C     
12   C        14.4220   12.5962    4.3752  C     
13   C        14.9457   11.6774    5.3374  C     
14   C        15.6402   12.1578    6.4705  C     
15   C        15.9960   13.5100    6.5709  C     
16   C        15.6372   14.3989    5.5498  C     
17   C        14.8547   13.9478    4.4752  C     
18   C        16.0828    8.5130    4.1534  C     
19   C        15.8106    7.1663    3.8001  C     
20   C        16.7093    6.1167    4.0531  C     
21   C        17.9375    6.3750    4.6780  C     
22   C        18.2590    7.6954    5.0278  C     
23   C        17.3689    8.7542    4.7423  C     
24   O        18.8296    5.3781    4.9172  O     
25   Cl       17.9830   10.3052    5.0727  Cl    
26   H        12.4910   14.1552    3.2304  H     
27   H        10.6663   13.4900    1.8528  H     
28   H        11.2656    8.7584    1.6748  H     
29   H        13.1119    7.7528    2.8001  H     
30   H        15.2704    9.8225    5.9652  H     
31   H        15.7053   10.3137    3.2557  H     
32   H        15.9932   11.5101    7.1804  H     
33   H        16.5609   13.8362    7.3568  H     
34   H        15.9287   15.3771    5.5998  H     
35   H        14.6045   14.6361    3.7640  H     
36   H        14.9645    6.9037    3.3298  H     
37   H        16.4656    5.1608    3.7799  H     
38   H        19.1702    7.8837    5.4555  H     
39   H        18.6188    4.6607    4.2767  H     
@<TRIPOS>BOND
     1    1    2 2
     2    1   11 1
     3    2    3 1
     4    3    4 2
     5    4    5 1
     6    4   10 1
     7    5    6 1
     8    6    9 2
     9    7    8 1
    10    7   13 1
    11    8    9 1
    12    8   18 1
    13    9   10 1
    14   10   11 2
    15   11   12 1
    16   12   13 2
    17   12   17 1
    18   13   14 1
    19   14   15 2
    20   15   16 1
    21   16   17 2
    22   18   19 2
    23   18   23 1
    24   19   20 1
    25   20   21 2
    26   21   22 1
    27   21   24 1
    28   22   23 2
    29   23   25 1
    30    1   26 1
    31    2   27 1
    32    5   28 1
    33    6   29 1
    34    7   30 1
    35    8   31 1
    36   14   32 1
    37   15   33 1
    38   16   34 1
    39   17   35 1
    40   19   36 1
    41   20   37 1
    42   22   38 1
    43   24   39 1
@<TRIPOS>PROPERTY_DATA
  Total_Score	| 4.2550
  Crash		| -1.6221
  Polar		| 1.5370
  FragIndex	| 1
  FragRMSD	| 1.228

