@<TRIPOS>MOLECULE
BindingDB_50305149
 39 43 0 0 0
SMALL
NO_CHARGES


@<TRIPOS>ATOM
1    C        12.4726   13.1707    3.0102  C     
2    C        11.3591   12.7887    2.2331  C     
3    N        11.1482   11.4883    1.9256  N     
4    C        12.0282   10.5572    2.3468  C     
5    N        11.9801    9.2385    2.2000  N     
6    C        13.0224    8.7189    2.8076  C     
7    N        14.9870   10.3338    5.2303  N     
8    C        15.1365    9.6515    3.9700  C     
9    C        13.8159    9.6693    3.3288  C     
10   C        13.1707   10.8674    3.0853  C     
11   C        13.4309   12.2145    3.4638  C     
12   C        14.4837   12.5965    4.3795  C     
13   C        15.0219   11.6871    5.3423  C     
14   C        15.7656   12.1713    6.4424  C     
15   C        16.1310   13.5233    6.5169  C     
16   C        15.7484   14.4024    5.4958  C     
17   C        14.9322   13.9446    4.4487  C     
18   C        16.0604    8.4744    4.2008  C     
19   C        15.8207    7.1302    3.8216  C     
20   C        16.7627    6.1092    4.0444  C     
21   C        17.9973    6.3987    4.6493  C     
22   C        18.2758    7.7225    5.0334  C     
23   C        17.3275    8.7372    4.7971  C     
24   O        18.9177    5.4176    4.8499  O     
25   F        19.4200    8.0220    5.5873  F     
26   H        12.5286   14.1538    3.2777  H     
27   H        10.6802   13.4886    1.9277  H     
28   H        11.2786    8.7547    1.7327  H     
29   H        13.1454    7.7478    2.8373  H     
30   H        15.2869    9.8392    6.0086  H     
31   H        15.7444   10.2791    3.3045  H     
32   H        16.1288   11.5289    7.1520  H     
33   H        16.7176   13.8557    7.2849  H     
34   H        16.0446   15.3808    5.5265  H     
35   H        14.6676   14.6256    3.7351  H     
36   H        14.9751    6.8542    3.3522  H     
37   H        16.5471    5.1523    3.7562  H     
38   H        17.5758    9.6936    5.0658  H     
39   H        18.7292    4.7208    4.1841  H     
@<TRIPOS>BOND
     1    1    2 2
     2    1   11 1
     3    2    3 1
     4    3    4 2
     5    4    5 1
     6    4   10 1
     7    5    6 1
     8    6    9 2
     9    7    8 1
    10    7   13 1
    11    8    9 1
    12    8   18 1
    13    9   10 1
    14   10   11 2
    15   11   12 1
    16   12   13 2
    17   12   17 1
    18   13   14 1
    19   14   15 2
    20   15   16 1
    21   16   17 2
    22   18   19 2
    23   18   23 1
    24   19   20 1
    25   20   21 2
    26   21   22 1
    27   21   24 1
    28   22   23 2
    29   22   25 1
    30    1   26 1
    31    2   27 1
    32    5   28 1
    33    6   29 1
    34    7   30 1
    35    8   31 1
    36   14   32 1
    37   15   33 1
    38   16   34 1
    39   17   35 1
    40   19   36 1
    41   20   37 1
    42   23   38 1
    43   24   39 1
@<TRIPOS>PROPERTY_DATA
  Total_Score	| 4.3937
  Crash		| -1.4338
  Polar		| 1.4149
  FragIndex	| 1
  FragRMSD	| 1.228

