@<TRIPOS>MOLECULE
BindingDB_50305178
 42 46 0 0 0
SMALL
NO_CHARGES


@<TRIPOS>ATOM
1    C        13.9609    9.8374    3.8938  C     
2    C        13.4620    8.7854    3.0901  C     
3    N        12.5180    9.0297    2.1438  N     
4    C        12.0558   10.2896    1.9659  C     
5    N        11.1483   10.7605    1.1038  N     
6    C        11.0308   12.0703    1.2925  C     
7    N        13.3009   14.1451    3.1514  N     
8    C        11.9444   13.7818    2.8749  C     
9    C        11.8428   12.4642    2.2804  C     
10   C        12.5090   11.3590    2.7400  C     
11   C        13.4634   11.1680    3.7709  C     
12   C        13.9586   12.2417    4.6004  C     
13   C        14.0257   13.6029    4.1586  C     
14   C        14.8002   14.5425    4.8768  C     
15   C        15.3714   14.2061    6.1150  C     
16   C        15.1796   12.9209    6.6408  C     
17   C        14.4935   11.9539    5.8859  C     
18   C        11.3003   14.9346    2.1649  C     
19   C        10.5788   15.9138    2.8937  C     
20   C         9.9718   16.9949    2.2350  C     
21   C        10.0427   17.1056    0.8259  C     
22   C        10.8008   16.1629    0.0975  C     
23   C        11.4258   15.0845    0.7597  C     
24   O         9.4660   18.1644    0.1827  O     
25   C         8.0327   18.0445    0.0850  C     
26   H        14.7078    9.6026    4.5553  H     
27   H        13.8150    7.8331    3.2085  H     
28   H        10.6332   10.2258    0.4730  H     
29   H        10.4347   12.6706    0.7812  H     
30   H        13.5658   15.0444    2.8868  H     
31   H        11.4393   13.6733    3.8400  H     
32   H        14.8837   15.5091    4.5510  H     
33   H        15.8781   14.9128    6.6578  H     
34   H        15.5602   12.6811    7.5641  H     
35   H        14.3890   11.0236    6.3034  H     
36   H        10.4996   15.8425    3.9111  H     
37   H         9.4652   17.7031    2.7872  H     
38   H        10.8903   16.2639   -0.9145  H     
39   H        11.9021   14.3469    0.2209  H     
40   H         7.5668   18.0014    1.0717  H     
41   H         7.7541   17.1607   -0.4873  H     
42   H         7.6462   18.9182   -0.4320  H     
@<TRIPOS>BOND
     1    1    2 2
     2    1   11 1
     3    2    3 1
     4    3    4 2
     5    4    5 1
     6    4   10 1
     7    5    6 1
     8    6    9 2
     9    7    8 1
    10    7   13 1
    11    8    9 1
    12    8   18 1
    13    9   10 1
    14   10   11 2
    15   11   12 1
    16   12   13 2
    17   12   17 1
    18   13   14 1
    19   14   15 2
    20   15   16 1
    21   16   17 2
    22   18   19 2
    23   18   23 1
    24   19   20 1
    25   20   21 2
    26   21   22 1
    27   21   24 1
    28   22   23 2
    29   24   25 1
    30    1   26 1
    31    2   27 1
    32    5   28 1
    33    6   29 1
    34    7   30 1
    35    8   31 1
    36   14   32 1
    37   15   33 1
    38   16   34 1
    39   17   35 1
    40   19   36 1
    41   20   37 1
    42   22   38 1
    43   23   39 1
    44   25   40 1
    45   25   41 1
    46   25   42 1
@<TRIPOS>PROPERTY_DATA
  Total_Score	| 8.0787
  Crash		| -1.4616
  Polar		| 3.1387
  FragIndex	| 1
  FragRMSD	| 0.936

