@<TRIPOS>MOLECULE
BindingDB_50305150
 39 43 0 0 0
SMALL
NO_CHARGES


@<TRIPOS>ATOM
1    C        12.3568   13.1421    3.0933  C     
2    C        11.2376   12.7605    2.3229  C     
3    N        11.0455   11.4648    1.9837  N     
4    C        11.9447   10.5381    2.3754  C     
5    N        11.9301    9.2251    2.1734  N     
6    C        13.0002    8.7077    2.7327  C     
7    N        14.9683   10.2982    5.2006  N     
8    C        15.0884    9.6378    3.9259  C     
9    C        13.7580    9.6528    3.3120  C     
10   C        13.0874   10.8461    3.1136  C     
11   C        13.3363   12.1904    3.5116  C     
12   C        14.4083   12.5702    4.4052  C     
13   C        14.9864   11.6500    5.3341  C     
14   C        15.7575   12.1239    6.4197  C     
15   C        16.1139   13.4792    6.5028  C     
16   C        15.6910   14.3709    5.5095  C     
17   C        14.8440   13.9224    4.4826  C     
18   C        16.0185    8.4638    4.1476  C     
19   C        15.7552    7.1184    3.7800  C     
20   C        16.6683    6.0785    4.0372  C     
21   C        17.8843    6.3482    4.6878  C     
22   C        18.1807    7.6676    5.0660  C     
23   C        17.2728    8.7087    4.7880  C     
24   O        18.7853    5.3641    4.9439  O     
25   F        17.6454    9.9149    5.1384  F     
26   H        12.4023   14.1201    3.3831  H     
27   H        10.5443   13.4574    2.0421  H     
28   H        11.2430    8.7494    1.6780  H     
29   H        13.1943    7.7501    2.6525  H     
30   H        15.2996    9.7954    5.9618  H     
31   H        15.6688   10.2758    3.2462  H     
32   H        16.1491   11.4735    7.1075  H     
33   H        16.7229   13.8052    7.2561  H     
34   H        15.9785   15.3515    5.5465  H     
35   H        14.5480   14.6121    3.7896  H     
36   H        14.8972    6.8500    3.3260  H     
37   H        16.4403    5.1213    3.7518  H     
38   H        19.0702    7.8728    5.5301  H     
39   H        18.6353    4.6637    4.2675  H     
@<TRIPOS>BOND
     1    1    2 2
     2    1   11 1
     3    2    3 1
     4    3    4 2
     5    4    5 1
     6    4   10 1
     7    5    6 1
     8    6    9 2
     9    7    8 1
    10    7   13 1
    11    8    9 1
    12    8   18 1
    13    9   10 1
    14   10   11 2
    15   11   12 1
    16   12   13 2
    17   12   17 1
    18   13   14 1
    19   14   15 2
    20   15   16 1
    21   16   17 2
    22   18   19 2
    23   18   23 1
    24   19   20 1
    25   20   21 2
    26   21   22 1
    27   21   24 1
    28   22   23 2
    29   23   25 1
    30    1   26 1
    31    2   27 1
    32    5   28 1
    33    6   29 1
    34    7   30 1
    35    8   31 1
    36   14   32 1
    37   15   33 1
    38   16   34 1
    39   17   35 1
    40   19   36 1
    41   20   37 1
    42   22   38 1
    43   24   39 1
@<TRIPOS>PROPERTY_DATA
  Total_Score	| 4.0928
  Crash		| -1.6065
  Polar		| 1.5620
  FragIndex	| 1
  FragRMSD	| 1.230

