@<TRIPOS>MOLECULE
BindingDB_50195206
 57 61 0 0 0
SMALL
NO_CHARGES


@<TRIPOS>ATOM
1    C        12.9935   -2.3811   12.3344  C     
2    C        12.2184   -1.3834   11.7163  C     
3    C        12.7854   -0.5568   10.7287  C     
4    C        14.3439   -2.5536   11.9740  C     
5    C        14.9284   -1.7226   10.9906  C     
6    C        14.1373   -0.7225   10.3688  C     
7    N        14.7240    0.0718    9.4257  N     
8    C        16.0038   -0.0576    9.0849  C     
9    C        16.8300   -1.0145    9.6685  C     
10   C        16.2680   -1.8251   10.6084  C     
11   O        16.3908    0.7490    8.2527  O     
12   C        18.1922   -1.1474    9.3169  C     
13   N        18.8914   -0.2884    8.5329  N     
14   C        19.0959   -2.1645    9.6742  C     
15   C        20.3179   -1.8894    9.0819  C     
16   C        20.1561   -0.7006    8.3815  C     
17   C        21.2173   -0.1263    7.6679  C     
18   C        22.4509   -0.8068    7.6374  C     
19   C        22.6181   -2.0517    8.3040  C     
20   C        21.5445   -2.5769    9.0675  C     
21   C        23.8935   -2.8188    8.1767  C     
22   N        23.8984   -4.0363    7.2782  N     
23   C        24.2818   -5.3082    7.9687  C     
24   C        24.5594   -6.4497    6.9580  C     
25   C        23.3723   -6.6800    5.9758  C     
26   C        22.9303   -5.3338    5.3322  C     
27   C        22.6985   -4.2321    6.3997  C     
28   C        23.7607   -7.7629    4.9183  C     
29   N        22.7931   -7.9026    3.8218  N     
30   H        12.5762   -2.9801   13.0506  H     
31   H        11.2441   -1.2523   11.9935  H     
32   H        12.2147    0.1676   10.2827  H     
33   H        14.8946   -3.2815   12.4354  H     
34   H        14.1903    0.7596    8.9932  H     
35   H        16.8186   -2.5097   11.0692  H     
36   H        18.5398    0.5180    8.1253  H     
37   H        18.9110   -2.9822   10.2580  H     
38   H        21.0897    0.7501    7.1614  H     
39   H        23.2095   -0.4155    7.0754  H     
40   H        21.6356   -3.4669    9.5632  H     
41   H        24.6661   -2.1569    7.7752  H     
42   H        24.2339   -3.0610    9.1891  H     
43   H        24.6622   -3.8628    6.6234  H     
44   H        25.2011   -5.1545    8.5406  H     
45   H        23.4972   -5.6156    8.6659  H     
46   H        25.4591   -6.1985    6.3876  H     
47   H        24.7611   -7.3731    7.5076  H     
48   H        22.5265   -7.0707    6.5539  H     
49   H        23.6913   -4.9974    4.6246  H     
50   H        21.9977   -5.4894    4.7819  H     
51   H        21.8283   -4.5079    6.9999  H     
52   H        22.4640   -3.3058    5.8702  H     
53   H        24.7282   -7.5199    4.4697  H     
54   H        23.8517   -8.7361    5.4138  H     
55   H        21.8565   -8.0506    4.1999  H     
56   H        23.0543   -8.7014    3.2419  H     
57   H        22.8027   -7.0511    3.2509  H     
@<TRIPOS>BOND
     1    1    2 2
     2    1    4 1
     3    2    3 1
     4    3    6 2
     5    4    5 2
     6    5    6 1
     7    5   10 1
     8    6    7 1
     9    7    8 1
    10    8    9 1
    11    8   11 2
    12    9   10 2
    13    9   12 1
    14   12   13 1
    15   12   14 2
    16   13   16 1
    17   14   15 1
    18   15   16 2
    19   15   20 1
    20   16   17 1
    21   17   18 2
    22   18   19 1
    23   19   20 2
    24   19   21 1
    25   21   22 1
    26   22   23 1
    27   22   27 1
    28   23   24 1
    29   24   25 1
    30   25   26 1
    31   25   28 1
    32   26   27 1
    33   28   29 1
    34    1   30 1
    35    2   31 1
    36    3   32 1
    37    4   33 1
    38    7   34 1
    39   10   35 1
    40   13   36 1
    41   14   37 1
    42   17   38 1
    43   18   39 1
    44   20   40 1
    45   21   41 1
    46   21   42 1
    47   22   43 1
    48   23   44 1
    49   23   45 1
    50   24   46 1
    51   24   47 1
    52   25   48 1
    53   26   49 1
    54   26   50 1
    55   27   51 1
    56   27   52 1
    57   28   53 1
    58   28   54 1
    59   29   55 1
    60   29   56 1
    61   29   57 1
@<TRIPOS>PROPERTY_DATA
  Total_Score	| 8.8482
  Crash		| -0.5441
  Polar		| 4.6814
  FragIndex	| 1
  FragRMSD	| 0.178

