@<TRIPOS>MOLECULE
BindingDB_13438
 43 44 0 0 0
SMALL
NO_CHARGES


@<TRIPOS>ATOM
1    C        43.9882   13.6071   15.9493  C     
2    C        43.4071   14.7092   15.2955  C     
3    C        42.3678   14.5195   14.3632  C     
4    C        41.8818   13.2176   14.1243  C     
5    N        41.8807   15.6010   13.7187  N     
6    O        41.0523   16.8258   11.3793  O     
7    S        42.2283   15.8434   12.0839  S     
8    O        43.6668   16.7064   11.9969  O     
9    O        42.4028   14.3856   11.2173  O     
10   C        42.4057   12.1165   14.8333  C     
11   C        43.4868   12.3076   15.7159  C     
12   C        41.7831   10.7861   14.6807  C     
13   C        44.1014   11.1309   16.3623  C     
14   C        43.0631   10.0346   16.7330  C     
15   N        42.1324    9.7312   15.6320  N     
16   C        42.3172   10.3619   17.9529  C     
17   O        42.5266    9.7065   18.9686  O     
18   N        41.4266   11.3485   17.9724  N     
19   C        40.5976   11.6994   19.0780  C     
20   C        41.5411    8.5117   15.5583  C     
21   O        41.8532    7.6284   16.3566  O     
22   C        39.7382    6.7727   14.6756  C     
23   C        40.4381    8.1822   14.6231  C     
24   C        38.2773    6.7826   14.4234  C     
25   O        37.6897    7.8172   13.7842  O     
26   O        37.4707    5.8647   15.0233  O     
27   H        44.7845   13.7463   16.5726  H     
28   H        43.7774   15.6499   15.4855  H     
29   H        41.1090   13.0976   13.4631  H     
30   H        41.7553   16.4088   14.2595  H     
31   H        40.7166   10.9490   14.7612  H     
32   H        42.0356   10.4434   13.6757  H     
33   H        44.8078   10.7064   15.6499  H     
34   H        44.6653   11.4224   17.2539  H     
35   H        43.6836    9.1488   16.9384  H     
36   H        41.2988   11.8579   17.1548  H     
37   H        39.9849   10.8455   19.3700  H     
38   H        39.9409   12.5153   18.7821  H     
39   H        41.2049   12.0210   19.9251  H     
40   H        40.1952    6.1064   13.9325  H     
41   H        39.8855    6.3199   15.6594  H     
42   H        39.6742    8.9404   14.8055  H     
43   H        40.8022    8.3119   13.5858  H     
@<TRIPOS>BOND
     1    1    2 1
     2    1   11 2
     3    2    3 2
     4    3    4 1
     5    3    5 1
     6    4   10 2
     7    5    7 1
     8    6    7 1
     9    7    8 2
    10    7    9 2
    11   10   11 1
    12   10   12 1
    13   11   13 1
    14   12   15 1
    15   13   14 1
    16   14   15 1
    17   14   16 1
    18   15   20 am
    19   16   17 2
    20   16   18 am
    21   18   19 1
    22   20   21 2
    23   20   23 1
    24   22   23 1
    25   22   24 1
    26   24   25 2
    27   24   26 1
    28    1   27 1
    29    2   28 1
    30    4   29 1
    31    5   30 1
    32   12   31 1
    33   12   32 1
    34   13   33 1
    35   13   34 1
    36   14   35 1
    37   18   36 1
    38   19   37 1
    39   19   38 1
    40   19   39 1
    41   22   40 1
    42   22   41 1
    43   23   42 1
    44   23   43 1
@<TRIPOS>PROPERTY_DATA
  Total_Score	| 10.7690
  Crash		| -1.1260
  Polar		| 7.1427
  FragIndex	| 1
  FragRMSD	| 0.812

