@<TRIPOS>MOLECULE
BindingDB_13455
 54 56 0 0 0
SMALL
NO_CHARGES


@<TRIPOS>ATOM
1    C        43.9284   13.6421   15.9329  C     
2    C        43.3703   14.7112   15.2132  C     
3    C        42.3515   14.4797   14.2686  C     
4    C        41.8737   13.1638   14.0763  C     
5    N        41.8235   15.5401   13.6124  N     
6    O        41.0365   16.7850   11.2780  O     
7    S        42.2148   15.8134   11.9955  S     
8    O        43.6541   16.6942   11.9830  O     
9    O        42.4080   14.3939   11.1032  O     
10   C        42.3850   12.0878   14.8385  C     
11   C        43.4455   12.3277   15.7405  C     
12   C        41.8041   10.7255   14.6942  C     
13   C        44.0864   11.1676   16.3929  C     
14   C        43.0779   10.0441   16.7632  C     
15   N        42.1588    9.6998   15.6725  N     
16   C        42.3371   10.3497   17.9916  C     
17   O        42.5957    9.7219   19.0128  O     
18   N        41.3938   11.2833   17.9970  N     
19   C        40.6060   11.6596   19.1208  C     
20   C        41.5980    8.4637   15.6161  C     
21   O        41.8475    7.6651   16.5125  O     
22   C        40.5215    8.0504   14.7009  C     
23   C        40.3662    6.5214   14.4097  C     
24   C        38.9998    6.1807   13.9272  C     
25   C        36.6624    5.6396   14.4291  C     
26   C        37.9629    5.9539   14.8612  C     
27   C        38.6996    6.0922   12.5497  C     
28   C        37.3948    5.7817   12.1183  C     
29   C        36.3599    5.5514   13.0535  C     
30   C        34.9800    5.2228   12.6345  C     
31   H        44.7061   13.8216   16.5728  H     
32   H        43.7272   15.6577   15.3637  H     
33   H        41.1171   12.9965   13.4044  H     
34   H        41.6655   16.3425   14.1435  H     
35   H        40.7157   10.8465   14.7181  H     
36   H        42.0955   10.3824   13.6996  H     
37   H        44.7972   10.7583   15.6688  H     
38   H        44.6607   11.4658   17.2773  H     
39   H        43.7223    9.1750   16.9558  H     
40   H        41.2091   11.7421   17.1630  H     
41   H        40.0435   10.8028   19.5005  H     
42   H        39.9011   12.4336   18.8165  H     
43   H        41.2407   12.0565   19.9165  H     
44   H        39.5929    8.4338   15.1355  H     
45   H        40.6447    8.5264   13.7291  H     
46   H        41.1202    6.2169   13.6762  H     
47   H        40.5594    5.9349   15.3128  H     
48   H        35.9354    5.4777   15.1315  H     
49   H        38.1488    6.0174   15.8650  H     
50   H        39.4287    6.2532   11.8491  H     
51   H        37.2046    5.7204   11.1186  H     
52   H        34.6910    4.2543   13.0459  H     
53   H        34.8845    5.1718   11.5505  H     
54   H        34.2914    5.9846   13.0065  H     
@<TRIPOS>BOND
     1    1    2 1
     2    1   11 2
     3    2    3 2
     4    3    4 1
     5    3    5 1
     6    4   10 2
     7    5    7 1
     8    6    7 1
     9    7    8 2
    10    7    9 2
    11   10   11 1
    12   10   12 1
    13   11   13 1
    14   12   15 1
    15   13   14 1
    16   14   15 1
    17   14   16 1
    18   15   20 am
    19   16   17 2
    20   16   18 am
    21   18   19 1
    22   20   21 2
    23   20   22 1
    24   22   23 1
    25   23   24 1
    26   24   26 2
    27   24   27 1
    28   25   26 1
    29   25   29 2
    30   27   28 2
    31   28   29 1
    32   29   30 1
    33    1   31 1
    34    2   32 1
    35    4   33 1
    36    5   34 1
    37   12   35 1
    38   12   36 1
    39   13   37 1
    40   13   38 1
    41   14   39 1
    42   18   40 1
    43   19   41 1
    44   19   42 1
    45   19   43 1
    46   22   44 1
    47   22   45 1
    48   23   46 1
    49   23   47 1
    50   25   48 1
    51   26   49 1
    52   27   50 1
    53   28   51 1
    54   30   52 1
    55   30   53 1
    56   30   54 1
@<TRIPOS>PROPERTY_DATA
  Total_Score	| 11.7982
  Crash		| -1.2838
  Polar		| 5.8755
  FragIndex	| 1
  FragRMSD	| 0.931

