@<TRIPOS>MOLECULE
BindingDB_13436
 54 56 0 0 0
SMALL
NO_CHARGES


@<TRIPOS>ATOM
1    C        44.0280   13.5350   15.8902  C     
2    C        43.4691   14.6293   15.2044  C     
3    C        42.3955   14.4369   14.3096  C     
4    C        41.8417   13.1483   14.1602  C     
5    N        41.8705   15.5114   13.6644  N     
6    O        41.0831   16.8277   11.3489  O     
7    S        42.2500   15.8235   12.0464  S     
8    O        43.7048   16.6772   11.9976  O     
9    O        42.4072   14.4216   11.1159  O     
10   C        42.3642   12.0516   14.8806  C     
11   C        43.4960   12.2400   15.7080  C     
12   C        41.7475   10.7028   14.7652  C     
13   C        44.0909   11.0507   16.3677  C     
14   C        42.9679   10.0974   16.8890  C     
15   N        42.1140    9.6953   15.7592  N     
16   C        42.1503   10.5907   17.9970  C     
17   O        41.9057    9.8187   18.9178  O     
18   N        41.7189   11.8518   18.0935  N     
19   C        40.9082   12.3842   19.1371  C     
20   C        41.6141    8.4356   15.6891  C     
21   O        41.8272    7.6386   16.5977  O     
22   C        40.8023    7.8521   14.6186  C     
23   C        39.3327    7.4919   15.0208  C     
24   C        38.8358    6.1796   14.3474  C     
25   C        37.3818    6.1822   14.0428  C     
26   C        36.8808    7.0842   13.0762  C     
27   C        36.4989    5.2424   14.6251  C     
28   C        35.1397    5.2240   14.2633  C     
29   C        34.6500    6.1371   13.3107  C     
30   C        35.5206    7.0658   12.7153  C     
31   H        44.8289   13.6886   16.5063  H     
32   H        43.8747   15.5610   15.3337  H     
33   H        41.0319   13.0121   13.5471  H     
34   H        41.6860   16.3032   14.2053  H     
35   H        40.6590   10.8249   14.8000  H     
36   H        42.0394   10.3543   13.7768  H     
37   H        44.6888   10.5163   15.6205  H     
38   H        44.7766   11.3263   17.1683  H     
39   H        43.5152    9.2348   17.2827  H     
40   H        41.9546   12.4674   17.3867  H     
41   H        39.9295   11.8930   19.1373  H     
42   H        40.7665   13.4524   18.9623  H     
43   H        41.3961   12.2447   20.1061  H     
44   H        40.7540    8.4894   13.7377  H     
45   H        41.3379    6.9669   14.2666  H     
46   H        39.2266    7.3867   16.1108  H     
47   H        38.6687    8.3220   14.7095  H     
48   H        39.3538    6.0247   13.3924  H     
49   H        39.1032    5.3396   15.0024  H     
50   H        37.5256    7.7638   12.6425  H     
51   H        36.8407    4.5476   15.2964  H     
52   H        34.5023    4.5513   14.6915  H     
53   H        33.6658    6.1263   13.0397  H     
54   H        35.1768    7.7348   12.0202  H     
@<TRIPOS>BOND
     1    1    2 1
     2    1   11 2
     3    2    3 2
     4    3    4 1
     5    3    5 1
     6    4   10 2
     7    5    7 1
     8    6    7 1
     9    7    8 2
    10    7    9 2
    11   10   11 1
    12   10   12 1
    13   11   13 1
    14   12   15 1
    15   13   14 1
    16   14   15 1
    17   14   16 1
    18   15   20 am
    19   16   17 2
    20   16   18 am
    21   18   19 1
    22   20   21 2
    23   20   22 1
    24   22   23 1
    25   23   24 1
    26   24   25 1
    27   25   26 1
    28   25   27 2
    29   26   30 2
    30   27   28 1
    31   28   29 2
    32   29   30 1
    33    1   31 1
    34    2   32 1
    35    4   33 1
    36    5   34 1
    37   12   35 1
    38   12   36 1
    39   13   37 1
    40   13   38 1
    41   14   39 1
    42   18   40 1
    43   19   41 1
    44   19   42 1
    45   19   43 1
    46   22   44 1
    47   22   45 1
    48   23   46 1
    49   23   47 1
    50   24   48 1
    51   24   49 1
    52   26   50 1
    53   27   51 1
    54   28   52 1
    55   29   53 1
    56   30   54 1
@<TRIPOS>PROPERTY_DATA
  Total_Score	| 11.4760
  Crash		| -1.4745
  Polar		| 5.7786
  FragIndex	| 1
  FragRMSD	| 0.874

