@<TRIPOS>MOLECULE
BindingDB_13460
 52 54 0 0 0
SMALL
NO_CHARGES


@<TRIPOS>ATOM
1    C        43.9494   13.4871   16.0598  C     
2    C        43.4807   14.6283   15.3850  C     
3    C        42.4898   14.5163   14.3927  C     
4    C        41.9073   13.2544   14.1430  C     
5    N        42.0852   15.6326   13.7415  N     
6    O        43.7040   16.8201   11.8858  O     
7    S        42.3480   15.8324   12.0864  S     
8    O        42.5941   14.3641   11.2846  O     
9    O        41.0536   16.6636   11.3916  O     
10   C        42.3295   12.1077   14.8609  C     
11   C        43.3861   12.2214   15.7902  C     
12   C        41.6584   10.7971   14.6406  C     
13   C        43.9452   10.9951   16.3956  C     
14   C        42.8613    9.9173   16.6826  C     
15   N        41.9402    9.6979   15.5627  N     
16   C        42.1169   10.2053   17.9110  C     
17   O        42.2934    9.4824   18.8883  O     
18   N        41.2704   11.2268   17.9667  N     
19   C        40.5245   11.6118   19.1128  C     
20   C        41.3087    8.5066   15.4208  C     
21   O        41.5606    7.5938   16.2024  O     
22   C        40.2612    8.2205   14.4277  C     
23   C        38.4156    6.5261   13.6252  C     
24   C        37.8864    4.8596   11.8901  C     
25   C        38.7675    5.3820   12.8567  C     
26   C        37.1291    7.0923   13.4181  C     
27   C        36.2377    6.5720   12.4536  C     
28   C        36.6243    5.4465   11.6914  C     
29   O        34.9991    7.0941   12.2362  O     
30   C        39.3525    6.9834   14.6920  C     
31   H        44.7079   13.5864   16.7341  H     
32   H        43.8938   15.5404   15.5975  H     
33   H        41.1559   13.1710   13.4503  H     
34   H        42.1038   16.4530   14.2623  H     
35   H        40.5825   10.9977   14.6591  H     
36   H        41.9416   10.4843   13.6327  H     
37   H        44.6600   10.5834   15.6781  H     
38   H        44.5038   11.2207   17.3096  H     
39   H        43.4496    9.0000   16.8346  H     
40   H        41.1580   11.7666   17.1669  H     
41   H        39.8579   10.8027   19.4248  H     
42   H        39.9238   12.4848   18.8635  H     
43   H        41.1953   11.8699   19.9357  H     
44   H        39.6269    9.1017   14.3661  H     
45   H        40.7235    8.0784   13.4487  H     
46   H        38.1588    4.0270   11.3449  H     
47   H        39.6683    4.9159   13.0063  H     
48   H        36.8193    7.8823   13.9848  H     
49   H        35.9863    5.0433   11.0002  H     
50   H        34.5272    7.0046   13.0872  H     
51   H        40.0184    6.1506   14.9299  H     
52   H        38.7335    7.1819   15.5682  H     
@<TRIPOS>BOND
     1    1    2 1
     2    1   11 2
     3    2    3 2
     4    3    4 1
     5    3    5 1
     6    4   10 2
     7    5    7 1
     8    6    7 1
     9    7    8 2
    10    7    9 2
    11   10   11 1
    12   10   12 1
    13   11   13 1
    14   12   15 1
    15   13   14 1
    16   14   15 1
    17   14   16 1
    18   15   20 am
    19   16   17 2
    20   16   18 am
    21   18   19 1
    22   20   21 2
    23   20   22 1
    24   22   30 1
    25   23   25 2
    26   23   26 1
    27   23   30 1
    28   24   25 1
    29   24   28 2
    30   26   27 2
    31   27   28 1
    32   27   29 1
    33    1   31 1
    34    2   32 1
    35    4   33 1
    36    5   34 1
    37   12   35 1
    38   12   36 1
    39   13   37 1
    40   13   38 1
    41   14   39 1
    42   18   40 1
    43   19   41 1
    44   19   42 1
    45   19   43 1
    46   22   44 1
    47   22   45 1
    48   24   46 1
    49   25   47 1
    50   26   48 1
    51   28   49 1
    52   29   50 1
    53   30   51 1
    54   30   52 1
@<TRIPOS>PROPERTY_DATA
  Total_Score	| 11.5637
  Crash		| -1.6790
  Polar		| 7.0281
  FragIndex	| 1
  FragRMSD	| 0.298

