@<TRIPOS>MOLECULE
BindingDB_13457
 54 56 0 0 0
SMALL
NO_CHARGES


@<TRIPOS>ATOM
1    C        44.0131   13.5393   15.9134  C     
2    C        43.4657   14.6321   15.2123  C     
3    C        42.3958   14.4334   14.3142  C     
4    C        41.8692   13.1391   14.1426  C     
5    N        41.9016   15.5135   13.6623  N     
6    O        41.0360   16.7529   11.3544  O     
7    S        42.2549   15.8069   12.0399  S     
8    O        43.6749   16.7001   11.9579  O     
9    O        42.4420   14.3738   11.1509  O     
10   C        42.3723   12.0506   14.8901  C     
11   C        43.4632   12.2484   15.7622  C     
12   C        41.7413   10.7166   14.7606  C     
13   C        44.0515   11.0871   16.4633  C     
14   C        43.0071    9.9926   16.8218  C     
15   N        42.1164    9.6617   15.7042  N     
16   C        42.2279   10.3299   18.0177  C     
17   O        42.4321    9.7053   19.0511  O     
18   N        41.3118   11.2935   17.9931  N     
19   C        40.4826   11.6791   19.0874  C     
20   C        41.5763    8.4214   15.5936  C     
21   O        41.9469    7.5192   16.3440  O     
22   C        40.4763    8.0735   14.6682  C     
23   C        39.8169    6.6547   14.7477  C     
24   C        38.4610    6.5408   14.1354  C     
25   C        36.6990    7.3827   12.6625  C     
26   C        38.0318    7.4176   13.1159  C     
27   C        37.5502    5.5619   14.6056  C     
28   C        36.2132    5.4945   14.1443  C     
29   C        35.7893    6.4447   13.1859  C     
30   C        35.2966    4.4465   14.6703  C     
31   F        34.0072    4.5117   14.1925  F     
32   F        35.7829    3.2089   14.3358  F     
33   F        35.2138    4.5224   16.0388  F     
34   H        44.8127   13.6926   16.5326  H     
35   H        43.8674   15.5686   15.3550  H     
36   H        41.0870   13.0055   13.4997  H     
37   H        41.6959   16.3020   14.2115  H     
38   H        40.6641   10.8630   14.8401  H     
39   H        41.9790   10.3750   13.7515  H     
40   H        44.7949   10.6545   15.7898  H     
41   H        44.5750   11.4050   17.3686  H     
42   H        43.6314    9.1191   17.0574  H     
43   H        41.1833   11.7757   17.1618  H     
44   H        39.8606   10.8398   19.4035  H     
45   H        39.8322   12.4949   18.7703  H     
46   H        41.0864   12.0213   19.9308  H     
47   H        39.6793    8.7979   14.8347  H     
48   H        40.8534    8.1956   13.6450  H     
49   H        40.4783    5.9257   14.2680  H     
50   H        39.7539    6.3934   15.8116  H     
51   H        36.3719    8.0689   11.9773  H     
52   H        38.6738    8.1031   12.7337  H     
53   H        37.8602    4.8855   15.3093  H     
54   H        34.8207    6.4731   12.8613  H     
@<TRIPOS>BOND
     1    1    2 1
     2    1   11 2
     3    2    3 2
     4    3    4 1
     5    3    5 1
     6    4   10 2
     7    5    7 1
     8    6    7 1
     9    7    8 2
    10    7    9 2
    11   10   11 1
    12   10   12 1
    13   11   13 1
    14   12   15 1
    15   13   14 1
    16   14   15 1
    17   14   16 1
    18   15   20 am
    19   16   17 2
    20   16   18 am
    21   18   19 1
    22   20   21 2
    23   20   22 1
    24   22   23 1
    25   23   24 1
    26   24   26 2
    27   24   27 1
    28   25   26 1
    29   25   29 2
    30   27   28 2
    31   28   29 1
    32   28   30 1
    33   30   31 1
    34   30   32 1
    35   30   33 1
    36    1   34 1
    37    2   35 1
    38    4   36 1
    39    5   37 1
    40   12   38 1
    41   12   39 1
    42   13   40 1
    43   13   41 1
    44   14   42 1
    45   18   43 1
    46   19   44 1
    47   19   45 1
    48   19   46 1
    49   22   47 1
    50   22   48 1
    51   23   49 1
    52   23   50 1
    53   25   51 1
    54   26   52 1
    55   27   53 1
    56   29   54 1
@<TRIPOS>PROPERTY_DATA
  Total_Score	| 10.8401
  Crash		| -1.8419
  Polar		| 5.8394
  FragIndex	| 1
  FragRMSD	| 1.286

