@<TRIPOS>MOLECULE
BindingDB_13462
 53 55 0 0 0
SMALL
NO_CHARGES


@<TRIPOS>ATOM
1    C        44.0305   13.5148   15.9496  C     
2    C        43.5185   14.6322   15.2624  C     
3    C        42.4810   14.4710   14.3221  C     
4    C        41.9110   13.1963   14.1289  C     
5    N        42.0116   15.5640   13.6829  N     
6    O        43.7132   16.7662   11.9386  O     
7    S        42.3253   15.8117   12.0494  S     
8    O        42.5709   14.3798   11.1844  O     
9    O        41.0728   16.7074   11.3513  O     
10   C        42.3787   12.0811   14.8605  C     
11   C        43.4724   12.2349   15.7509  C     
12   C        41.7248   10.7543   14.7142  C     
13   C        44.0339   11.0345   16.3943  C     
14   C        42.9263   10.0307   16.8118  C     
15   N        42.0565    9.6986   15.6740  N     
16   C        42.2005   10.4894   18.0016  C     
17   O        42.6771   10.2244   19.1042  O     
18   N        41.0444   11.1441   17.9248  N     
19   C        40.2826   11.5880   19.0510  C     
20   C        41.4994    8.4649   15.5637  C     
21   O        41.7784    7.5925   16.3813  O     
22   C        40.5420    8.0579   14.5263  C     
23   C        38.7921    6.4058   13.6770  C     
24   C        37.8230    5.1726   11.7890  C     
25   C        38.8831    5.3980   12.6788  C     
26   C        37.5852    7.1379   13.7746  C     
27   C        36.5112    6.9309   12.8857  C     
28   C        36.6345    5.9177   11.8964  C     
29   C        39.8895    6.6374   14.6541  C     
30   C        35.3040    7.6383   13.0355  C     
31   O        35.1306    8.5159   14.0573  O     
32   O        34.4458    7.7760   11.9995  O     
33   H        44.8173   13.6494   16.5875  H     
34   H        43.9283   15.5612   15.4270  H     
35   H        41.1283   13.0898   13.4791  H     
36   H        41.9133   16.3758   14.2126  H     
37   H        40.6483   10.9340   14.7799  H     
38   H        41.9711   10.4135   13.7087  H     
39   H        44.6813   10.5514   15.6563  H     
40   H        44.6638   11.2948   17.2414  H     
41   H        43.4820    9.1370   17.1215  H     
42   H        40.6597   11.3073   17.0530  H     
43   H        40.0241   10.7433   19.6940  H     
44   H        39.3650   12.0579   18.7100  H     
45   H        40.8512   12.3208   19.6344  H     
46   H        39.7224    8.7821   14.5106  H     
47   H        41.0451    8.0987   13.5465  H     
48   H        37.8915    4.4290   11.0844  H     
49   H        39.7344    4.8494   12.5803  H     
50   H        37.4953    7.8325   14.5217  H     
51   H        35.8629    5.7112   11.2557  H     
52   H        40.6676    5.8792   14.5486  H     
53   H        39.4624    6.5371   15.6598  H     
@<TRIPOS>BOND
     1    1    2 1
     2    1   11 2
     3    2    3 2
     4    3    4 1
     5    3    5 1
     6    4   10 2
     7    5    7 1
     8    6    7 1
     9    7    8 2
    10    7    9 2
    11   10   11 1
    12   10   12 1
    13   11   13 1
    14   12   15 1
    15   13   14 1
    16   14   15 1
    17   14   16 1
    18   15   20 am
    19   16   17 2
    20   16   18 am
    21   18   19 1
    22   20   21 2
    23   20   22 1
    24   22   29 1
    25   23   25 2
    26   23   26 1
    27   23   29 1
    28   24   25 1
    29   24   28 2
    30   26   27 2
    31   27   28 1
    32   27   30 1
    33   30   31 2
    34   30   32 1
    35    1   33 1
    36    2   34 1
    37    4   35 1
    38    5   36 1
    39   12   37 1
    40   12   38 1
    41   13   39 1
    42   13   40 1
    43   14   41 1
    44   18   42 1
    45   19   43 1
    46   19   44 1
    47   19   45 1
    48   22   46 1
    49   22   47 1
    50   24   48 1
    51   25   49 1
    52   26   50 1
    53   28   51 1
    54   29   52 1
    55   29   53 1
@<TRIPOS>PROPERTY_DATA
  Total_Score	| 14.5859
  Crash		| -1.7248
  Polar		| 9.9664
  FragIndex	| 1
  FragRMSD	| 0.597

