@<TRIPOS>MOLECULE
BindingDB_13454
 54 56 0 0 0
SMALL
NO_CHARGES


@<TRIPOS>ATOM
1    C        44.1008   13.4932   15.8794  C     
2    C        43.5964   14.6004   15.1758  C     
3    C        42.4952   14.4515   14.3082  C     
4    C        41.9054   13.1813   14.1528  C     
5    N        41.9987   15.5425   13.6827  N     
6    O        43.6686   16.7774   11.9373  O     
7    S        42.2961   15.8031   12.0455  S     
8    O        42.5416   14.3716   11.1808  O     
9    O        41.0324   16.6820   11.3615  O     
10   C        42.3852   12.0701   14.8839  C     
11   C        43.4912   12.2246   15.7512  C     
12   C        41.7173   10.7470   14.7481  C     
13   C        44.0568   11.0300   16.4181  C     
14   C        42.9723    9.9757   16.7877  C     
15   N        42.0517    9.6776   15.6837  N     
16   C        42.2390   10.3322   18.0075  C     
17   O        42.4260    9.6766   19.0262  O     
18   N        41.3646   11.3331   18.0130  N     
19   C        40.5961   11.7623   19.1328  C     
20   C        41.4541    8.4631   15.5935  C     
21   O        41.6438    7.6517   16.4910  O     
22   C        40.3787    8.0867   14.6645  C     
23   C        40.3295    6.5922   14.2080  C     
24   C        38.9907    6.1946   13.7014  C     
25   C        36.6545    5.6288   14.1800  C     
26   C        37.9313    6.0182   14.6163  C     
27   C        38.7339    5.9695   12.3297  C     
28   C        37.4567    5.5690   11.8950  C     
29   C        36.3922    5.3872   12.8130  C     
30   C        35.0251    4.9548   12.3988  C     
31   F        34.8943    4.6898   11.0555  F     
32   F        34.6800    3.8002   13.0599  F     
33   F        34.1057    5.9273   12.7170  F     
34   H        44.9158   13.6170   16.4847  H     
35   H        44.0534   15.5115   15.2797  H     
36   H        41.0978   13.0741   13.5347  H     
37   H        41.9267   16.3550   14.2264  H     
38   H        40.6402   10.9212   14.8193  H     
39   H        41.9645   10.4122   13.7430  H     
40   H        44.7538   10.5720   15.7115  H     
41   H        44.6297   11.3079   17.3076  H     
42   H        43.5687    9.0759   16.9973  H     
43   H        41.2311   11.8183   17.1853  H     
44   H        39.9540   10.9549   19.4896  H     
45   H        39.9673   12.6009   18.8303  H     
46   H        41.2517   12.0906   19.9416  H     
47   H        39.4375    8.3590   15.1613  H     
48   H        40.4243    8.6662   13.7395  H     
49   H        41.1082    6.4329   13.4523  H     
50   H        40.5792    5.9189   15.0416  H     
51   H        35.9119    5.5097   14.8737  H     
52   H        38.0845    6.1629   15.6159  H     
53   H        39.4796    6.0839   11.6354  H     
54   H        37.3108    5.3942   10.8985  H     
@<TRIPOS>BOND
     1    1    2 1
     2    1   11 2
     3    2    3 2
     4    3    4 1
     5    3    5 1
     6    4   10 2
     7    5    7 1
     8    6    7 1
     9    7    8 2
    10    7    9 2
    11   10   11 1
    12   10   12 1
    13   11   13 1
    14   12   15 1
    15   13   14 1
    16   14   15 1
    17   14   16 1
    18   15   20 am
    19   16   17 2
    20   16   18 am
    21   18   19 1
    22   20   21 2
    23   20   22 1
    24   22   23 1
    25   23   24 1
    26   24   26 2
    27   24   27 1
    28   25   26 1
    29   25   29 2
    30   27   28 2
    31   28   29 1
    32   29   30 1
    33   30   31 1
    34   30   32 1
    35   30   33 1
    36    1   34 1
    37    2   35 1
    38    4   36 1
    39    5   37 1
    40   12   38 1
    41   12   39 1
    42   13   40 1
    43   13   41 1
    44   14   42 1
    45   18   43 1
    46   19   44 1
    47   19   45 1
    48   19   46 1
    49   22   47 1
    50   22   48 1
    51   23   49 1
    52   23   50 1
    53   25   51 1
    54   26   52 1
    55   27   53 1
    56   28   54 1
@<TRIPOS>PROPERTY_DATA
  Total_Score	| 12.0516
  Crash		| -1.3343
  Polar		| 6.0155
  FragIndex	| 1
  FragRMSD	| 0.531

