@<TRIPOS>MOLECULE
BindingDB_13456
 62 64 0 0 0
SMALL
NO_CHARGES


@<TRIPOS>ATOM
1    C        43.9924   13.5550   15.9535  C     
2    C        43.4316   14.6490   15.2685  C     
3    C        42.4205   14.4424   14.3076  C     
4    C        41.9009   13.1394   14.1198  C     
5    N        41.9068   15.5268   13.6761  N     
6    O        41.0497   16.7646   11.3517  O     
7    S        42.2557   15.8030   12.0486  S     
8    O        43.6928   16.6942   11.9962  O     
9    O        42.4274   14.3859   11.1463  O     
10   C        42.4207   12.0411   14.8441  C     
11   C        43.5002   12.2456   15.7338  C     
12   C        41.7718   10.7176   14.7427  C     
13   C        44.1252   11.0633   16.3528  C     
14   C        43.0734   10.0060   16.7840  C     
15   N        42.0860    9.7017   15.7391  N     
16   C        42.4124   10.3847   18.0377  C     
17   O        42.6846    9.7779   19.0709  O     
18   N        41.4849   11.3330   18.0420  N     
19   C        40.7232   11.7521   19.1688  C     
20   C        41.3984    8.5328   15.7782  C     
21   O        41.6917    7.7171   16.6528  O     
22   C        40.3221    8.1684   14.8537  C     
23   C        40.3287    6.7095   14.3158  C     
24   C        39.0860    6.3061   13.5922  C     
25   C        36.7592    6.7956   12.9132  C     
26   C        37.9725    7.1749   13.5341  C     
27   C        38.9700    5.0135   13.0230  C     
28   C        37.7705    4.5963   12.4109  C     
29   C        36.6778    5.5009   12.3418  C     
30   N        37.7787    3.3206   11.9543  N     
31   C        38.3801    1.6122    9.7362  C     
32   S        37.2368    2.8220   10.4386  S     
33   O        35.7559    2.2355   10.5426  O     
34   O        37.3023    4.1448    9.5516  O     
35   C        35.6295    7.7599   12.8498  C     
36   F        34.3848    7.1674   12.7354  F     
37   F        35.5508    8.5605   13.9776  F     
38   F        35.8125    8.6183   11.7787  F     
39   H        44.7636   13.7246   16.6064  H     
40   H        43.8193   15.5934   15.4246  H     
41   H        41.1339   12.9912   13.4594  H     
42   H        41.7688   16.3377   14.2126  H     
43   H        40.6993   10.9106   14.7851  H     
44   H        42.0074   10.3194   13.7628  H     
45   H        44.7610   10.6213   15.5801  H     
46   H        44.7835   11.3483   17.1854  H     
47   H        43.6867    9.1086   16.9720  H     
48   H        41.2841   11.7809   17.2056  H     
49   H        40.1300   10.9178   19.5619  H     
50   H        40.0348   12.5462   18.8606  H     
51   H        41.3766   12.1394   19.9603  H     
52   H        39.3825    8.3018   15.3795  H     
53   H        40.3324    8.8445   13.9976  H     
54   H        41.1930    6.5936   13.6522  H     
55   H        40.4620    6.0075   15.1387  H     
56   H        38.0490    8.1121   13.9552  H     
57   H        39.7678    4.3741   13.0647  H     
58   H        35.7878    5.1814   11.8690  H     
59   H        38.2301    2.6429   12.4921  H     
60   H        39.3643    2.0667    9.5970  H     
61   H        38.0070    1.2863    8.7583  H     
62   H        38.4723    0.7454   10.3983  H     
@<TRIPOS>BOND
     1    1    2 1
     2    1   11 2
     3    2    3 2
     4    3    4 1
     5    3    5 1
     6    4   10 2
     7    5    7 1
     8    6    7 1
     9    7    8 2
    10    7    9 2
    11   10   11 1
    12   10   12 1
    13   11   13 1
    14   12   15 1
    15   13   14 1
    16   14   15 1
    17   14   16 1
    18   15   20 am
    19   16   17 2
    20   16   18 am
    21   18   19 1
    22   20   21 2
    23   20   22 1
    24   22   23 1
    25   23   24 1
    26   24   26 2
    27   24   27 1
    28   25   26 1
    29   25   29 2
    30   25   35 1
    31   27   28 2
    32   28   29 1
    33   28   30 1
    34   30   32 1
    35   31   32 1
    36   32   33 2
    37   32   34 2
    38   35   36 1
    39   35   37 1
    40   35   38 1
    41    1   39 1
    42    2   40 1
    43    4   41 1
    44    5   42 1
    45   12   43 1
    46   12   44 1
    47   13   45 1
    48   13   46 1
    49   14   47 1
    50   18   48 1
    51   19   49 1
    52   19   50 1
    53   19   51 1
    54   22   52 1
    55   22   53 1
    56   23   54 1
    57   23   55 1
    58   26   56 1
    59   27   57 1
    60   29   58 1
    61   30   59 1
    62   31   60 1
    63   31   61 1
    64   31   62 1
@<TRIPOS>PROPERTY_DATA
  Total_Score	| 12.7261
  Crash		| -2.7963
  Polar		| 6.9323
  FragIndex	| 1
  FragRMSD	| 0.772

