@<TRIPOS>MOLECULE
BindingDB_13439
 57 59 0 0 0
SMALL
NO_CHARGES


@<TRIPOS>ATOM
1    C        43.9886   13.5962   15.9444  C     
2    C        43.4445   14.6960   15.2546  C     
3    C        42.3910   14.5105   14.3431  C     
4    C        41.8615   13.2139   14.1559  C     
5    N        41.9332   15.6026   13.6642  N     
6    O        41.0841   16.7104   11.2967  O     
7    S        42.2975   15.8201   12.0385  S     
8    O        43.7047   16.7565   11.9687  O     
9    O        42.5318   14.3700   11.1845  O     
10   C        42.3454   12.1027   14.8806  C     
11   C        43.4599   12.3008   15.7324  C     
12   C        41.7311   10.7473   14.7074  C     
13   C        44.0668   11.1243   16.3764  C     
14   C        43.0257   10.0350   16.7510  C     
15   N        42.0983    9.6961   15.6669  N     
16   C        42.2811   10.3733   17.9682  C     
17   O        42.5377    9.7590   18.9939  O     
18   N        41.3664   11.3367   17.9746  N     
19   C        40.6137   11.7447   19.1089  C     
20   C        41.5671    8.4460   15.5614  C     
21   O        42.0049    7.5677   16.3067  O     
22   C        40.3232    6.4830   14.2700  C     
23   C        40.4489    8.0159   14.6868  C     
24   C        38.9028    5.8829   13.9646  C     
25   C        38.2584    6.3220   12.6044  C     
26   C        36.8887    5.7673   12.3229  C     
27   C        35.7809    6.2050   13.0943  C     
28   C        34.4930    5.6891   12.8620  C     
29   C        34.2809    4.7458   11.8402  C     
30   C        35.3568    4.3415   11.0308  C     
31   C        36.6529    4.8384   11.2753  C     
32   H        44.7912   13.7345   16.5561  H     
33   H        43.8402   15.6291   15.4355  H     
34   H        41.0540   13.1006   13.5275  H     
35   H        41.8382   16.4237   14.1874  H     
36   H        40.6460   10.8777   14.7299  H     
37   H        42.0229   10.4241   13.7034  H     
38   H        44.7775   10.6984   15.6654  H     
39   H        44.6288   11.4067   17.2706  H     
40   H        43.6501    9.1565   16.9541  H     
41   H        41.1905   11.7935   17.1387  H     
42   H        40.0409   10.9069   19.5008  H     
43   H        39.9276   12.5335   18.8150  H     
44   H        41.2746   12.1264   19.8846  H     
45   H        40.9733    6.3020   13.4019  H     
46   H        40.7223    5.8744   15.0913  H     
47   H        39.5108    8.3091   15.1772  H     
48   H        40.5173    8.5811   13.7490  H     
49   H        38.9984    4.7879   13.9420  H     
50   H        38.2369    6.1257   14.8084  H     
51   H        38.2103    7.4190   12.5866  H     
52   H        38.9492    6.0250   11.8060  H     
53   H        35.9029    6.9093   13.8289  H     
54   H        33.7132    6.0034   13.4394  H     
55   H        33.3437    4.3770   11.6717  H     
56   H        35.1965    3.6829   10.2725  H     
57   H        37.4198    4.5366   10.6660  H     
@<TRIPOS>BOND
     1    1    2 1
     2    1   11 2
     3    2    3 2
     4    3    4 1
     5    3    5 1
     6    4   10 2
     7    5    7 1
     8    6    7 1
     9    7    8 2
    10    7    9 2
    11   10   11 1
    12   10   12 1
    13   11   13 1
    14   12   15 1
    15   13   14 1
    16   14   15 1
    17   14   16 1
    18   15   20 am
    19   16   17 2
    20   16   18 am
    21   18   19 1
    22   20   21 2
    23   20   23 1
    24   22   23 1
    25   22   24 1
    26   24   25 1
    27   25   26 1
    28   26   27 2
    29   26   31 1
    30   27   28 1
    31   28   29 2
    32   29   30 1
    33   30   31 2
    34    1   32 1
    35    2   33 1
    36    4   34 1
    37    5   35 1
    38   12   36 1
    39   12   37 1
    40   13   38 1
    41   13   39 1
    42   14   40 1
    43   18   41 1
    44   19   42 1
    45   19   43 1
    46   19   44 1
    47   22   45 1
    48   22   46 1
    49   23   47 1
    50   23   48 1
    51   24   49 1
    52   24   50 1
    53   25   51 1
    54   25   52 1
    55   27   53 1
    56   28   54 1
    57   29   55 1
    58   30   56 1
    59   31   57 1
@<TRIPOS>PROPERTY_DATA
  Total_Score	| 12.4132
  Crash		| -1.5026
  Polar		| 5.9862
  FragIndex	| 1
  FragRMSD	| 0.822

