@<TRIPOS>MOLECULE
BindingDB_13458
 51 53 0 0 0
SMALL
NO_CHARGES


@<TRIPOS>ATOM
1    C        43.9665   13.5669   15.9754  C     
2    C        43.4354   14.6770   15.2945  C     
3    C        42.4222   14.5080   14.3322  C     
4    C        41.8878   13.2193   14.1159  C     
5    N        41.9563   15.6062   13.6813  N     
6    O        41.1345   16.9044   11.3718  O     
7    S        42.2887   15.8761   12.0468  S     
8    O        43.7589   16.7002   11.9582  O     
9    O        42.3863   14.4616   11.1324  O     
10   C        42.3813   12.1040   14.8321  C     
11   C        43.4574   12.2759   15.7287  C     
12   C        41.7497   10.7744   14.6683  C     
13   C        44.0636   11.0715   16.3312  C     
14   C        42.9741   10.0475   16.7528  C     
15   N        42.0714    9.7313   15.6375  N     
16   C        42.2746   10.4878   17.9627  C     
17   O        42.6199   10.0149   19.0422  O     
18   N        41.3130   11.4064   17.9315  N     
19   C        40.6471   11.9597   19.0631  C     
20   C        41.4600    8.5309   15.5588  C     
21   O        41.7382    7.6675   16.3835  O     
22   C        40.3799    8.2088   14.6051  C     
23   C        39.8079    6.7635   14.6558  C     
24   C        38.7531    6.4472   13.6342  C     
25   C        37.8725    4.9734   11.8562  C     
26   C        38.9025    5.3402   12.7447  C     
27   C        37.5241    7.1476   13.6229  C     
28   C        36.5058    6.8055   12.7151  C     
29   C        36.6725    5.7048   11.8419  C     
30   Cl       35.0257    7.6361   12.7315  Cl    
31   H        44.7372   13.6996   16.6354  H     
32   H        43.8226   15.6051   15.4750  H     
33   H        41.1182   13.1072   13.4489  H     
34   H        41.8540   16.4155   14.2138  H     
35   H        40.6695   10.9510   14.6853  H     
36   H        42.0275   10.4282   13.6770  H     
37   H        44.6852   10.6023   15.5639  H     
38   H        44.7131   11.3146   17.1786  H     
39   H        43.5378    9.1445   17.0190  H     
40   H        41.0460   11.7501   17.0675  H     
41   H        40.1530   11.1723   19.6358  H     
42   H        39.8893   12.6739   18.7176  H     
43   H        41.3584   12.4847   19.7026  H     
44   H        39.5500    8.8842   14.8282  H     
45   H        40.7326    8.3962   13.5813  H     
46   H        40.6620    6.0770   14.5356  H     
47   H        39.3880    6.5774   15.6557  H     
48   H        37.9926    4.1616   11.2295  H     
49   H        39.7629    4.7844   12.7464  H     
50   H        37.3345    7.8909   14.3043  H     
51   H        35.9224    5.4415   11.2044  H     
@<TRIPOS>BOND
     1    1    2 1
     2    1   11 2
     3    2    3 2
     4    3    4 1
     5    3    5 1
     6    4   10 2
     7    5    7 1
     8    6    7 1
     9    7    8 2
    10    7    9 2
    11   10   11 1
    12   10   12 1
    13   11   13 1
    14   12   15 1
    15   13   14 1
    16   14   15 1
    17   14   16 1
    18   15   20 am
    19   16   17 2
    20   16   18 am
    21   18   19 1
    22   20   21 2
    23   20   22 1
    24   22   23 1
    25   23   24 1
    26   24   26 2
    27   24   27 1
    28   25   26 1
    29   25   29 2
    30   27   28 2
    31   28   29 1
    32   28   30 1
    33    1   31 1
    34    2   32 1
    35    4   33 1
    36    5   34 1
    37   12   35 1
    38   12   36 1
    39   13   37 1
    40   13   38 1
    41   14   39 1
    42   18   40 1
    43   19   41 1
    44   19   42 1
    45   19   43 1
    46   22   44 1
    47   22   45 1
    48   23   46 1
    49   23   47 1
    50   25   48 1
    51   26   49 1
    52   27   50 1
    53   29   51 1
@<TRIPOS>PROPERTY_DATA
  Total_Score	| 10.7778
  Crash		| -1.2487
  Polar		| 5.7404
  FragIndex	| 1
  FragRMSD	| 0.732

