@<TRIPOS>MOLECULE
BindingDB_13453
 55 57 0 0 0
SMALL
NO_CHARGES


@<TRIPOS>ATOM
1    C        43.9456   13.7079   16.0155  C     
2    C        43.4124   14.7943   15.3002  C     
3    C        42.4291   14.5804   14.3106  C     
4    C        41.9345   13.2806   14.0993  C     
5    N        41.9370   15.6503   13.6415  N     
6    O        41.0347   16.8090   11.3105  O     
7    S        42.2676   15.8918   12.0057  S     
8    O        43.6723   16.8173   11.8913  O     
9    O        42.4695   14.4447   11.1563  O     
10   C        42.4316   12.1875   14.8511  C     
11   C        43.4644   12.3992   15.7889  C     
12   C        41.8330   10.8393   14.6746  C     
13   C        44.0791   11.2170   16.4371  C     
14   C        43.0409   10.1051   16.7613  C     
15   N        42.1472    9.7930   15.6405  N     
16   C        42.2873   10.4009   17.9841  C     
17   O        42.4991    9.7306   18.9879  O     
18   N        41.3481   11.3455   17.9937  N     
19   C        40.4999   11.6517   19.0936  C     
20   C        41.5450    8.5792   15.5578  C     
21   O        41.8431    7.7155   16.3748  O     
22   C        40.5040    8.2395   14.5872  C     
23   C        39.9575    6.7849   14.5985  C     
24   C        38.6763    6.6404   13.8471  C     
25   C        36.3014    7.2016   13.6038  C     
26   C        37.5247    7.3419   14.2800  C     
27   C        38.5721    5.7947   12.7162  C     
28   C        37.3387    5.6389   12.0533  C     
29   C        36.1960    6.3200   12.5152  C     
30   O        34.9841    6.1235   11.9150  O     
31   C        34.2073    5.1018   12.5671  C     
32   H        44.6918   13.8788   16.6944  H     
33   H        43.7708   15.7375   15.4735  H     
34   H        41.1887   13.1259   13.4146  H     
35   H        41.7901   16.4641   14.1623  H     
36   H        40.7502   10.9966   14.6790  H     
37   H        42.1299   10.4992   13.6811  H     
38   H        44.7987   10.8113   15.7226  H     
39   H        44.6382   11.5038   17.3341  H     
40   H        43.6699    9.2260   16.9564  H     
41   H        41.2010   11.8403   17.1755  H     
42   H        39.9321   10.7689   19.3990  H     
43   H        39.7972   12.4300   18.7922  H     
44   H        41.0871   12.0150   19.9393  H     
45   H        39.6637    8.9228   14.7654  H     
46   H        40.8791    8.4443   13.5798  H     
47   H        40.7258    6.1280   14.1879  H     
48   H        39.7740    6.4652   15.6264  H     
49   H        35.4822    7.7169   13.9284  H     
50   H        37.5644    7.9523   15.0970  H     
51   H        39.3847    5.2743   12.3809  H     
52   H        37.2698    5.0066   11.2553  H     
53   H        34.7434    4.1492   12.6048  H     
54   H        33.2946    4.9486   11.9939  H     
55   H        33.9302    5.4078   13.5798  H     
@<TRIPOS>BOND
     1    1    2 1
     2    1   11 2
     3    2    3 2
     4    3    4 1
     5    3    5 1
     6    4   10 2
     7    5    7 1
     8    6    7 1
     9    7    8 2
    10    7    9 2
    11   10   11 1
    12   10   12 1
    13   11   13 1
    14   12   15 1
    15   13   14 1
    16   14   15 1
    17   14   16 1
    18   15   20 am
    19   16   17 2
    20   16   18 am
    21   18   19 1
    22   20   21 2
    23   20   22 1
    24   22   23 1
    25   23   24 1
    26   24   26 2
    27   24   27 1
    28   25   26 1
    29   25   29 2
    30   27   28 2
    31   28   29 1
    32   29   30 1
    33   30   31 1
    34    1   32 1
    35    2   33 1
    36    4   34 1
    37    5   35 1
    38   12   36 1
    39   12   37 1
    40   13   38 1
    41   13   39 1
    42   14   40 1
    43   18   41 1
    44   19   42 1
    45   19   43 1
    46   19   44 1
    47   22   45 1
    48   22   46 1
    49   23   47 1
    50   23   48 1
    51   25   49 1
    52   26   50 1
    53   27   51 1
    54   28   52 1
    55   31   53 1
    56   31   54 1
    57   31   55 1
@<TRIPOS>PROPERTY_DATA
  Total_Score	| 12.5385
  Crash		| -1.3557
  Polar		| 6.9941
  FragIndex	| 1
  FragRMSD	| 1.001

