@<TRIPOS>MOLECULE
BindingDB_13442
 52 54 0 0 0
SMALL
NO_CHARGES


@<TRIPOS>ATOM
1    C        43.8667   13.6043   15.9964  C     
2    C        43.3215   14.6817   15.2799  C     
3    C        42.3379   14.4585   14.2910  C     
4    C        41.8536   13.1474   14.0953  C     
5    N        41.8435   15.5176   13.6080  N     
6    O        43.6845   16.7465   12.0134  O     
7    S        42.2763   15.8263   12.0076  S     
8    O        42.5022   14.4245   11.0749  O     
9    O        41.0953   16.7995   11.2764  O     
10   C        42.3528   12.0662   14.8516  C     
11   C        43.3942   12.2921   15.7878  C     
12   C        41.7779   10.7064   14.6820  C     
13   C        44.0103   11.1312   16.4624  C     
14   C        42.9944    9.9904   16.7723  C     
15   N        42.1201    9.6574   15.6425  N     
16   C        42.2001   10.2619   17.9721  C     
17   O        42.3290    9.5286   18.9443  O     
18   N        41.3222   11.2584   17.9912  N     
19   C        40.4546   11.5703   19.0758  C     
20   C        41.5546    8.4277   15.5525  C     
21   O        41.7986    7.5770   16.4053  O     
22   C        40.6155    7.9558   14.5288  C     
23   C        39.1655    7.7687   15.0511  C     
24   O        38.2038    8.1920   14.0650  O     
25   C        37.4917    7.2429   13.3870  C     
26   C        36.0786    7.3623   13.3886  C     
27   C        38.0865    6.2396   12.6034  C     
28   C        37.2902    5.3520   11.8345  C     
29   C        35.8925    5.4942   11.8326  C     
30   C        35.2844    6.4942   12.6182  C     
31   H        44.6202   13.7821   16.6636  H     
32   H        43.6693   15.6253   15.4537  H     
33   H        41.1036   12.9850   13.4139  H     
34   H        41.6239   16.3068   14.1324  H     
35   H        40.6880   10.8230   14.6942  H     
36   H        42.0894   10.3796   13.6887  H     
37   H        44.7701   10.7393   15.7784  H     
38   H        44.5294   11.4344   17.3798  H     
39   H        43.6419    9.1253   16.9700  H     
40   H        41.2442   11.8070   17.1978  H     
41   H        39.7923   10.7277   19.2854  H     
42   H        39.8469   12.4348   18.8061  H     
43   H        41.0326   11.8106   19.9689  H     
44   H        40.5744    8.6368   13.6796  H     
45   H        40.9842    7.0108   14.1170  H     
46   H        39.0144    6.7339   15.3874  H     
47   H        39.0101    8.4122   15.9240  H     
48   H        35.6291    8.0977   13.9381  H     
49   H        39.0985    6.1282   12.5753  H     
50   H        37.7374    4.6323   11.2681  H     
51   H        35.3228    4.8837   11.2482  H     
52   H        34.2672    6.5936   12.6188  H     
@<TRIPOS>BOND
     1    1    2 1
     2    1   11 2
     3    2    3 2
     4    3    4 1
     5    3    5 1
     6    4   10 2
     7    5    7 1
     8    6    7 1
     9    7    8 2
    10    7    9 2
    11   10   11 1
    12   10   12 1
    13   11   13 1
    14   12   15 1
    15   13   14 1
    16   14   15 1
    17   14   16 1
    18   15   20 am
    19   16   17 2
    20   16   18 am
    21   18   19 1
    22   20   21 2
    23   20   22 1
    24   22   23 1
    25   23   24 1
    26   24   25 1
    27   25   26 1
    28   25   27 2
    29   26   30 2
    30   27   28 1
    31   28   29 2
    32   29   30 1
    33    1   31 1
    34    2   32 1
    35    4   33 1
    36    5   34 1
    37   12   35 1
    38   12   36 1
    39   13   37 1
    40   13   38 1
    41   14   39 1
    42   18   40 1
    43   19   41 1
    44   19   42 1
    45   19   43 1
    46   22   44 1
    47   22   45 1
    48   23   46 1
    49   23   47 1
    50   26   48 1
    51   27   49 1
    52   28   50 1
    53   29   51 1
    54   30   52 1
@<TRIPOS>PROPERTY_DATA
  Total_Score	| 12.5124
  Crash		| -1.3959
  Polar		| 7.0059
  FragIndex	| 1
  FragRMSD	| 0.328

