@<TRIPOS>MOLECULE
BindingDB_13435
 45 47 0 0 0
SMALL
NO_CHARGES


@<TRIPOS>ATOM
1    C        43.9490   13.5568   15.9722  C     
2    C        43.4240   14.6460   15.2529  C     
3    C        42.3980   14.4414   14.3101  C     
4    C        41.8647   13.1447   14.1433  C     
5    N        41.9098   15.5169   13.6446  N     
6    O        43.6734   16.7415   11.9537  O     
7    S        42.2757   15.7877   12.0200  S     
8    O        42.5221   14.3669   11.1366  O     
9    O        41.0510   16.6973   11.2981  O     
10   C        42.3461   12.0516   14.9094  C     
11   C        43.4042   12.2594   15.8161  C     
12   C        41.7095   10.7145   14.7746  C     
13   C        44.0252   11.1012   16.5001  C     
14   C        43.0581    9.9020   16.7626  C     
15   N        42.0603    9.6579   15.7162  N     
16   C        42.4296    9.8836   18.0956  C     
17   O        42.6631    8.9192   18.8227  O     
18   N        41.5187   10.6940   18.6155  N     
19   C        40.9547   11.8818   18.0805  C     
20   C        41.4978    8.4293   15.5932  C     
21   O        41.9094    7.4811   16.2530  O     
22   C        40.4134    8.0963   14.7896  C     
23   C        39.1000    8.4299   15.1997  C     
24   C        37.9863    7.9709   14.4724  C     
25   C        38.1681    7.2015   13.3089  C     
26   C        39.4675    6.8565   12.8961  C     
27   C        40.5834    7.2840   13.6416  C     
28   H        44.7326   13.7206   16.6115  H     
29   H        43.8161   15.5817   15.3997  H     
30   H        41.0953   13.0047   13.4848  H     
31   H        41.7584   16.3227   14.1688  H     
32   H        40.6303   10.8744   14.8465  H     
33   H        41.9462   10.3652   13.7667  H     
34   H        44.8173   10.7629   15.8320  H     
35   H        44.5086   11.4069   17.4318  H     
36   H        43.7543    9.0511   16.7398  H     
37   H        41.1788   10.4289   19.4856  H     
38   H        40.5345   11.6946   17.0934  H     
39   H        41.6988   12.6749   18.0303  H     
40   H        40.1579   12.2124   18.7430  H     
41   H        38.9446    8.9719   16.0585  H     
42   H        37.0395    8.2002   14.7871  H     
43   H        37.3591    6.8941   12.7656  H     
44   H        39.6003    6.2778   12.0627  H     
45   H        41.5164    6.9904   13.3422  H     
@<TRIPOS>BOND
     1    1    2 1
     2    1   11 2
     3    2    3 2
     4    3    4 1
     5    3    5 1
     6    4   10 2
     7    5    7 1
     8    6    7 1
     9    7    8 2
    10    7    9 2
    11   10   11 1
    12   10   12 1
    13   11   13 1
    14   12   15 1
    15   13   14 1
    16   14   15 1
    17   14   16 1
    18   15   20 1
    19   16   17 2
    20   16   18 am
    21   18   19 1
    22   20   21 2
    23   20   22 1
    24   22   23 2
    25   22   27 1
    26   23   24 1
    27   24   25 2
    28   25   26 1
    29   26   27 2
    30    1   28 1
    31    2   29 1
    32    4   30 1
    33    5   31 1
    34   12   32 1
    35   12   33 1
    36   13   34 1
    37   13   35 1
    38   14   36 1
    39   18   37 1
    40   19   38 1
    41   19   39 1
    42   19   40 1
    43   23   41 1
    44   24   42 1
    45   25   43 1
    46   26   44 1
    47   27   45 1
@<TRIPOS>PROPERTY_DATA
  Total_Score	| 10.7930
  Crash		| -1.4135
  Polar		| 6.0311
  FragIndex	| 1
  FragRMSD	| 0.695

