@<TRIPOS>MOLECULE
BindingDB_13461
 56 58 0 0 0
SMALL
NO_CHARGES


@<TRIPOS>ATOM
1    C        43.9140   13.6367   15.9446  C     
2    C        43.3544   14.7159   15.2403  C     
3    C        42.3301   14.4942   14.2943  C     
4    C        41.8224   13.1904   14.1250  C     
5    N        41.8199   15.5458   13.6205  N     
6    O        41.1196   16.8561   11.2867  O     
7    S        42.2508   15.8361   12.0139  S     
8    O        43.7072   16.6834   12.0263  O     
9    O        42.4319   14.4251   11.1019  O     
10   C        42.3414   12.1068   14.8722  C     
11   C        43.4250   12.3267   15.7524  C     
12   C        41.7426   10.7505   14.7406  C     
13   C        44.0835   11.1558   16.3728  C     
14   C        43.0910   10.0176   16.7495  C     
15   N        42.1403    9.6990   15.6859  N     
16   C        42.3690   10.2987   17.9892  C     
17   O        42.6148    9.6141   18.9828  O     
18   N        41.4617   11.2571   18.0341  N     
19   C        40.6892   11.6152   19.1709  C     
20   C        41.5873    8.4575   15.6181  C     
21   O        41.9644    7.5819   16.3867  O     
22   C        40.4021    8.1108   14.8238  C     
23   C        39.0296    6.2879   13.5282  C     
24   C        36.8248    6.7867   12.5592  C     
25   C        37.9645    7.1839   13.2901  C     
26   C        38.9253    4.9772   12.9986  C     
27   C        37.8105    4.5776   12.2214  C     
28   C        36.7512    5.4952   12.0194  C     
29   C        40.2555    6.6501   14.2978  C     
30   N        37.8073    3.3183   11.7249  N     
31   O        38.4673    1.8999    9.4466  O     
32   O        35.8596    2.0103   10.3331  O     
33   S        37.3050    2.8804   10.1772  S     
34   O        36.9869    4.2695    9.2617  O     
35   H        44.6886   13.8117   16.5924  H     
36   H        43.7204   15.6594   15.3937  H     
37   H        41.0530   13.0344   13.4671  H     
38   H        41.6319   16.3422   14.1499  H     
39   H        40.6576   10.8764   14.8177  H     
40   H        41.9850   10.4231   13.7251  H     
41   H        44.7827   10.7581   15.6290  H     
42   H        44.6731   11.4447   17.2517  H     
43   H        43.7509    9.1560   16.9132  H     
44   H        41.2896   11.7541   17.2142  H     
45   H        40.0988   10.7597   19.5081  H     
46   H        40.0138   12.4239   18.8964  H     
47   H        41.3372   11.9558   19.9823  H     
48   H        39.5366    8.3412   15.4564  H     
49   H        40.3671    8.7526   13.9314  H     
50   H        36.0469    7.4362   12.4097  H     
51   H        37.9807    8.1358   13.6631  H     
52   H        39.6957    4.3148   13.1426  H     
53   H        35.9115    5.2189   11.4944  H     
54   H        41.1161    6.4802   13.6369  H     
55   H        40.3467    5.9536   15.1369  H     
56   H        38.2285    2.6047   12.2650  H     
@<TRIPOS>BOND
     1    1    2 1
     2    1   11 2
     3    2    3 2
     4    3    4 1
     5    3    5 1
     6    4   10 2
     7    5    7 1
     8    6    7 1
     9    7    8 2
    10    7    9 2
    11   10   11 1
    12   10   12 1
    13   11   13 1
    14   12   15 1
    15   13   14 1
    16   14   15 1
    17   14   16 1
    18   15   20 am
    19   16   17 2
    20   16   18 am
    21   18   19 1
    22   20   21 2
    23   20   22 1
    24   22   29 1
    25   23   25 2
    26   23   26 1
    27   23   29 1
    28   24   25 1
    29   24   28 2
    30   26   27 2
    31   27   28 1
    32   27   30 1
    33   30   33 1
    34   31   33 2
    35   32   33 2
    36   33   34 1
    37    1   35 1
    38    2   36 1
    39    4   37 1
    40    5   38 1
    41   12   39 1
    42   12   40 1
    43   13   41 1
    44   13   42 1
    45   14   43 1
    46   18   44 1
    47   19   45 1
    48   19   46 1
    49   19   47 1
    50   22   48 1
    51   22   49 1
    52   24   50 1
    53   25   51 1
    54   26   52 1
    55   28   53 1
    56   29   54 1
    57   29   55 1
    58   30   56 1
@<TRIPOS>PROPERTY_DATA
  Total_Score	| 12.0394
  Crash		| -1.6603
  Polar		| 6.8872
  FragIndex	| 1
  FragRMSD	| 0.774

