@<TRIPOS>MOLECULE
BindingDB_13443
 51 53 0 0 0
SMALL
NO_CHARGES


@<TRIPOS>ATOM
1    C        43.9969   13.5884   15.9337  C     
2    C        43.4607   14.6950   15.2525  C     
3    C        42.3972   14.5229   14.3435  C     
4    C        41.8451   13.2364   14.1660  C     
5    N        41.9096   15.5948   13.6792  N     
6    O        41.0992   16.7890   11.3204  O     
7    S        42.2747   15.8217   12.0472  S     
8    O        43.7165   16.6936   11.9676  O     
9    O        42.4397   14.3763   11.1823  O     
10   C        42.3448   12.1266   14.8834  C     
11   C        43.4464   12.3022   15.7500  C     
12   C        41.7337   10.7826   14.7116  C     
13   C        44.0607   11.1122   16.3772  C     
14   C        43.0103   10.0284   16.7537  C     
15   N        42.0872    9.7212   15.6534  N     
16   C        42.3125   10.3611   17.9999  C     
17   O        42.5824    9.7119   19.0040  O     
18   N        41.4272   11.3491   18.0635  N     
19   C        40.6810   11.7091   19.2261  C     
20   C        41.5233    8.4924   15.5454  C     
21   O        41.8742    7.6003   16.3115  O     
22   C        40.4596    8.1470   14.5904  C     
23   C        39.8604    6.7108   14.6679  C     
24   C        38.7041    6.5067   13.7499  C     
25   C        38.8085    5.6651   12.6180  C     
26   C        37.6991    5.4409   11.7811  C     
27   C        36.4694    6.0597   12.0620  C     
28   C        36.3498    6.9072   13.1773  C     
29   C        37.4580    7.1297   14.0151  C     
30   H        44.8051   13.7231   16.5449  H     
31   H        43.8772   15.6214   15.3996  H     
32   H        41.0513   13.1179   13.5323  H     
33   H        41.7858   16.4128   14.1935  H     
34   H        40.6480   10.9236   14.7448  H     
35   H        42.0128   10.4590   13.7062  H     
36   H        44.7431   10.6850   15.6376  H     
37   H        44.6583   11.3822   17.2535  H     
38   H        43.6268    9.1397   16.9500  H     
39   H        41.2471   11.8533   17.2576  H     
40   H        40.0952   10.8581   19.5793  H     
41   H        39.9984   12.5214   18.9768  H     
42   H        41.3497   12.0442   20.0206  H     
43   H        39.6481    8.8632   14.7410  H     
44   H        40.8453    8.2776   13.5765  H     
45   H        40.6580    5.9988   14.4411  H     
46   H        39.5250    6.5005   15.6879  H     
47   H        39.6925    5.2031   12.3943  H     
48   H        37.7862    4.8212   10.9725  H     
49   H        35.6624    5.8856   11.4609  H     
50   H        35.4519    7.3523   13.3819  H     
51   H        37.3457    7.7366   14.8312  H     
@<TRIPOS>BOND
     1    1    2 1
     2    1   11 2
     3    2    3 2
     4    3    4 1
     5    3    5 1
     6    4   10 2
     7    5    7 1
     8    6    7 1
     9    7    8 2
    10    7    9 2
    11   10   11 1
    12   10   12 1
    13   11   13 1
    14   12   15 1
    15   13   14 1
    16   14   15 1
    17   14   16 1
    18   15   20 am
    19   16   17 2
    20   16   18 am
    21   18   19 1
    22   20   21 2
    23   20   22 1
    24   22   23 1
    25   23   24 1
    26   24   25 2
    27   24   29 1
    28   25   26 1
    29   26   27 2
    30   27   28 1
    31   28   29 2
    32    1   30 1
    33    2   31 1
    34    4   32 1
    35    5   33 1
    36   12   34 1
    37   12   35 1
    38   13   36 1
    39   13   37 1
    40   14   38 1
    41   18   39 1
    42   19   40 1
    43   19   41 1
    44   19   42 1
    45   22   43 1
    46   22   44 1
    47   23   45 1
    48   23   46 1
    49   25   47 1
    50   26   48 1
    51   27   49 1
    52   28   50 1
    53   29   51 1
@<TRIPOS>PROPERTY_DATA
  Total_Score	| 11.3628
  Crash		| -1.2979
  Polar		| 5.8589
  FragIndex	| 1
  FragRMSD	| 0.727

