@<TRIPOS>MOLECULE
BindingDB_50355500
 68 72 0 0 0
SMALL
NO_CHARGES


@<TRIPOS>ATOM
1    C       -26.2087   -5.1414   20.6504  C     
2    C       -27.0677   -4.9387   21.7383  C     
3    C       -27.9048   -3.8086   21.7309  C     
4    C       -27.8648   -2.8758   20.6609  C     
5    C       -26.9701   -3.1084   19.5808  C     
6    C       -26.1586   -4.2649   19.5655  C     
7    C       -28.7675   -1.6909   20.6765  C     
8    N       -28.0715   -0.4059   20.9865  N     
9    C       -28.8683    0.7919   20.5849  C     
10   C       -28.0057    2.0759   20.7063  C     
11   N       -27.3974    2.2538   22.0681  N     
12   C       -26.7573    0.9976   22.5671  C     
13   C       -27.6393   -0.2645   22.4182  C     
14   C       -28.3079    2.9133   23.0473  C     
15   N       -25.3520   -6.1441   20.4468  N     
16   C       -24.7731   -5.9099   19.2632  C     
17   N       -25.2617   -4.7830   18.6922  N     
18   C       -24.9181   -4.3669   17.4367  C     
19   C       -25.7366   -3.7620   16.4762  C     
20   C       -25.1311   -3.5059   15.2287  C     
21   C       -23.7859   -3.9107   15.1306  C     
22   S       -23.3985   -4.6028   16.6612  S     
23   C       -22.9203   -3.8194   14.0518  C     
24   O       -21.7375   -4.1279   14.1678  O     
25   N       -23.3005   -3.4085   12.8609  N     
26   O       -25.7355   -2.8624   14.1790  O     
27   C       -26.6577   -1.7691   14.4068  C     
28   C       -26.2999   -0.8346   15.5324  C     
29   C       -26.7663   -0.9946   13.0668  C     
30   C       -24.9745   -0.3228   15.5626  C     
31   C       -24.5287    0.4890   16.6155  C     
32   C       -25.4077    0.8443   17.6422  C     
33   C       -26.7298    0.3843   17.6057  C     
34   C       -27.2150   -0.4537   16.5738  C     
35   C       -28.6454   -0.8774   16.6053  C     
36   F       -29.4114   -0.2579   17.5626  F     
37   F       -29.2853   -0.5936   15.4306  F     
38   F       -28.7317   -2.2141   16.8724  F     
39   H       -27.0919   -5.6006   22.5172  H     
40   H       -28.5445   -3.6687   22.5160  H     
41   H       -26.9223   -2.4409   18.8107  H     
42   H       -29.2415   -1.6298   19.6916  H     
43   H       -29.5778   -1.8306   21.3937  H     
44   H       -27.2201   -0.3983   20.4204  H     
45   H       -29.1890    0.6897   19.5460  H     
46   H       -29.7721    0.8861   21.1957  H     
47   H       -27.1803    2.0259   19.9937  H     
48   H       -28.6058    2.9472   20.4256  H     
49   H       -26.6059    2.8946   21.9482  H     
50   H       -25.8473    0.8356   21.9833  H     
51   H       -26.4498    1.1112   23.6132  H     
52   H       -28.5049   -0.1992   23.0881  H     
53   H       -27.0439   -1.1296   22.7195  H     
54   H       -29.1794    2.2879   23.2687  H     
55   H       -28.6490    3.8745   22.6583  H     
56   H       -27.7741    3.1181   23.9835  H     
57   H       -24.0885   -6.5503   18.8508  H     
58   H       -26.7151   -3.5478   16.6512  H     
59   H       -22.6670   -3.3625   12.1298  H     
60   H       -24.2215   -3.1611   12.6962  H     
61   H       -27.6251   -2.2442   14.5828  H     
62   H       -25.7998   -0.5654   12.7867  H     
63   H       -27.4947   -0.1858   13.1526  H     
64   H       -27.0882   -1.6667   12.2668  H     
65   H       -24.3102   -0.5495   14.8129  H     
66   H       -23.5658    0.8186   16.6388  H     
67   H       -25.0841    1.4289   18.4194  H     
68   H       -27.3383    0.6801   18.3684  H     
@<TRIPOS>BOND
     1    1    2 1
     2    1    6 2
     3    1   15 1
     4    2    3 2
     5    3    4 1
     6    4    5 2
     7    4    7 1
     8    5    6 1
     9    6   17 1
    10    7    8 1
    11    8    9 1
    12    8   13 1
    13    9   10 1
    14   10   11 1
    15   11   12 1
    16   11   14 1
    17   12   13 1
    18   15   16 2
    19   16   17 1
    20   17   18 1
    21   18   19 2
    22   18   22 1
    23   19   20 1
    24   20   21 2
    25   20   26 1
    26   21   22 1
    27   21   23 1
    28   23   24 2
    29   23   25 am
    30   26   27 1
    31   27   28 1
    32   27   29 1
    33   28   30 1
    34   28   34 2
    35   30   31 2
    36   31   32 1
    37   32   33 2
    38   33   34 1
    39   34   35 1
    40   35   36 1
    41   35   37 1
    42   35   38 1
    43    2   39 1
    44    3   40 1
    45    5   41 1
    46    7   42 1
    47    7   43 1
    48    8   44 1
    49    9   45 1
    50    9   46 1
    51   10   47 1
    52   10   48 1
    53   11   49 1
    54   12   50 1
    55   12   51 1
    56   13   52 1
    57   13   53 1
    58   14   54 1
    59   14   55 1
    60   14   56 1
    61   16   57 1
    62   19   58 1
    63   25   59 1
    64   25   60 1
    65   27   61 1
    66   29   62 1
    67   29   63 1
    68   29   64 1
    69   30   65 1
    70   31   66 1
    71   32   67 1
    72   33   68 1
@<TRIPOS>PROPERTY_DATA
  Total_Score	| 8.5889
  Crash		| -1.6272
  Polar		| 5.1719
  FragIndex	| 1
  FragRMSD	| 0.437

