@<TRIPOS>MOLECULE
BindingDB_50339795
 63 67 0 0 0
SMALL
NO_CHARGES


@<TRIPOS>ATOM
1    C       -28.1513    3.0910   23.3101  C     
2    N       -27.4260    2.2186   22.3309  N     
3    C       -26.8822    0.9559   22.9244  C     
4    C       -27.9460   -0.1663   23.1011  C     
5    C       -28.6312   -0.4900   21.7452  C     
6    O       -27.7175   -1.0451   20.7530  O     
7    C       -27.2542   -2.3478   20.7897  C     
8    C       -27.4670   -3.2756   21.8462  C     
9    C       -26.9480   -4.5884   21.7777  C     
10   C       -26.1695   -4.9418   20.6659  C     
11   N       -25.5490   -6.0962   20.4010  N     
12   C       -24.9472   -5.9426   19.2094  C     
13   N       -25.2061   -4.7228   18.6932  N     
14   C       -24.8253   -4.3259   17.4482  C     
15   C       -25.6157   -3.6552   16.5074  C     
16   C       -24.9906   -3.3727   15.2751  C     
17   O       -25.5670   -2.6604   14.2487  O     
18   C       -26.5468   -1.6298   14.5203  C     
19   C       -26.2321   -0.7228   15.6732  C     
20   C       -24.9145   -0.1924   15.7286  C     
21   C       -24.5012    0.6244   16.7930  C     
22   C       -25.4145    0.9764   17.7976  C     
23   C       -26.7375    0.5178   17.7201  C     
24   C       -27.1769   -0.3500   16.6807  C     
25   C       -28.5973   -0.8265   16.6818  C     
26   F       -29.4018   -0.3056   17.6716  F     
27   F       -29.2265   -0.5007   15.5003  F     
28   F       -28.6500   -2.1893   16.8649  F     
29   C       -23.6798   -3.8791   15.1596  C     
30   C       -22.8092   -3.8237   14.0758  C     
31   N       -23.1426   -3.3158   12.9076  N     
32   O       -21.6741   -4.2779   14.1581  O     
33   S       -23.3252   -4.6515   16.6608  S     
34   C       -25.9493   -4.0597   19.6068  C     
35   C       -26.4821   -2.7521   19.6732  C     
36   C       -29.2311    0.8225   21.1687  C     
37   C       -28.1861    1.9665   21.0658  C     
38   H       -29.0549    2.6135   23.6931  H     
39   H       -28.4309    4.0322   22.8362  H     
40   H       -27.4962    3.3295   24.1539  H     
41   H       -26.5938    2.7573   22.0556  H     
42   H       -26.0996    0.5793   22.2553  H     
43   H       -26.4007    1.1577   23.8861  H     
44   H       -27.4715   -1.0552   23.5082  H     
45   H       -28.6972    0.1626   23.8355  H     
46   H       -29.4601   -1.1871   21.9182  H     
47   H       -28.0419   -3.0380   22.6552  H     
48   H       -27.1190   -5.2592   22.5360  H     
49   H       -24.4139   -6.6748   18.7355  H     
50   H       -26.5873   -3.4070   16.6986  H     
51   H       -26.6256   -1.0155   13.6183  H     
52   H       -27.5066   -2.1361   14.6357  H     
53   H       -24.2225   -0.4396   15.0206  H     
54   H       -23.5378    0.9523   16.8454  H     
55   H       -25.1189    1.5828   18.5654  H     
56   H       -27.3843    0.8279   18.4401  H     
57   H       -22.5226   -3.3534   12.1633  H     
58   H       -24.0246   -2.9402   12.7625  H     
59   H       -26.2958   -2.0832   18.9243  H     
60   H       -29.6544    0.6346   20.1813  H     
61   H       -30.0494    1.1608   21.8210  H     
62   H       -28.6759    2.8871   20.7225  H     
63   H       -27.4430    1.7045   20.3062  H     
@<TRIPOS>BOND
     1    1    2 1
     2    2    3 1
     3    2   37 1
     4    3    4 1
     5    4    5 1
     6    5    6 1
     7    5   36 1
     8    6    7 1
     9    7    8 1
    10    7   35 2
    11    8    9 2
    12    9   10 1
    13   10   11 1
    14   10   34 2
    15   11   12 2
    16   12   13 1
    17   13   14 1
    18   13   34 1
    19   14   15 2
    20   14   33 1
    21   15   16 1
    22   16   17 1
    23   16   29 2
    24   17   18 1
    25   18   19 1
    26   19   20 2
    27   19   24 1
    28   20   21 1
    29   21   22 2
    30   22   23 1
    31   23   24 2
    32   24   25 1
    33   25   26 1
    34   25   27 1
    35   25   28 1
    36   29   30 1
    37   29   33 1
    38   30   31 am
    39   30   32 2
    40   34   35 1
    41   36   37 1
    42    1   38 1
    43    1   39 1
    44    1   40 1
    45    2   41 1
    46    3   42 1
    47    3   43 1
    48    4   44 1
    49    4   45 1
    50    5   46 1
    51    8   47 1
    52    9   48 1
    53   12   49 1
    54   15   50 1
    55   18   51 1
    56   18   52 1
    57   20   53 1
    58   21   54 1
    59   22   55 1
    60   23   56 1
    61   31   57 1
    62   31   58 1
    63   35   59 1
    64   36   60 1
    65   36   61 1
    66   37   62 1
    67   37   63 1
@<TRIPOS>PROPERTY_DATA
  Total_Score	| 8.6766
  Crash		| -0.6965
  Polar		| 5.3482
  FragIndex	| 1
  FragRMSD	| 0.328

