@<TRIPOS>MOLECULE
BindingDB_50339793
 60 64 0 0 0
SMALL
NO_CHARGES


@<TRIPOS>ATOM
1    C       -27.7109    1.7225   20.7672  C     
2    N       -27.4428    2.3215   22.1087  N     
3    C       -27.0599    1.3046   23.1399  C     
4    C       -27.9796    0.0519   23.1902  C     
5    C       -28.1607   -0.5762   21.7801  C     
6    C       -28.6752    0.5038   20.7914  C     
7    C       -28.5040    3.2691   22.5645  C     
8    O       -26.8844   -1.0749   21.3091  O     
9    C       -26.6976   -2.4168   21.1011  C     
10   C       -26.1281   -2.8258   19.8731  C     
11   C       -26.6572   -4.7428   21.8993  C     
12   C       -26.9529   -3.3791   22.1126  C     
13   C       -26.0747   -5.1143   20.6780  C     
14   C       -25.8174   -4.1857   19.6691  C     
15   N       -25.2242   -4.8571   18.6594  N     
16   C       -25.1300   -6.1481   19.0545  C     
17   N       -25.6538   -6.3224   20.2781  N     
18   C       -24.8329   -4.3991   17.4382  C     
19   C       -25.5965   -3.6382   16.5479  C     
20   C       -25.0002   -3.3852   15.2962  C     
21   C       -23.7125   -3.9450   15.1433  C     
22   S       -23.3606   -4.7632   16.6188  S     
23   C       -22.8672   -3.8987   14.0489  C     
24   N       -23.2632   -3.4867   12.8607  N     
25   O       -21.7128   -4.2861   14.1407  O     
26   O       -25.5760   -2.6760   14.2720  O     
27   C       -26.5264   -1.6264   14.5322  C     
28   C       -26.1581   -0.7013   15.6373  C     
29   C       -27.1366   -0.2491   16.5520  C     
30   C       -26.7920    0.6393   17.5897  C     
31   C       -25.4568    1.0508   17.7587  C     
32   C       -24.4728    0.6023   16.8607  C     
33   C       -24.8263   -0.2468   15.7931  C     
34   H       -28.1080    2.4741   20.0794  H     
35   H       -26.7501    1.4046   20.3571  H     
36   H       -26.6107    2.8992   21.9705  H     
37   H       -26.0477    0.9729   22.9079  H     
38   H       -27.0172    1.7527   24.1356  H     
39   H       -27.5440   -0.6848   23.8685  H     
40   H       -28.9554    0.3376   23.5878  H     
41   H       -28.9144   -1.3774   21.8326  H     
42   H       -29.6732    0.8342   21.0915  H     
43   H       -28.7451    0.0706   19.7892  H     
44   H       -28.6531    4.0533   21.8166  H     
45   H       -28.1998    3.7603   23.4898  H     
46   H       -29.4566    2.7588   22.7314  H     
47   H       -25.9079   -2.1341   19.1499  H     
48   H       -26.8337   -5.4379   22.6251  H     
49   H       -27.3350   -3.0891   23.0178  H     
50   H       -24.7392   -6.9125   18.4970  H     
51   H       -26.5370   -3.3216   16.7881  H     
52   H       -22.6486   -3.4854   12.1114  H     
53   H       -24.1797   -3.2116   12.7156  H     
54   H       -26.6058   -1.0379   13.6155  H     
55   H       -27.5014   -2.0797   14.7160  H     
56   H       -28.1108   -0.5503   16.4693  H     
57   H       -27.5172    0.9778   18.2256  H     
58   H       -25.2039    1.6883   18.5193  H     
59   H       -23.5008    0.8972   16.9825  H     
60   H       -24.0999   -0.5548   15.1453  H     
@<TRIPOS>BOND
     1    1    2 1
     2    1    6 1
     3    2    3 1
     4    2    7 1
     5    3    4 1
     6    4    5 1
     7    5    6 1
     8    5    8 1
     9    8    9 1
    10    9   10 2
    11    9   12 1
    12   10   14 1
    13   11   12 2
    14   11   13 1
    15   13   14 2
    16   13   17 1
    17   14   15 1
    18   15   16 1
    19   15   18 1
    20   16   17 2
    21   18   19 2
    22   18   22 1
    23   19   20 1
    24   20   21 2
    25   20   26 1
    26   21   22 1
    27   21   23 1
    28   23   24 am
    29   23   25 2
    30   26   27 1
    31   27   28 1
    32   28   29 2
    33   28   33 1
    34   29   30 1
    35   30   31 2
    36   31   32 1
    37   32   33 2
    38    1   34 1
    39    1   35 1
    40    2   36 1
    41    3   37 1
    42    3   38 1
    43    4   39 1
    44    4   40 1
    45    5   41 1
    46    6   42 1
    47    6   43 1
    48    7   44 1
    49    7   45 1
    50    7   46 1
    51   10   47 1
    52   11   48 1
    53   12   49 1
    54   16   50 1
    55   19   51 1
    56   24   52 1
    57   24   53 1
    58   27   54 1
    59   27   55 1
    60   29   56 1
    61   30   57 1
    62   31   58 1
    63   32   59 1
    64   33   60 1
@<TRIPOS>PROPERTY_DATA
  Total_Score	| 7.8025
  Crash		| -0.6840
  Polar		| 5.2748
  FragIndex	| 1
  FragRMSD	| 0.276

