@<TRIPOS>MOLECULE
BindingDB_50339798
 46 49 0 0 0
SMALL
NO_CHARGES


@<TRIPOS>ATOM
1    C       -26.9664   -2.2868   20.6846  C     
2    C       -26.2543   -2.7754   19.5689  C     
3    C       -26.8821   -4.5061   21.7368  C     
4    C       -27.2705   -3.1424   21.7685  C     
5    C       -26.1788   -4.9771   20.6125  C     
6    C       -25.8774   -4.1385   19.5385  C     
7    N       -25.2117   -4.8833   18.6333  N     
8    C       -25.1040   -6.1342   19.1397  C     
9    N       -25.6913   -6.1990   20.3521  N     
10   C       -24.8212   -4.5018   17.3945  C     
11   C       -25.6357   -3.8238   16.4917  C     
12   C       -25.0420   -3.4922   15.2620  C     
13   C       -23.7177   -3.9573   15.1272  C     
14   S       -23.3271   -4.7705   16.5982  S     
15   C       -22.8523   -3.8479   14.0491  C     
16   N       -23.2411   -3.3929   12.8792  N     
17   O       -21.6825   -4.1854   14.1503  O     
18   O       -25.6685   -2.7668   14.2705  O     
19   C       -26.6662   -1.7530   14.5609  C     
20   C       -26.3054   -0.8078   15.6761  C     
21   C       -26.8854   -0.9896   13.2409  C     
22   C       -27.2181   -0.3874   16.7039  C     
23   C       -26.7367    0.4947   17.7131  C     
24   C       -25.4087    0.9532   17.7181  C     
25   C       -24.5284    0.5542   16.7166  C     
26   C       -24.9769   -0.3126   15.7049  C     
27   C       -28.6617   -0.8125   16.7823  C     
28   F       -29.4519   -0.1158   17.6721  F     
29   F       -29.2976   -0.6454   15.5796  F     
30   F       -28.7532   -2.1251   17.1665  F     
31   H       -27.2441   -1.2972   20.7233  H     
32   H       -26.0221   -2.1504   18.7977  H     
33   H       -27.0786   -5.1258   22.5280  H     
34   H       -27.7743   -2.7736   22.5802  H     
35   H       -24.6995   -6.9337   18.6575  H     
36   H       -26.6048   -3.6075   16.7183  H     
37   H       -22.6173   -3.3534   12.1300  H     
38   H       -24.1657   -3.1441   12.7336  H     
39   H       -27.5866   -2.2944   14.7847  H     
40   H       -25.9410   -0.6038   12.8519  H     
41   H       -27.5776   -0.1632   13.3832  H     
42   H       -27.3178   -1.6667   12.5117  H     
43   H       -27.3326    0.8063   18.4850  H     
44   H       -25.0784    1.5728   18.4614  H     
45   H       -23.5569    0.8747   16.7167  H     
46   H       -24.3046   -0.5918   14.9903  H     
@<TRIPOS>BOND
     1    1    2 2
     2    1    4 1
     3    2    6 1
     4    3    4 2
     5    3    5 1
     6    5    6 2
     7    5    9 1
     8    6    7 1
     9    7    8 1
    10    7   10 1
    11    8    9 2
    12   10   11 2
    13   10   14 1
    14   11   12 1
    15   12   13 2
    16   12   18 1
    17   13   14 1
    18   13   15 1
    19   15   16 am
    20   15   17 2
    21   18   19 1
    22   19   20 1
    23   19   21 1
    24   20   22 2
    25   20   26 1
    26   22   23 1
    27   22   27 1
    28   23   24 2
    29   24   25 1
    30   25   26 2
    31   27   28 1
    32   27   29 1
    33   27   30 1
    34    1   31 1
    35    2   32 1
    36    3   33 1
    37    4   34 1
    38    8   35 1
    39   11   36 1
    40   16   37 1
    41   16   38 1
    42   19   39 1
    43   21   40 1
    44   21   41 1
    45   21   42 1
    46   23   43 1
    47   24   44 1
    48   25   45 1
    49   26   46 1
@<TRIPOS>PROPERTY_DATA
  Total_Score	| 6.5787
  Crash		| -0.1885
  Polar		| 3.0630
  FragIndex	| 1
  FragRMSD	| 0.326

