@<TRIPOS>MOLECULE
BindingDB_50385917
 68 71 0 0 0
SMALL
NO_CHARGES


@<TRIPOS>ATOM
1    C       -26.4325   -4.7099   21.2958  C     
2    C       -26.2521   -3.4607   20.6564  C     
3    N       -25.6588   -3.4724   19.4318  N     
4    C       -25.2425   -4.5927   18.7887  C     
5    C       -25.4353   -5.8321   19.4440  C     
6    N       -26.0217   -5.8405   20.6681  N     
7    C       -26.6064   -2.2244   21.2476  C     
8    C       -27.5985   -2.1409   22.2549  C     
9    C       -27.9244   -0.9082   22.8399  C     
10   C       -27.2542    0.2785   22.4582  C     
11   C       -26.2768    0.1943   21.4419  C     
12   C       -25.9662   -1.0320   20.8306  C     
13   C       -27.5415    1.5806   23.1180  C     
14   N       -27.6444    2.7619   22.1952  N     
15   C       -28.3393    2.4643   20.9037  C     
16   C       -28.2845    3.9301   22.8709  C     
17   N       -25.0784   -7.0008   18.8889  N     
18   C       -24.6436   -4.4414   17.5209  C     
19   C       -25.4108   -3.9334   16.4489  C     
20   C       -24.8119   -3.5703   15.2257  C     
21   C       -23.4247   -3.8377   15.0048  C     
22   C       -22.6767   -4.3820   16.0880  C     
23   C       -23.2710   -4.6619   17.3278  C     
24   C       -22.7752   -3.5862   13.7867  C     
25   O       -21.5528   -3.6472   13.6815  O     
26   N       -23.3843   -3.3466   12.6361  N     
27   O       -25.5415   -2.8998   14.2682  O     
28   C       -26.5736   -1.9299   14.5911  C     
29   C       -26.2440   -0.9460   15.6802  C     
30   C       -26.9358   -1.1919   13.2646  C     
31   C       -24.9259   -0.4140   15.6869  C     
32   C       -24.4847    0.4588   16.6956  C     
33   C       -25.3657    0.8446   17.7108  C     
34   C       -26.6830    0.3620   17.7118  C     
35   C       -27.1534   -0.5395   16.7186  C     
36   C       -28.5820   -1.0086   16.7997  C     
37   F       -29.3529   -0.4026   17.7656  F     
38   F       -29.2480   -0.7696   15.6218  F     
39   F       -28.6390   -2.3483   17.0896  F     
40   H       -26.8429   -4.7826   22.2245  H     
41   H       -28.0976   -2.9841   22.5566  H     
42   H       -28.6458   -0.8819   23.5610  H     
43   H       -25.7762    1.0263   21.1436  H     
44   H       -25.2400   -1.0535   20.1080  H     
45   H       -28.4566    1.5174   23.7204  H     
46   H       -26.7109    1.7464   23.8108  H     
47   H       -26.6798    3.0429   21.9764  H     
48   H       -27.8262    1.6702   20.3566  H     
49   H       -28.3378    3.3511   20.2566  H     
50   H       -29.3757    2.1477   21.0747  H     
51   H       -29.3281    3.7217   23.1260  H     
52   H       -28.2535    4.8054   22.2163  H     
53   H       -27.7499    4.1844   23.7881  H     
54   H       -25.2379   -7.8352   19.3540  H     
55   H       -24.6869   -7.0216   18.0006  H     
56   H       -26.4059   -3.7889   16.5810  H     
57   H       -21.6736   -4.5663   15.9973  H     
58   H       -22.6901   -5.0034   18.1013  H     
59   H       -22.8555   -3.2383   11.8227  H     
60   H       -24.3556   -3.3623   12.5767  H     
61   H       -27.4601   -2.5129   14.8400  H     
62   H       -26.0498   -0.7057   12.8518  H     
63   H       -27.7049   -0.4354   13.4402  H     
64   H       -27.3190   -1.9048   12.5313  H     
65   H       -24.2580   -0.6727   14.9631  H     
66   H       -23.5287    0.8084   16.6975  H     
67   H       -25.0516    1.4796   18.4484  H     
68   H       -27.2895    0.6740   18.4659  H     
@<TRIPOS>BOND
     1    1    2 2
     2    1    6 1
     3    2    3 1
     4    2    7 1
     5    3    4 2
     6    4    5 1
     7    4   18 1
     8    5    6 2
     9    5   17 1
    10    7    8 2
    11    7   12 1
    12    8    9 1
    13    9   10 2
    14   10   11 1
    15   10   13 1
    16   11   12 2
    17   13   14 1
    18   14   15 1
    19   14   16 1
    20   18   19 2
    21   18   23 1
    22   19   20 1
    23   20   21 2
    24   20   27 1
    25   21   22 1
    26   21   24 1
    27   22   23 2
    28   24   25 2
    29   24   26 am
    30   27   28 1
    31   28   29 1
    32   28   30 1
    33   29   31 2
    34   29   35 1
    35   31   32 1
    36   32   33 2
    37   33   34 1
    38   34   35 2
    39   35   36 1
    40   36   37 1
    41   36   38 1
    42   36   39 1
    43    1   40 1
    44    8   41 1
    45    9   42 1
    46   11   43 1
    47   12   44 1
    48   13   45 1
    49   13   46 1
    50   14   47 1
    51   15   48 1
    52   15   49 1
    53   15   50 1
    54   16   51 1
    55   16   52 1
    56   16   53 1
    57   17   54 1
    58   17   55 1
    59   19   56 1
    60   22   57 1
    61   23   58 1
    62   26   59 1
    63   26   60 1
    64   28   61 1
    65   30   62 1
    66   30   63 1
    67   30   64 1
    68   31   65 1
    69   32   66 1
    70   33   67 1
    71   34   68 1
@<TRIPOS>PROPERTY_DATA
  Total_Score	| 11.0204
  Crash		| -1.6469
  Polar		| 6.1694
  FragIndex	| 1
  FragRMSD	| 0.210

