@<TRIPOS>MOLECULE
BindingDB_28216
 66 70 0 0 0
SMALL
NO_CHARGES


@<TRIPOS>ATOM
1    S       -23.2098   -4.5414   16.7079  S     
2    C       -24.6950   -4.2784   17.5358  C     
3    C       -25.5565   -3.7074   16.5979  C     
4    C       -25.0083   -3.4514   15.3253  C     
5    C       -23.6729   -3.8754   15.1842  C     
6    C       -22.8535   -3.8041   14.0673  C     
7    O       -21.6675   -4.0910   14.1456  O     
8    N       -23.3038   -3.4644   12.8770  N     
9    O       -25.6757   -2.8239   14.2976  O     
10   C       -26.6656   -1.7946   14.5479  C     
11   C       -26.3197   -0.8298   15.6537  C     
12   C       -24.9913   -0.3287   15.6773  C     
13   C       -27.2322   -0.4240   16.6854  C     
14   C       -26.7522    0.4500   17.6978  C     
15   C       -25.4219    0.8974   17.7242  C     
16   C       -24.5397    0.5078   16.7098  C     
17   N       -25.0645   -4.6560   18.7900  N     
18   C       -24.8688   -5.8865   19.3078  C     
19   N       -25.5681   -6.0407   20.4472  N     
20   C       -26.1946   -4.8784   20.6689  C     
21   C       -25.8543   -3.9857   19.6557  C     
22   C       -27.0960   -4.5223   21.6827  C     
23   C       -27.6356   -3.2221   21.6702  C     
24   C       -27.2295   -2.2565   20.7186  C     
25   C       -26.3480   -2.6622   19.6866  C     
26   O       -27.6497   -0.9418   20.7046  O     
27   C       -28.6628   -0.8768   16.7469  C     
28   C       -26.8797   -1.0418   13.2135  C     
29   C       -28.6301   -0.3712   21.6093  C     
30   F       -29.4334   -0.2884   17.7194  F     
31   F       -29.3147   -0.6075   15.5704  F     
32   F       -28.7412   -2.2193   17.0091  F     
33   C       -28.1078   -0.0373   23.0425  C     
34   C       -26.9721    1.0165   22.9733  C     
35   N       -27.3940    2.2865   22.2931  N     
36   C       -28.0201    2.0381   20.9574  C     
37   C       -29.1302    0.9511   20.9640  C     
38   C       -28.1762    3.2117   23.1648  C     
39   H       -26.5268   -3.5060   16.8259  H     
40   H       -22.7084   -3.4501   12.1115  H     
41   H       -24.2373   -3.2480   12.7479  H     
42   H       -27.5948   -2.3223   14.7599  H     
43   H       -24.3211   -0.5961   14.9525  H     
44   H       -27.3652    0.7676   18.4473  H     
45   H       -25.0960    1.5054   18.4803  H     
46   H       -23.5680    0.8239   16.7298  H     
47   H       -24.3403   -6.6389   18.8629  H     
48   H       -27.3783   -5.2029   22.3916  H     
49   H       -28.3328   -2.9723   22.3642  H     
50   H       -26.0632   -1.9994   18.9652  H     
51   H       -25.9433   -0.6052   12.8605  H     
52   H       -27.6151   -0.2431   13.3324  H     
53   H       -27.2475   -1.7328   12.4515  H     
54   H       -29.4892   -1.0472   21.6850  H     
55   H       -28.9315    0.3944   23.6120  H     
56   H       -27.8176   -0.9227   23.6143  H     
57   H       -26.6216    1.2238   23.9862  H     
58   H       -26.1314    0.5890   22.4240  H     
59   H       -26.5377    2.7990   22.0726  H     
60   H       -28.4295    2.9621   20.5434  H     
61   H       -27.2235    1.7226   20.2799  H     
62   H       -29.4546    0.7638   19.9405  H     
63   H       -29.9976    1.3248   21.5138  H     
64   H       -29.1590    2.8090   23.4121  H     
65   H       -28.3081    4.1709   22.6656  H     
66   H       -27.6384    3.4053   24.0933  H     
@<TRIPOS>BOND
     1    1    2 1
     2    1    5 1
     3    2    3 2
     4    2   17 1
     5    3    4 1
     6    4    5 2
     7    4    9 1
     8    5    6 1
     9    6    7 2
    10    6    8 am
    11   10    9 1
    12   10   11 1
    13   10   28 1
    14   11   12 1
    15   11   13 2
    16   12   16 2
    17   13   14 1
    18   13   27 1
    19   14   15 2
    20   15   16 1
    21   17   18 1
    22   17   21 1
    23   18   19 2
    24   19   20 1
    25   20   21 2
    26   20   22 1
    27   21   25 1
    28   22   23 2
    29   23   24 1
    30   24   25 2
    31   24   26 1
    32   26   29 1
    33   27   30 1
    34   27   31 1
    35   27   32 1
    36   29   33 1
    37   29   37 1
    38   33   34 1
    39   34   35 1
    40   35   36 1
    41   35   38 1
    42   36   37 1
    43    3   39 1
    44    8   40 1
    45    8   41 1
    46   10   42 1
    47   12   43 1
    48   14   44 1
    49   15   45 1
    50   16   46 1
    51   18   47 1
    52   22   48 1
    53   23   49 1
    54   25   50 1
    55   28   51 1
    56   28   52 1
    57   28   53 1
    58   29   54 1
    59   33   55 1
    60   33   56 1
    61   34   57 1
    62   34   58 1
    63   35   59 1
    64   36   60 1
    65   36   61 1
    66   37   62 1
    67   37   63 1
    68   38   64 1
    69   38   65 1
    70   38   66 1
@<TRIPOS>PROPERTY_DATA
  Total_Score	| 9.9414
  Crash		| -0.6277
  Polar		| 5.6421
  FragIndex	| 1
  FragRMSD	| 0.279

