@<TRIPOS>MOLECULE
BindingDB_50339794
 63 67 0 0 0
SMALL
NO_CHARGES


@<TRIPOS>ATOM
1    C       -26.8955    0.6896   22.5737  C     
2    N       -27.4569    1.8749   21.8465  N     
3    C       -28.2719    1.5010   20.6428  C     
4    C       -29.4054    0.4967   20.9905  C     
5    C       -28.8328   -0.7920   21.6367  C     
6    C       -27.9354   -0.4275   22.8621  C     
7    C       -28.1344    2.8558   22.7483  C     
8    O       -28.2624   -1.5166   20.5342  O     
9    C       -27.4735   -2.6061   20.7000  C     
10   C       -26.5839   -2.8958   19.6509  C     
11   C       -26.9270   -4.7361   21.7684  C     
12   C       -27.6384   -3.5174   21.7682  C     
13   C       -26.1059   -5.0334   20.6666  C     
14   C       -25.9404   -4.1484   19.6007  C     
15   N       -25.1526   -4.7564   18.6871  N     
16   C       -24.8124   -5.9531   19.2173  C     
17   N       -25.3979   -6.1375   20.4121  N     
18   C       -24.8232   -4.3539   17.4192  C     
19   C       -25.6621   -3.7643   16.4641  C     
20   C       -25.0771   -3.5040   15.2067  C     
21   C       -23.7388   -3.9236   15.0900  C     
22   S       -23.3136   -4.5894   16.6213  S     
23   C       -22.8916   -3.8454   13.9936  C     
24   N       -23.3128   -3.5048   12.7928  N     
25   O       -21.7058   -4.1255   14.1017  O     
26   O       -25.7040   -2.8879   14.1525  O     
27   C       -26.5926   -1.7608   14.3313  C     
28   C       -26.2506   -0.7704   15.4057  C     
29   C       -27.2933   -0.1977   16.1767  C     
30   C       -27.0187    0.7385   17.1898  C     
31   C       -25.6903    1.0783   17.4922  C     
32   C       -24.6417    0.5175   16.7461  C     
33   C       -24.9221   -0.3665   15.6883  C     
34   C       -26.6383   -1.0637   12.9481  C     
35   H       -26.0551    0.2929   22.0095  H     
36   H       -26.4626    0.9993   23.5281  H     
37   H       -26.6455    2.3762   21.4858  H     
38   H       -28.7288    2.3935   20.2051  H     
39   H       -27.6119    1.0847   19.8670  H     
40   H       -30.1191    0.9647   21.6735  H     
41   H       -29.9477    0.2454   20.0764  H     
42   H       -29.6670   -1.3989   22.0029  H     
43   H       -27.4196   -1.3194   23.2262  H     
44   H       -28.5868   -0.0863   23.6704  H     
45   H       -28.9848    2.4108   23.2657  H     
46   H       -28.4844    3.7217   22.1831  H     
47   H       -27.4311    3.2257   23.4965  H     
48   H       -26.4239   -2.1873   18.9371  H     
49   H       -27.0436   -5.4097   22.5281  H     
50   H       -28.3001   -3.3130   22.5188  H     
51   H       -24.2356   -6.6663   18.7646  H     
52   H       -26.6443   -3.5642   16.6513  H     
53   H       -22.6966   -3.4813   12.0459  H     
54   H       -24.2480   -3.3076   12.6348  H     
55   H       -27.5920   -2.1596   14.5319  H     
56   H       -28.2681   -0.4530   16.0003  H     
57   H       -27.7847    1.1600   17.7199  H     
58   H       -25.4884    1.7387   18.2463  H     
59   H       -23.6751    0.7675   16.9620  H     
60   H       -24.1413   -0.7016   15.1250  H     
61   H       -25.6579   -0.6477   12.7010  H     
62   H       -27.3741   -0.2570   12.9385  H     
63   H       -26.9171   -1.7831   12.1729  H     
@<TRIPOS>BOND
     1    1    2 1
     2    1    6 1
     3    2    3 1
     4    2    7 1
     5    3    4 1
     6    4    5 1
     7    5    6 1
     8    5    8 1
     9    8    9 1
    10    9   10 2
    11    9   12 1
    12   10   14 1
    13   11   12 2
    14   11   13 1
    15   13   14 2
    16   13   17 1
    17   14   15 1
    18   15   16 1
    19   15   18 1
    20   16   17 2
    21   18   19 2
    22   18   22 1
    23   19   20 1
    24   20   21 2
    25   20   26 1
    26   21   22 1
    27   21   23 1
    28   23   24 am
    29   23   25 2
    30   26   27 1
    31   27   28 1
    32   27   34 1
    33   28   29 2
    34   28   33 1
    35   29   30 1
    36   30   31 2
    37   31   32 1
    38   32   33 2
    39    1   35 1
    40    1   36 1
    41    2   37 1
    42    3   38 1
    43    3   39 1
    44    4   40 1
    45    4   41 1
    46    5   42 1
    47    6   43 1
    48    6   44 1
    49    7   45 1
    50    7   46 1
    51    7   47 1
    52   10   48 1
    53   11   49 1
    54   12   50 1
    55   16   51 1
    56   19   52 1
    57   24   53 1
    58   24   54 1
    59   27   55 1
    60   29   56 1
    61   30   57 1
    62   31   58 1
    63   32   59 1
    64   33   60 1
    65   34   61 1
    66   34   62 1
    67   34   63 1
@<TRIPOS>PROPERTY_DATA
  Total_Score	| 8.8362
  Crash		| -0.5375
  Polar		| 5.2603
  FragIndex	| 1
  FragRMSD	| 0.417

