@<TRIPOS>MOLECULE
BindingDB_50339800
 69 73 0 0 0
SMALL
NO_CHARGES


@<TRIPOS>ATOM
1    C       -27.2362   -2.3034   20.6132  C     
2    C       -26.3307   -2.7662   19.6332  C     
3    C       -27.2940   -4.4991   21.6447  C     
4    C       -27.7312   -3.1529   21.6293  C     
5    C       -26.3900   -4.9459   20.6716  C     
6    C       -25.9213   -4.1123   19.6610  C     
7    N       -25.1055   -4.8522   18.8806  N     
8    C       -25.0498   -6.0819   19.4410  C     
9    N       -25.8414   -6.1560   20.5244  N     
10   C       -24.5124   -4.5001   17.6981  C     
11   C       -25.2781   -3.9130   16.6649  C     
12   C       -24.6940   -3.5700   15.4281  C     
13   C       -23.3310   -3.8835   15.1643  C     
14   C       -22.5650   -4.4456   16.2221  C     
15   C       -23.1463   -4.7507   17.4654  C     
16   C       -22.7192   -3.6456   13.9147  C     
17   O       -21.4957   -3.5990   13.8000  O     
18   N       -23.3678   -3.4852   12.7847  N     
19   O       -25.4362   -2.9478   14.4437  O     
20   C       -26.4880   -1.9814   14.6854  C     
21   C       -26.1961   -0.9334   15.7321  C     
22   C       -26.7502   -1.3315   13.3127  C     
23   C       -24.8779   -0.3976   15.7584  C     
24   C       -24.4854    0.5229   16.7448  C     
25   C       -25.4121    0.9676   17.7009  C     
26   C       -26.7379    0.4929   17.6573  C     
27   C       -27.1640   -0.4576   16.6883  C     
28   C       -28.5994   -0.9163   16.7279  C     
29   F       -29.3972   -0.2934   17.6556  F     
30   F       -29.2395   -0.7164   15.5329  F     
31   F       -28.6586   -2.2467   17.0598  F     
32   O       -28.6705   -2.6120   22.4864  O     
33   C       -28.9765   -3.1837   23.7766  C     
34   C       -27.8502   -2.9878   24.8263  C     
35   C       -27.6720   -1.4855   25.1718  C     
36   N       -28.9563   -0.8920   25.6579  N     
37   C       -30.0742   -1.0424   24.6709  C     
38   C       -30.2851   -2.5273   24.2905  C     
39   C       -28.7805    0.5262   26.0896  C     
40   H       -27.5447   -1.3337   20.5770  H     
41   H       -25.9612   -2.1224   18.9310  H     
42   H       -27.6220   -5.1633   22.3414  H     
43   H       -24.5328   -6.8801   19.0750  H     
44   H       -26.2775   -3.7526   16.8150  H     
45   H       -21.5731   -4.6794   16.0881  H     
46   H       -22.5708   -5.1697   18.2035  H     
47   H       -22.8823   -3.3688   11.9557  H     
48   H       -24.3388   -3.5827   12.7525  H     
49   H       -27.3778   -2.5582   14.9378  H     
50   H       -25.8913   -0.7288   12.9968  H     
51   H       -27.6390   -0.7018   13.3429  H     
52   H       -26.9224   -2.1102   12.5718  H     
53   H       -24.1691   -0.6948   15.0756  H     
54   H       -23.5232    0.8663   16.7728  H     
55   H       -25.1270    1.6371   18.4257  H     
56   H       -27.3820    0.8569   18.3617  H     
57   H       -29.1856   -4.2525   23.6702  H     
58   H       -28.1203   -3.5251   25.7374  H     
59   H       -26.9091   -3.3992   24.4637  H     
60   H       -26.8977   -1.4040   25.9408  H     
61   H       -27.3183   -0.9402   24.2871  H     
62   H       -29.2306   -1.4232   26.4937  H     
63   H       -31.0084   -0.6652   25.0995  H     
64   H       -29.8686   -0.4643   23.7615  H     
65   H       -31.0639   -2.6103   23.5263  H     
66   H       -30.6336   -3.0718   25.1740  H     
67   H       -28.4474    1.1594   25.2566  H     
68   H       -28.0409    0.5787   26.8863  H     
69   H       -29.7078    0.9238   26.5063  H     
@<TRIPOS>BOND
     1    1    2 2
     2    1    4 1
     3    2    6 1
     4    3    4 2
     5    3    5 1
     6    4   32 1
     7    5    6 2
     8    5    9 1
     9    6    7 1
    10    7    8 1
    11    7   10 1
    12    8    9 2
    13   10   11 2
    14   10   15 1
    15   11   12 1
    16   12   13 2
    17   12   19 1
    18   13   14 1
    19   13   16 1
    20   14   15 2
    21   16   17 2
    22   16   18 am
    23   19   20 1
    24   20   21 1
    25   20   22 1
    26   21   23 2
    27   21   27 1
    28   23   24 1
    29   24   25 2
    30   25   26 1
    31   26   27 2
    32   27   28 1
    33   28   29 1
    34   28   30 1
    35   28   31 1
    36   32   33 1
    37   33   34 1
    38   33   38 1
    39   34   35 1
    40   35   36 1
    41   36   37 1
    42   36   39 1
    43   37   38 1
    44    1   40 1
    45    2   41 1
    46    3   42 1
    47    8   43 1
    48   11   44 1
    49   14   45 1
    50   15   46 1
    51   18   47 1
    52   18   48 1
    53   20   49 1
    54   22   50 1
    55   22   51 1
    56   22   52 1
    57   23   53 1
    58   24   54 1
    59   25   55 1
    60   26   56 1
    61   33   57 1
    62   34   58 1
    63   34   59 1
    64   35   60 1
    65   35   61 1
    66   36   62 1
    67   37   63 1
    68   37   64 1
    69   38   65 1
    70   38   66 1
    71   39   67 1
    72   39   68 1
    73   39   69 1
@<TRIPOS>PROPERTY_DATA
  Total_Score	| 9.5266
  Crash		| -0.5343
  Polar		| 3.2302
  FragIndex	| 1
  FragRMSD	| 0.146

