@<TRIPOS>MOLECULE
BindingDB_50339802
 69 73 0 0 0
SMALL
NO_CHARGES


@<TRIPOS>ATOM
1    C       -27.5732   -2.4321   20.6564  C     
2    C       -26.6882   -2.8121   19.6175  C     
3    C       -27.3042   -4.6248   21.7099  C     
4    C       -27.8931   -3.3392   21.7018  C     
5    C       -26.4332   -4.9780   20.6692  C     
6    C       -26.1306   -4.1052   19.6157  C     
7    N       -25.2849   -4.7658   18.7829  N     
8    C       -25.0775   -5.9861   19.3430  C     
9    N       -25.7760   -6.1218   20.4792  N     
10   C       -24.7258   -4.3628   17.5934  C     
11   C       -25.5128   -3.8917   16.5211  C     
12   C       -24.9411   -3.4937   15.2913  C     
13   C       -23.5483   -3.6793   15.0554  C     
14   C       -22.7612   -4.1293   16.1447  C     
15   C       -23.3311   -4.4518   17.3851  C     
16   C       -22.9349   -3.4674   13.8146  C     
17   O       -21.7101   -3.4978   13.6969  O     
18   N       -23.5843   -3.3169   12.6842  N     
19   O       -25.8082   -2.9549   14.3596  O     
20   C       -25.8074   -1.5103   14.2233  C     
21   C       -25.7810   -0.7487   15.5397  C     
22   C       -26.9341   -1.1007   13.2323  C     
23   C       -24.5218   -0.1844   15.9223  C     
24   C       -24.3436    0.5414   17.1054  C     
25   C       -25.4381    0.7457   17.9651  C     
26   C       -26.6865    0.2029   17.6239  C     
27   C       -26.8899   -0.5679   16.4463  C     
28   C       -28.2781   -1.0807   16.1953  C     
29   F       -29.0866   -1.1306   17.3172  F     
30   F       -28.8931   -0.2450   15.3001  F     
31   F       -28.2952   -2.3733   15.7426  F     
32   O       -28.7877   -3.1137   22.7209  O     
33   C       -29.1516   -1.8101   23.2242  C     
34   C       -30.2657   -2.0008   24.2923  C     
35   C       -29.7113   -2.6180   25.6081  C     
36   N       -28.5339   -1.8843   26.1730  N     
37   C       -27.4584   -1.6946   25.1542  C     
38   C       -27.9543   -1.0235   23.8442  C     
39   C       -28.9008   -0.6341   26.9020  C     
40   H       -27.9826   -1.4964   20.6243  H     
41   H       -26.4330   -2.1420   18.8889  H     
42   H       -27.4923   -5.2918   22.4672  H     
43   H       -24.4712   -6.7320   18.9843  H     
44   H       -26.5266   -3.8394   16.6318  H     
45   H       -21.7469   -4.2472   16.0456  H     
46   H       -22.7197   -4.7827   18.1373  H     
47   H       -23.0784   -3.2480   11.8520  H     
48   H       -24.5532   -3.3282   12.6608  H     
49   H       -24.8860   -1.2830   13.6606  H     
50   H       -26.6520   -1.4109   12.2227  H     
51   H       -27.0434   -0.0191   13.2336  H     
52   H       -27.8780   -1.5874   13.4877  H     
53   H       -23.6899   -0.2999   15.3269  H     
54   H       -23.4317    0.9392   17.3374  H     
55   H       -25.3054    1.2691   18.8308  H     
56   H       -27.4549    0.3837   18.2748  H     
57   H       -29.5782   -1.2157   22.4106  H     
58   H       -30.7276   -1.0286   24.5200  H     
59   H       -31.0532   -2.6384   23.8982  H     
60   H       -30.5123   -2.6802   26.3461  H     
61   H       -29.3993   -3.6421   25.3955  H     
62   H       -28.1231   -2.5001   26.8739  H     
63   H       -26.6486   -1.0920   25.5807  H     
64   H       -27.0212   -2.6702   24.9115  H     
65   H       -27.1294   -0.9656   23.1324  H     
66   H       -28.2693    0.0005   24.0613  H     
67   H       -29.3468    0.1112   26.2414  H     
68   H       -28.0170   -0.1943   27.3695  H     
69   H       -29.6092   -0.8540   27.7005  H     
@<TRIPOS>BOND
     1    1    2 2
     2    1    4 1
     3    2    6 1
     4    3    4 2
     5    3    5 1
     6    4   32 1
     7    5    6 2
     8    5    9 1
     9    6    7 1
    10    7    8 1
    11    7   10 1
    12    8    9 2
    13   10   11 2
    14   10   15 1
    15   11   12 1
    16   12   13 2
    17   12   19 1
    18   13   14 1
    19   13   16 1
    20   14   15 2
    21   16   17 2
    22   16   18 am
    23   20   19 1
    24   20   21 1
    25   20   22 1
    26   21   23 2
    27   21   27 1
    28   23   24 1
    29   24   25 2
    30   25   26 1
    31   26   27 2
    32   27   28 1
    33   28   29 1
    34   28   30 1
    35   28   31 1
    36   32   33 1
    37   33   34 1
    38   33   38 1
    39   34   35 1
    40   35   36 1
    41   36   37 1
    42   36   39 1
    43   37   38 1
    44    1   40 1
    45    2   41 1
    46    3   42 1
    47    8   43 1
    48   11   44 1
    49   14   45 1
    50   15   46 1
    51   18   47 1
    52   18   48 1
    53   20   49 1
    54   22   50 1
    55   22   51 1
    56   22   52 1
    57   23   53 1
    58   24   54 1
    59   25   55 1
    60   26   56 1
    61   33   57 1
    62   34   58 1
    63   34   59 1
    64   35   60 1
    65   35   61 1
    66   36   62 1
    67   37   63 1
    68   37   64 1
    69   38   65 1
    70   38   66 1
    71   39   67 1
    72   39   68 1
    73   39   69 1
@<TRIPOS>PROPERTY_DATA
  Total_Score	| 8.8739
  Crash		| -1.5531
  Polar		| 4.4133
  FragIndex	| 1
  FragRMSD	| 0.744

