@<TRIPOS>MOLECULE
BindingDB_50339799
 69 73 0 0 0
SMALL
NO_CHARGES


@<TRIPOS>ATOM
1    C       -26.8210    0.9920   22.6315  C     
2    N       -27.3615    2.3279   22.2458  N     
3    C       -28.1449    2.2579   20.9762  C     
4    C       -29.2612    1.1763   20.9899  C     
5    C       -28.7491   -0.2211   21.4490  C     
6    C       -27.9103   -0.0946   22.7582  C     
7    C       -28.0516    3.0442   23.3609  C     
8    O       -28.0409   -0.8634   20.3547  O     
9    C       -27.5855   -2.1690   20.4616  C     
10   C       -26.5893   -2.6118   19.5489  C     
11   C       -27.5017   -4.3623   21.5797  C     
12   C       -28.0730   -3.0799   21.4272  C     
13   C       -26.4936   -4.7533   20.6894  C     
14   C       -26.0636   -3.9217   19.6548  C     
15   N       -25.1471   -4.6244   18.9469  N     
16   C       -25.0012   -5.8107   19.5781  C     
17   N       -25.8145   -5.9091   20.6387  N     
18   C       -24.5302   -4.3082   17.7625  C     
19   C       -25.2735   -3.7356   16.7085  C     
20   C       -24.7085   -3.4903   15.4348  C     
21   C       -23.3563   -3.8640   15.1776  C     
22   C       -22.6148   -4.4305   16.2488  C     
23   C       -23.1859   -4.6470   17.5140  C     
24   C       -22.7355   -3.7092   13.9168  C     
25   O       -21.5265   -3.8354   13.7852  O     
26   N       -23.3770   -3.4975   12.7900  N     
27   O       -25.4413   -2.8834   14.4324  O     
28   C       -26.5019   -1.9252   14.6707  C     
29   C       -26.2069   -0.9100   15.7431  C     
30   C       -26.7974   -1.2221   13.3235  C     
31   C       -24.8953   -0.3688   15.7735  C     
32   C       -24.5030    0.5513   16.7542  C     
33   C       -25.4246    0.9686   17.7196  C     
34   C       -26.7355    0.4661   17.6950  C     
35   C       -27.1610   -0.4810   16.7260  C     
36   C       -28.5806   -0.9861   16.7811  C     
37   F       -29.3804   -0.4057   17.7360  F     
38   F       -29.2336   -0.7612   15.5946  F     
39   F       -28.6215   -2.3301   17.0572  F     
40   H       -26.1092    0.6707   21.8689  H     
41   H       -26.2766    1.0629   23.5750  H     
42   H       -26.5385    2.8950   22.0314  H     
43   H       -28.5859    3.2280   20.7429  H     
44   H       -27.4459    2.0305   20.1735  H     
45   H       -30.0521    1.5065   21.6681  H     
46   H       -29.6983    1.0960   19.9924  H     
47   H       -29.6345   -0.8183   21.6805  H     
48   H       -27.4258   -1.0459   22.9996  H     
49   H       -28.5762    0.1450   23.5951  H     
50   H       -28.9846    2.5546   23.6507  H     
51   H       -28.2768    4.0703   23.0618  H     
52   H       -27.4009    3.0938   24.2376  H     
53   H       -26.2406   -1.9837   18.8257  H     
54   H       -27.8268   -5.0030   22.3058  H     
55   H       -28.8499   -2.8182   22.0376  H     
56   H       -24.3928   -6.5730   19.2821  H     
57   H       -26.2598   -3.5270   16.8651  H     
58   H       -21.6437   -4.7270   16.1232  H     
59   H       -22.6277   -5.0771   18.2512  H     
60   H       -22.8838   -3.4371   11.9559  H     
61   H       -24.3422   -3.4420   12.7660  H     
62   H       -27.3867   -2.5169   14.9066  H     
63   H       -25.9151   -0.6829   12.9644  H     
64   H       -27.6192   -0.5120   13.4282  H     
65   H       -27.0840   -1.9642   12.5731  H     
66   H       -24.1979   -0.6571   15.0862  H     
67   H       -23.5486    0.9147   16.7686  H     
68   H       -25.1418    1.6418   18.4386  H     
69   H       -27.3802    0.8086   18.4046  H     
@<TRIPOS>BOND
     1    1    2 1
     2    1    6 1
     3    2    3 1
     4    2    7 1
     5    3    4 1
     6    4    5 1
     7    5    6 1
     8    5    8 1
     9    8    9 1
    10    9   10 2
    11    9   12 1
    12   10   14 1
    13   11   12 2
    14   11   13 1
    15   13   14 2
    16   13   17 1
    17   14   15 1
    18   15   16 1
    19   15   18 1
    20   16   17 2
    21   18   19 2
    22   18   23 1
    23   19   20 1
    24   20   21 2
    25   20   27 1
    26   21   22 1
    27   21   24 1
    28   22   23 2
    29   24   25 2
    30   24   26 am
    31   27   28 1
    32   28   29 1
    33   28   30 1
    34   29   31 2
    35   29   35 1
    36   31   32 1
    37   32   33 2
    38   33   34 1
    39   34   35 2
    40   35   36 1
    41   36   37 1
    42   36   38 1
    43   36   39 1
    44    1   40 1
    45    1   41 1
    46    2   42 1
    47    3   43 1
    48    3   44 1
    49    4   45 1
    50    4   46 1
    51    5   47 1
    52    6   48 1
    53    6   49 1
    54    7   50 1
    55    7   51 1
    56    7   52 1
    57   10   53 1
    58   11   54 1
    59   12   55 1
    60   16   56 1
    61   19   57 1
    62   22   58 1
    63   23   59 1
    64   26   60 1
    65   26   61 1
    66   28   62 1
    67   30   63 1
    68   30   64 1
    69   30   65 1
    70   31   66 1
    71   32   67 1
    72   33   68 1
    73   34   69 1
@<TRIPOS>PROPERTY_DATA
  Total_Score	| 10.6865
  Crash		| -0.9027
  Polar		| 5.8011
  FragIndex	| 1
  FragRMSD	| 0.216

