@<TRIPOS>MOLECULE
BindingDB_50339803
 68 71 0 0 0
SMALL
NO_CHARGES


@<TRIPOS>ATOM
1    C       -26.8631   -2.1221   20.6985  C     
2    C       -26.0596   -2.6980   19.6930  C     
3    C       -27.1929   -4.3166   21.7260  C     
4    C       -27.4530   -2.9245   21.7031  C     
5    C       -26.3932   -4.8753   20.7135  C     
6    C       -25.8517   -4.0896   19.6980  C     
7    N       -25.1593   -4.9073   18.8820  N     
8    C       -25.2416   -6.1467   19.4111  C     
9    N       -25.9976   -6.1413   20.5244  N     
10   C       -24.5601   -4.5818   17.6996  C     
11   C       -25.3317   -4.0408   16.6486  C     
12   C       -24.7450   -3.6530   15.4228  C     
13   C       -23.3572   -3.8924   15.1938  C     
14   C       -22.5938   -4.4424   16.2604  C     
15   C       -23.1801   -4.7776   17.4933  C     
16   C       -22.7257   -3.6270   13.9681  C     
17   O       -21.5068   -3.6187   13.8678  O     
18   N       -23.3508   -3.4716   12.8199  N     
19   O       -25.5127   -3.0331   14.4587  O     
20   C       -26.5808   -2.1140   14.8042  C     
21   C       -26.2328   -1.0557   15.8146  C     
22   C       -27.0459   -1.4606   13.4751  C     
23   C       -24.9213   -0.5177   15.7489  C     
24   C       -24.4655    0.4193   16.6872  C     
25   C       -25.3235    0.8625   17.7000  C     
26   C       -26.6448    0.3904   17.7509  C     
27   C       -27.1362   -0.5666   16.8187  C     
28   C       -28.5716   -1.0055   16.9212  C     
29   F       -29.3356   -0.3183   17.8354  F     
30   F       -29.2221   -0.8323   15.7251  F     
31   F       -28.6702   -2.3248   17.2863  F     
32   O       -28.1440   -2.3015   22.7153  O     
33   C       -29.5217   -2.6937   22.8764  C     
34   C       -30.0778   -2.1056   24.2013  C     
35   C       -29.4479   -2.7235   25.4932  C     
36   N       -28.4689   -1.8983   26.2755  N     
37   C       -27.3286   -1.3916   25.4652  C     
38   C       -29.0976   -0.8316   27.1083  C     
39   H       -27.0046   -1.1077   20.7117  H     
40   H       -25.6183   -2.1118   18.9853  H     
41   H       -27.5595   -4.9091   22.4753  H     
42   H       -24.8200   -6.9888   19.0133  H     
43   H       -26.3396   -3.9223   16.7753  H     
44   H       -21.5903   -4.6162   16.1546  H     
45   H       -22.5958   -5.1611   18.2426  H     
46   H       -22.8321   -3.3717   12.0040  H     
47   H       -24.3150   -3.5204   12.7618  H     
48   H       -27.4049   -2.7279   15.1578  H     
49   H       -26.2260   -0.9049   13.0134  H     
50   H       -27.8789   -0.7768   13.6470  H     
51   H       -27.3793   -2.2320   12.7768  H     
52   H       -24.2719   -0.8176   15.0173  H     
53   H       -23.5117    0.7800   16.6320  H     
54   H       -24.9900    1.5395   18.3897  H     
55   H       -27.2422    0.7583   18.4956  H     
56   H       -30.1175   -2.3145   22.0402  H     
57   H       -29.6280   -3.7830   22.9099  H     
58   H       -29.9507   -1.0223   24.1915  H     
59   H       -31.1573   -2.2987   24.2133  H     
60   H       -30.2621   -3.0010   26.1681  H     
61   H       -28.9511   -3.6612   25.2376  H     
62   H       -28.0331   -2.5511   26.9339  H     
63   H       -26.8501   -2.2154   24.9323  H     
64   H       -26.5723   -0.9496   26.1197  H     
65   H       -27.6479   -0.6432   24.7366  H     
66   H       -29.5696   -0.0646   26.4916  H     
67   H       -28.3476   -0.3489   27.7406  H     
68   H       -29.8524   -1.2626   27.7699  H     
@<TRIPOS>BOND
     1    1    2 2
     2    1    4 1
     3    2    6 1
     4    3    4 2
     5    3    5 1
     6    4   32 1
     7    5    6 2
     8    5    9 1
     9    6    7 1
    10    7    8 1
    11    7   10 1
    12    8    9 2
    13   10   11 2
    14   10   15 1
    15   11   12 1
    16   12   13 2
    17   12   19 1
    18   13   14 1
    19   13   16 1
    20   14   15 2
    21   16   17 2
    22   16   18 am
    23   19   20 1
    24   20   21 1
    25   20   22 1
    26   21   23 2
    27   21   27 1
    28   23   24 1
    29   24   25 2
    30   25   26 1
    31   26   27 2
    32   27   28 1
    33   28   29 1
    34   28   30 1
    35   28   31 1
    36   32   33 1
    37   33   34 1
    38   34   35 1
    39   35   36 1
    40   36   37 1
    41   36   38 1
    42    1   39 1
    43    2   40 1
    44    3   41 1
    45    8   42 1
    46   11   43 1
    47   14   44 1
    48   15   45 1
    49   18   46 1
    50   18   47 1
    51   20   48 1
    52   22   49 1
    53   22   50 1
    54   22   51 1
    55   23   52 1
    56   24   53 1
    57   25   54 1
    58   26   55 1
    59   33   56 1
    60   33   57 1
    61   34   58 1
    62   34   59 1
    63   35   60 1
    64   35   61 1
    65   36   62 1
    66   37   63 1
    67   37   64 1
    68   37   65 1
    69   38   66 1
    70   38   67 1
    71   38   68 1
@<TRIPOS>PROPERTY_DATA
  Total_Score	| 9.3959
  Crash		| -0.7635
  Polar		| 4.5408
  FragIndex	| 1
  FragRMSD	| 0.569

