@<TRIPOS>MOLECULE
BindingDB_50339801
 69 73 0 0 0
SMALL
NO_CHARGES


@<TRIPOS>ATOM
1    C       -26.8217   -1.2521   13.3726  C     
2    C       -26.4781   -1.9324   14.7164  C     
3    O       -25.3988   -2.8596   14.4414  O     
4    C       -24.6614   -3.5057   15.4124  C     
5    C       -25.2312   -3.8369   16.6620  C     
6    C       -24.4686   -4.4126   17.7015  C     
7    N       -25.8008   -6.1515   20.4811  N     
8    C       -25.0498   -6.0440   19.3726  C     
9    N       -25.0476   -4.7771   18.8953  N     
10   C       -25.8067   -4.0538   19.7521  C     
11   C       -26.1984   -2.7011   19.7962  C     
12   C       -27.1557   -2.2885   20.7487  C     
13   C       -27.6669   -3.1938   21.7047  C     
14   O       -28.8473   -2.9508   22.3504  O     
15   C       -29.0824   -3.1232   23.7662  C     
16   C       -27.8574   -2.9004   24.7075  C     
17   C       -27.6726   -1.4194   25.1197  C     
18   N       -28.9311   -0.7943   25.6514  N     
19   C       -29.2608   -1.1710   27.0622  C     
20   C       -30.0838   -0.9368   24.7057  C     
21   C       -30.3611   -2.3950   24.2578  C     
22   C       -27.1861   -4.5241   21.7220  C     
23   C       -26.2768   -4.9294   20.7321  C     
24   C       -23.1145   -4.7090   17.4356  C     
25   C       -22.5556   -4.4503   16.1738  C     
26   C       -23.3056   -3.8511   15.1329  C     
27   C       -22.6979   -3.6490   13.8804  C     
28   N       -23.3586   -3.4717   12.7560  N     
29   O       -21.4840   -3.6797   13.7463  O     
30   C       -26.2013   -0.8951   15.7720  C     
31   C       -24.8967   -0.3447   15.8033  C     
32   C       -24.5104    0.5808   16.7830  C     
33   C       -25.4411    1.0037   17.7411  C     
34   C       -26.7546    0.5131   17.7029  C     
35   C       -27.1689   -0.4430   16.7351  C     
36   C       -28.5925   -0.9222   16.7598  C     
37   F       -29.4184   -0.3089   17.6773  F     
38   F       -29.1905   -0.7169   15.5459  F     
39   F       -28.6479   -2.2528   17.0696  F     
40   H       -25.9625   -0.6889   12.9941  H     
41   H       -27.6625   -0.5664   13.4837  H     
42   H       -27.0920   -2.0109   12.6366  H     
43   H       -27.3334   -2.5494   14.9809  H     
44   H       -26.2268   -3.6745   16.8112  H     
45   H       -24.5846   -6.8447   18.9352  H     
46   H       -25.8610   -2.0464   19.1016  H     
47   H       -27.5709   -1.3617   20.6526  H     
48   H       -29.3062   -4.1925   23.8389  H     
49   H       -28.0192   -3.4839   25.6262  H     
50   H       -26.9412   -3.2764   24.2337  H     
51   H       -26.8736   -1.3550   25.8651  H     
52   H       -27.3307   -0.8518   24.2511  H     
53   H       -28.7428    0.2099   25.6902  H     
54   H       -29.5695   -2.2164   27.1511  H     
55   H       -30.0737   -0.5297   27.4257  H     
56   H       -28.3969   -1.0067   27.7173  H     
57   H       -30.9956   -0.5076   25.1428  H     
58   H       -29.8579   -0.3520   23.8112  H     
59   H       -31.1029   -2.3936   23.4551  H     
60   H       -30.7952   -2.9440   25.0981  H     
61   H       -27.5903   -5.2182   22.3562  H     
62   H       -22.5263   -5.1401   18.1505  H     
63   H       -21.5806   -4.7233   16.0272  H     
64   H       -22.8723   -3.3553   11.9231  H     
65   H       -24.3234   -3.4854   12.7432  H     
66   H       -24.1980   -0.6341   15.1089  H     
67   H       -23.5526    0.9384   16.8026  H     
68   H       -25.1592    1.6805   18.4552  H     
69   H       -27.4080    0.8682   18.4065  H     
@<TRIPOS>BOND
     1    2    1 1
     2    2    3 1
     3    2   30 1
     4    3    4 1
     5    4    5 1
     6    4   26 2
     7    5    6 2
     8    6    9 1
     9    6   24 1
    10    7    8 2
    11    7   23 1
    12    8    9 1
    13    9   10 1
    14   10   11 1
    15   10   23 2
    16   11   12 2
    17   12   13 1
    18   13   14 1
    19   13   22 2
    20   14   15 1
    21   15   16 1
    22   15   21 1
    23   16   17 1
    24   17   18 1
    25   18   19 1
    26   18   20 1
    27   20   21 1
    28   22   23 1
    29   24   25 2
    30   25   26 1
    31   26   27 1
    32   27   28 am
    33   27   29 2
    34   30   31 2
    35   30   35 1
    36   31   32 1
    37   32   33 2
    38   33   34 1
    39   34   35 2
    40   35   36 1
    41   36   37 1
    42   36   38 1
    43   36   39 1
    44    1   40 1
    45    1   41 1
    46    1   42 1
    47    2   43 1
    48    5   44 1
    49    8   45 1
    50   11   46 1
    51   12   47 1
    52   15   48 1
    53   16   49 1
    54   16   50 1
    55   17   51 1
    56   17   52 1
    57   18   53 1
    58   19   54 1
    59   19   55 1
    60   19   56 1
    61   20   57 1
    62   20   58 1
    63   21   59 1
    64   21   60 1
    65   22   61 1
    66   24   62 1
    67   25   63 1
    68   28   64 1
    69   28   65 1
    70   31   66 1
    71   32   67 1
    72   33   68 1
    73   34   69 1
@<TRIPOS>PROPERTY_DATA
  Total_Score	| 9.4449
  Crash		| -0.3950
  Polar		| 3.2019
  FragIndex	| 1
  FragRMSD	| 0.360

