@<TRIPOS>MOLECULE
BindingDB_50339804
 73 78 0 0 0
SMALL
NO_CHARGES


@<TRIPOS>ATOM
1    C       -27.3483   -2.3265   20.3711  C     
2    C       -26.4466   -2.8288   19.4109  C     
3    C       -27.3067   -4.4602   21.5631  C     
4    C       -27.7974   -3.1297   21.4517  C     
5    C       -26.4132   -4.9480   20.5935  C     
6    C       -26.0133   -4.1663   19.5096  C     
7    N       -25.2183   -4.9341   18.7330  N     
8    C       -25.1104   -6.1277   19.3548  C     
9    N       -25.8417   -6.1497   20.4832  N     
10   C       -24.6407   -4.6001   17.5355  C     
11   C       -25.4153   -4.0791   16.4755  C     
12   C       -24.8212   -3.6335   15.2758  C     
13   C       -23.4252   -3.8475   15.0572  C     
14   C       -22.6590   -4.4040   16.1219  C     
15   C       -23.2491   -4.7602   17.3452  C     
16   C       -22.7905   -3.5405   13.8501  C     
17   O       -21.5722   -3.5202   13.7480  O     
18   N       -23.4299   -3.3679   12.7098  N     
19   O       -25.5504   -2.9434   14.3244  O     
20   C       -26.5756   -1.9794   14.6871  C     
21   C       -26.2104   -0.9977   15.7695  C     
22   C       -27.0225   -1.1945   13.4216  C     
23   C       -24.8886   -0.4846   15.7692  C     
24   C       -24.4725    0.4455   16.7375  C     
25   C       -25.3826    0.9032   17.6950  C     
26   C       -26.7056    0.4316   17.6932  C     
27   C       -27.1598   -0.5185   16.7368  C     
28   C       -28.5772   -1.0257   16.8250  C     
29   F       -29.3976   -0.2993   17.6564  F     
30   F       -29.2174   -1.0525   15.6061  F     
31   F       -28.5767   -2.3085   17.3273  F     
32   O       -28.7422   -2.5365   22.2570  O     
33   C       -29.1373   -3.0819   23.5385  C     
34   C       -27.9952   -2.9821   24.5907  C     
35   C       -27.7190   -1.5112   24.9913  C     
36   N       -28.9592   -0.8460   25.4959  N     
37   C       -30.0545   -0.8576   24.4773  C     
38   C       -30.3947   -2.3073   24.0342  C     
39   C       -28.8162    0.5090   26.1190  C     
40   C       -27.5186    1.0624   26.7346  C     
41   C       -28.0312    1.6248   25.4077  C     
42   H       -27.6875   -1.3622   20.2747  H     
43   H       -26.1209   -2.2380   18.6401  H     
44   H       -27.5856   -5.0758   22.3256  H     
45   H       -24.5801   -6.9348   19.0097  H     
46   H       -26.4288   -4.0094   16.5782  H     
47   H       -21.6535   -4.5675   16.0212  H     
48   H       -22.6626   -5.1411   18.0998  H     
49   H       -22.9266   -3.2395   11.8906  H     
50   H       -24.3943   -3.4286   12.6618  H     
51   H       -27.4093   -2.5920   15.0255  H     
52   H       -26.1554   -0.7533   12.9278  H     
53   H       -27.7164   -0.3914   13.6943  H     
54   H       -27.5184   -1.8661   12.7168  H     
55   H       -24.2108   -0.7885   15.0660  H     
56   H       -23.5137    0.7886   16.7331  H     
57   H       -25.0749    1.5786   18.4035  H     
58   H       -27.3311    0.7872   18.4122  H     
59   H       -29.4426   -4.1276   23.4177  H     
60   H       -28.2804   -3.5427   25.4863  H     
61   H       -27.0766   -3.4280   24.1949  H     
62   H       -26.9552   -1.5360   25.7702  H     
63   H       -27.3105   -0.9747   24.1282  H     
64   H       -29.2882   -1.4493   26.2565  H     
65   H       -30.9620   -0.4169   24.8888  H     
66   H       -29.7710   -0.2755   23.5939  H     
67   H       -31.1461   -2.2803   23.2340  H     
68   H       -30.8319   -2.8449   24.8862  H     
69   H       -29.7181    0.8768   26.6088  H     
70   H       -27.6328    1.7332   27.6008  H     
71   H       -26.6008    0.4770   26.6388  H     
72   H       -27.4592    1.3405   24.5268  H     
73   H       -28.4616    2.6308   25.4642  H     
@<TRIPOS>BOND
     1    1    2 2
     2    1    4 1
     3    2    6 1
     4    3    4 2
     5    3    5 1
     6    4   32 1
     7    5    6 2
     8    5    9 1
     9    6    7 1
    10    7    8 1
    11    7   10 1
    12    8    9 2
    13   10   11 2
    14   10   15 1
    15   11   12 1
    16   12   13 2
    17   12   19 1
    18   13   14 1
    19   13   16 1
    20   14   15 2
    21   16   17 2
    22   16   18 am
    23   19   20 1
    24   20   21 1
    25   20   22 1
    26   21   23 2
    27   21   27 1
    28   23   24 1
    29   24   25 2
    30   25   26 1
    31   26   27 2
    32   27   28 1
    33   28   29 1
    34   28   30 1
    35   28   31 1
    36   32   33 1
    37   33   34 1
    38   33   38 1
    39   34   35 1
    40   35   36 1
    41   36   37 1
    42   36   39 1
    43   37   38 1
    44   39   40 1
    45   39   41 1
    46   40   41 1
    47    1   42 1
    48    2   43 1
    49    3   44 1
    50    8   45 1
    51   11   46 1
    52   14   47 1
    53   15   48 1
    54   18   49 1
    55   18   50 1
    56   20   51 1
    57   22   52 1
    58   22   53 1
    59   22   54 1
    60   23   55 1
    61   24   56 1
    62   25   57 1
    63   26   58 1
    64   33   59 1
    65   34   60 1
    66   34   61 1
    67   35   62 1
    68   35   63 1
    69   36   64 1
    70   37   65 1
    71   37   66 1
    72   38   67 1
    73   38   68 1
    74   39   69 1
    75   40   70 1
    76   40   71 1
    77   41   72 1
    78   41   73 1
@<TRIPOS>PROPERTY_DATA
  Total_Score	| 9.4566
  Crash		| -0.5248
  Polar		| 3.3254
  FragIndex	| 1
  FragRMSD	| 0.208

