@<TRIPOS>MOLECULE
BindingDB_11935
 37 39 0 0 0
SMALL
NO_CHARGES


@<TRIPOS>ATOM
1    C        -2.7304    4.1986   14.4658  C     
2    C        -2.5641    5.7437   14.5168  C     
3    N        -3.6338    6.4908   13.8859  N     
4    S        -5.2381    6.0417   14.2092  S     
5    O        -5.9376    6.9648   15.2966  O     
6    O        -6.1398    5.8333   12.9147  O     
7    C        -4.0033    3.7381   15.0678  C     
8    C        -5.1782    4.4841   14.9495  C     
9    C        -4.1834    2.5255   15.7618  C     
10   C        -5.4929    2.2989   16.2030  C     
11   S        -6.4552    3.6393   15.7256  S     
12   O        -5.9998   -0.4074   16.2100  O     
13   O        -5.1492    0.7071   18.3389  O     
14   S        -6.0820    0.9242   17.0726  S     
15   N        -7.6415    1.1079   17.6629  N     
16   C        -3.4103    7.7389   13.3545  C     
17   C        -2.5381    8.6647   13.9811  C     
18   C        -2.2604    9.9194   13.4029  C     
19   C        -2.8550   10.2502   12.1696  C     
20   C        -3.7370    9.3548   11.5419  C     
21   C        -4.0066    8.1060   12.1266  C     
22   O        -1.3441   10.7342   14.0155  O     
23   C        -1.7665   12.0913   14.2290  C     
24   H        -2.7075    3.8738   13.4226  H     
25   H        -1.8860    3.7337   14.9824  H     
26   H        -2.4968    6.0556   15.5616  H     
27   H        -1.6060    5.9818   14.0422  H     
28   H        -3.4244    1.8599   15.9256  H     
29   H        -8.3745    1.2410   17.0438  H     
30   H        -7.8318    0.8722   18.5838  H     
31   H        -2.0909    8.4256   14.8674  H     
32   H        -2.6407   11.1400   11.7184  H     
33   H        -4.1624    9.6012   10.6461  H     
34   H        -4.6199    7.4526   11.6347  H     
35   H        -1.7618   12.6504   13.2925  H     
36   H        -1.0511   12.5608   14.9014  H     
37   H        -2.7607   12.1452   14.6798  H     
@<TRIPOS>BOND
     1    1    2 1
     2    1    7 1
     3    2    3 1
     4    3    4 1
     5    3   16 1
     6    4    5 2
     7    4    6 2
     8    4    8 1
     9    7    8 2
    10    7    9 1
    11    8   11 1
    12    9   10 2
    13   10   11 1
    14   10   14 1
    15   12   14 2
    16   13   14 2
    17   14   15 am
    18   16   17 2
    19   16   21 1
    20   17   18 1
    21   18   19 2
    22   18   22 1
    23   19   20 1
    24   20   21 2
    25   22   23 1
    26    1   24 1
    27    1   25 1
    28    2   26 1
    29    2   27 1
    30    9   28 1
    31   15   29 1
    32   15   30 1
    33   17   31 1
    34   19   32 1
    35   20   33 1
    36   21   34 1
    37   23   35 1
    38   23   36 1
    39   23   37 1
@<TRIPOS>PROPERTY_DATA
  Total_Score	| 5.4479
  Crash		| -2.3182
  Polar		| 4.8545
  FragIndex	| 1
  FragRMSD	| 0.934

