@<TRIPOS>MOLECULE
BindingDB_11938
 35 37 0 0 0
SMALL
NO_CHARGES


@<TRIPOS>ATOM
1    C        -2.7896    4.1384   14.7610  C     
2    C        -2.6249    5.3378   14.1679  C     
3    N        -3.5974    6.2645   13.9608  N     
4    S        -5.2173    5.9405   14.3467  S     
5    O        -5.7871    6.8844   15.4939  O     
6    O        -6.1828    5.7802   13.0936  O     
7    C        -4.0030    3.6706   15.2461  C     
8    C        -5.1833    4.4012   15.1061  C     
9    C        -4.1908    2.4538   15.9312  C     
10   C        -5.5136    2.2162   16.3312  C     
11   S        -6.4786    3.5458   15.8340  S     
12   O        -6.0047   -0.4771   16.3029  O     
13   O        -5.2296    0.5723   18.4684  O     
14   S        -6.1233    0.8414   17.1797  S     
15   N        -7.7036    1.0002   17.7196  N     
16   C        -3.2973    7.5341   13.5189  C     
17   C        -2.5260    8.4291   14.3120  C     
18   C        -2.2148    9.7359   13.8590  C     
19   C        -2.6854   10.1513   12.5970  C     
20   C        -3.4457    9.2829   11.7974  C     
21   C        -3.7421    7.9848   12.2549  C     
22   O        -1.4901   10.6836   14.5533  O     
23   C        -0.6777   10.2990   15.6727  C     
24   H        -1.9861    3.5599   14.8766  H     
25   H        -1.6994    5.5513   13.8644  H     
26   H        -3.4342    1.7930   16.1189  H     
27   H        -8.4311    1.0228   17.0792  H     
28   H        -7.8771    1.1160   18.6664  H     
29   H        -2.1867    8.1221   15.2281  H     
30   H        -2.4719   11.0897   12.2502  H     
31   H        -3.7766    9.5863   10.8809  H     
32   H        -4.2755    7.3602   11.6481  H     
33   H        -1.3006    9.9870   16.5151  H     
34   H        -0.0785   11.1644   15.9853  H     
35   H        -0.0012    9.4862   15.3941  H     
@<TRIPOS>BOND
     1    1    2 2
     2    1    7 1
     3    2    3 1
     4    3    4 1
     5    3   16 1
     6    4    5 2
     7    4    6 2
     8    4    8 1
     9    7    8 2
    10    7    9 1
    11    8   11 1
    12    9   10 2
    13   10   11 1
    14   10   14 1
    15   12   14 2
    16   13   14 2
    17   14   15 am
    18   16   17 2
    19   16   21 1
    20   17   18 1
    21   18   19 2
    22   18   22 1
    23   19   20 1
    24   20   21 2
    25   22   23 1
    26    1   24 1
    27    2   25 1
    28    9   26 1
    29   15   27 1
    30   15   28 1
    31   17   29 1
    32   19   30 1
    33   20   31 1
    34   21   32 1
    35   23   33 1
    36   23   34 1
    37   23   35 1
@<TRIPOS>PROPERTY_DATA
  Total_Score	| 5.7888
  Crash		| -2.0561
  Polar		| 4.7180
  FragIndex	| 1
  FragRMSD	| 0.898

