@<TRIPOS>MOLECULE
BindingDB_5536
 49 52 0 0 0
SMALL
NO_CHARGES


@<TRIPOS>ATOM
1    C         7.2423   45.4735   51.2758  C     
2    C         7.9394   43.8541   49.6470  C     
3    N         9.2411   44.2337   49.8024  N     
4    N         6.9765   44.4838   50.3781  N     
5    C         8.5880   45.8421   51.4477  C     
6    C         9.5702   45.2068   50.6895  C     
7    C        10.5157   46.6563   51.9996  C     
8    N         9.1945   46.7324   52.2591  N     
9    N        10.7487   45.7394   51.0448  N     
10   O         6.2968   46.0554   52.0651  O     
11   N         7.6919   42.8586   48.7630  N     
12   C         4.9906   46.3278   51.5063  C     
13   C         3.9287   45.2241   51.8086  C     
14   C         2.1046   46.0738   54.0846  C     
15   C         3.5542   45.5907   54.3476  C     
16   C         4.0273   44.6156   53.2396  C     
17   C         2.4794   45.7430   51.5493  C     
18   C         1.9389   46.6808   52.6660  C     
19   C         6.5196   42.2277   48.4358  C     
20   C         5.3067   40.9215   46.7468  C     
21   C         4.2123   40.7989   47.6146  C     
22   C         4.2577   41.3529   48.9139  C     
23   C         5.4233   42.0545   49.3123  C     
24   C         6.4497   41.6228   47.1634  C     
25   C         3.1510   41.1826   49.8857  C     
26   O         2.0630   40.3785   49.4312  O     
27   H        11.2348   47.2118   52.4721  H     
28   H        11.6205   45.4957   50.6942  H     
29   H         8.4696   42.5595   48.2632  H     
30   H         4.6625   47.2725   51.9574  H     
31   H         5.0458   46.4994   50.4237  H     
32   H         4.1190   44.4143   51.1065  H     
33   H         1.4171   45.2266   54.1954  H     
34   H         1.8340   46.8235   54.8287  H     
35   H         4.2273   46.4499   54.3856  H     
36   H         3.5950   45.0886   55.3210  H     
37   H         3.3979   43.7208   53.2840  H     
38   H         5.0527   44.2909   53.4452  H     
39   H         2.4377   46.2740   50.5926  H     
40   H         1.8070   44.8797   51.4690  H     
41   H         0.8789   46.8693   52.4895  H     
42   H         2.4556   47.6424   52.6230  H     
43   H         5.2762   40.4926   45.8194  H     
44   H         3.3905   40.2832   47.2882  H     
45   H         5.4967   42.4016   50.2675  H     
46   H         7.2376   41.6912   46.5183  H     
47   H         3.5498   40.7160   50.7902  H     
48   H         2.7476   42.1620   50.1457  H     
49   H         1.7811   39.8795   50.2305  H     
@<TRIPOS>BOND
     1    1    4 1
     2    1    5 2
     3    1   10 1
     4    2    3 1
     5    2    4 2
     6    2   11 1
     7    3    6 2
     8    5    6 1
     9    5    8 1
    10    6    9 1
    11    7    8 2
    12    7    9 1
    13   10   12 1
    14   11   19 1
    15   12   13 1
    16   13   16 1
    17   13   17 1
    18   14   15 1
    19   14   18 1
    20   15   16 1
    21   17   18 1
    22   19   23 1
    23   19   24 2
    24   20   21 2
    25   20   24 1
    26   21   22 1
    27   22   23 2
    28   22   25 1
    29   25   26 1
    30    7   27 1
    31    9   28 1
    32   11   29 1
    33   12   30 1
    34   12   31 1
    35   13   32 1
    36   14   33 1
    37   14   34 1
    38   15   35 1
    39   15   36 1
    40   16   37 1
    41   16   38 1
    42   17   39 1
    43   17   40 1
    44   18   41 1
    45   18   42 1
    46   20   43 1
    47   21   44 1
    48   23   45 1
    49   24   46 1
    50   25   47 1
    51   25   48 1
    52   26   49 1
@<TRIPOS>PROPERTY_DATA
  Total_Score	| 10.4403
  Crash		| -0.9375
  Polar		| 4.2453
  FragIndex	| 1
  FragRMSD	| 1.077

