@<TRIPOS>MOLECULE
BindingDB_5531
 45 48 0 0 0
SMALL
NO_CHARGES


@<TRIPOS>ATOM
1    C         7.3180   45.4653   51.5211  C     
2    C         7.9428   43.8022   49.8996  C     
3    N         9.2422   44.2152   49.9364  N     
4    N         7.0135   44.4294   50.6877  N     
5    C         8.6650   45.8658   51.5768  C     
6    C         9.5973   45.2229   50.7686  C     
7    C        10.6000   46.7235   51.9648  C     
8    N         9.2969   46.7970   52.3079  N     
9    N        10.7839   45.7855   51.0190  N     
10   O         6.4206   46.0457   52.3773  O     
11   N         7.6484   42.8077   49.0320  N     
12   C         5.1262   46.4465   51.8657  C     
13   C         4.0345   45.3349   51.9486  C     
14   C         2.0061   45.9305   54.1325  C     
15   C         3.4347   45.4220   54.4657  C     
16   C         4.0219   44.5695   53.3093  C     
17   C         2.6029   45.8698   51.6221  C     
18   C         1.9496   46.6840   52.7758  C     
19   C         6.4422   42.1943   48.8562  C     
20   C         4.3931   41.1376   49.6824  C     
21   C         3.9441   40.9679   48.3566  C     
22   C         4.7499   41.3798   47.2814  C     
23   C         6.0029   41.9726   47.5334  C     
24   C         5.6405   41.7356   49.9279  C     
25   Cl        4.2145   41.1639   45.6882  Cl    
26   H        11.3424   47.2917   52.3799  H     
27   H        11.6294   45.5304   50.6181  H     
28   H         8.3553   42.5406   48.4208  H     
29   H         4.7971   47.2932   52.4785  H     
30   H         5.1994   46.8157   50.8333  H     
31   H         4.2879   44.6049   51.1776  H     
32   H         1.3164   45.0792   54.1037  H     
33   H         1.6659   46.6021   54.9281  H     
34   H         4.0867   46.2765   54.6528  H     
35   H         3.3933   44.8196   55.3795  H     
36   H         3.4034   43.6742   53.1988  H     
37   H         5.0318   44.2421   53.5734  H     
38   H         2.6318   46.4870   50.7206  H     
39   H         1.9574   45.0160   51.4055  H     
40   H         0.9038   46.8871   52.5289  H     
41   H         2.4492   47.6493   52.8748  H     
42   H         3.8150   40.8118   50.4627  H     
43   H         3.0285   40.5376   48.1879  H     
44   H         6.5841   42.2672   46.7449  H     
45   H         5.9637   41.8242   50.8940  H     
@<TRIPOS>BOND
     1    1    4 1
     2    1    5 2
     3    1   10 1
     4    2    3 1
     5    2    4 2
     6    2   11 1
     7    3    6 2
     8    5    6 1
     9    5    8 1
    10    6    9 1
    11    7    8 2
    12    7    9 1
    13   10   12 1
    14   11   19 1
    15   12   13 1
    16   13   16 1
    17   13   17 1
    18   14   15 1
    19   14   18 1
    20   15   16 1
    21   17   18 1
    22   19   23 1
    23   19   24 2
    24   20   21 2
    25   20   24 1
    26   21   22 1
    27   22   23 2
    28   22   25 1
    29    7   26 1
    30    9   27 1
    31   11   28 1
    32   12   29 1
    33   12   30 1
    34   13   31 1
    35   14   32 1
    36   14   33 1
    37   15   34 1
    38   15   35 1
    39   16   36 1
    40   16   37 1
    41   17   38 1
    42   17   39 1
    43   18   40 1
    44   18   41 1
    45   20   42 1
    46   21   43 1
    47   23   44 1
    48   24   45 1
@<TRIPOS>PROPERTY_DATA
  Total_Score	| 9.0330
  Crash		| -0.5171
  Polar		| 2.8633
  FragIndex	| 1
  FragRMSD	| 0.479

