@<TRIPOS>MOLECULE
BindingDB_5542
 49 52 0 0 0
SMALL
NO_CHARGES


@<TRIPOS>ATOM
1    C         7.3458   45.5647   51.5217  C     
2    C         7.9631   43.9051   49.8950  C     
3    N         9.2687   44.2817   49.9656  N     
4    N         7.0349   44.5486   50.6686  N     
5    C         8.6968   45.9417   51.5996  C     
6    C         9.6344   45.2859   50.8039  C     
7    C        10.6568   46.7014   52.0763  C     
8    N         9.3512   46.8078   52.3899  N     
9    N        10.8392   45.7900   51.1101  N     
10   O         6.4298   46.1186   52.3761  O     
11   N         7.6544   42.8970   49.0506  N     
12   C         5.1239   46.4751   51.8654  C     
13   C         4.0525   45.3443   51.9683  C     
14   C         2.0351   45.9446   54.1575  C     
15   C         3.4729   45.4688   54.4877  C     
16   C         4.0588   44.6027   53.3413  C     
17   C         2.6088   45.8503   51.6439  C     
18   C         1.9592   46.6754   52.7921  C     
19   C         6.4404   42.3140   48.8518  C     
20   C         4.3003   41.3976   49.6119  C     
21   C         3.9497   41.0798   48.2854  C     
22   C         4.8545   41.3670   47.2455  C     
23   C         6.0916   41.9658   47.5301  C     
24   C         5.5366   42.0023   49.8939  C     
25   O         2.7340   40.5221   47.9912  O     
26   C         2.7221   39.0873   48.0803  C     
27   H        11.4032   47.2334   52.5261  H     
28   H        11.6932   45.5070   50.7410  H     
29   H         8.3655   42.5790   48.4754  H     
30   H         4.7955   47.3175   52.4753  H     
31   H         5.1732   46.8427   50.8387  H     
32   H         4.3132   44.6086   51.2072  H     
33   H         1.3618   45.0838   54.1423  H     
34   H         1.6938   46.6195   54.9450  H     
35   H         4.1217   46.3346   54.6569  H     
36   H         3.4574   44.8820   55.4123  H     
37   H         3.4661   43.6868   53.2562  H     
38   H         5.0750   44.2958   53.5959  H     
39   H         2.6238   46.4581   50.7329  H     
40   H         1.9695   44.9839   51.4475  H     
41   H         0.9073   46.8610   52.5460  H     
42   H         2.4477   47.6507   52.8696  H     
43   H         3.6556   41.1774   50.3770  H     
44   H         4.6256   41.1411   46.2748  H     
45   H         6.7386   42.1636   46.7632  H     
46   H         5.7745   42.1904   50.8699  H     
47   H         3.4408   38.6364   47.3896  H     
48   H         1.7264   38.7506   47.7966  H     
49   H         2.9276   38.7401   49.1003  H     
@<TRIPOS>BOND
     1    1    4 1
     2    1    5 2
     3    1   10 1
     4    2    3 1
     5    2    4 2
     6    2   11 1
     7    3    6 2
     8    5    6 1
     9    5    8 1
    10    6    9 1
    11    7    8 2
    12    7    9 1
    13   10   12 1
    14   11   19 1
    15   12   13 1
    16   13   16 1
    17   13   17 1
    18   14   15 1
    19   14   18 1
    20   15   16 1
    21   17   18 1
    22   19   23 1
    23   19   24 2
    24   20   21 2
    25   20   24 1
    26   21   22 1
    27   21   25 1
    28   22   23 2
    29   25   26 1
    30    7   27 1
    31    9   28 1
    32   11   29 1
    33   12   30 1
    34   12   31 1
    35   13   32 1
    36   14   33 1
    37   14   34 1
    38   15   35 1
    39   15   36 1
    40   16   37 1
    41   16   38 1
    42   17   39 1
    43   17   40 1
    44   18   41 1
    45   18   42 1
    46   20   43 1
    47   22   44 1
    48   23   45 1
    49   24   46 1
    50   26   47 1
    51   26   48 1
    52   26   49 1
@<TRIPOS>PROPERTY_DATA
  Total_Score	| 10.3058
  Crash		| -0.6785
  Polar		| 2.9395
  FragIndex	| 1
  FragRMSD	| 0.480

