@<TRIPOS>MOLECULE
BindingDB_5533
 45 48 0 0 0
SMALL
NO_CHARGES


@<TRIPOS>ATOM
1    C         7.3150   45.4683   51.5998  C     
2    C         7.9547   43.8308   49.9587  C     
3    N         9.2443   44.2710   49.9832  N     
4    N         7.0256   44.4292   50.7676  N     
5    C         8.6502   45.9011   51.6355  C     
6    C         9.5877   45.2916   50.8069  C     
7    C        10.5678   46.8010   52.0043  C     
8    N         9.2731   46.8285   52.3749  N     
9    N        10.7661   45.8779   51.0520  N     
10   O         6.4123   46.0011   52.4810  O     
11   N         7.6676   42.8154   49.1146  N     
12   C         5.1292   46.4343   51.9751  C     
13   C         4.0337   45.3203   52.0028  C     
14   C         1.9621   45.8968   54.1468  C     
15   C         3.3780   45.3760   54.5039  C     
16   C         3.9787   44.5326   53.3483  C     
17   C         2.6119   45.8629   51.6484  C     
18   C         1.9360   46.6631   52.7985  C     
19   C         6.4664   42.1987   48.9121  C     
20   C         4.3614   41.1903   49.6616  C     
21   C         4.0094   40.9164   48.3296  C     
22   C         4.8947   41.2480   47.2903  C     
23   C         6.1221   41.8714   47.5807  C     
24   C         5.5855   41.8201   49.9514  C     
25   Br        4.4386   40.8708   45.5249  Br    
26   H        11.2968   47.3848   52.4106  H     
27   H        11.6186   45.6550   50.6391  H     
28   H         8.3880   42.5363   48.5307  H     
29   H         4.8080   47.2549   52.6215  H     
30   H         5.2142   46.8510   50.9655  H     
31   H         4.3029   44.6002   51.2252  H     
32   H         1.2678   45.0537   54.0933  H     
33   H         1.6136   46.5628   54.9405  H     
34   H         4.0361   46.2231   54.7237  H     
35   H         3.3181   44.7655   55.4094  H     
36   H         3.3590   43.6378   53.2168  H     
37   H         4.9792   44.1962   53.6260  H     
38   H         2.6677   46.4980   50.7604  H     
39   H         1.9669   45.0177   51.3981  H     
40   H         0.8951   46.8627   52.5240  H     
41   H         2.4352   47.6290   52.9154  H     
42   H         3.7319   40.9257   50.4228  H     
43   H         3.1216   40.4568   48.1202  H     
44   H         6.7576   42.1161   46.8120  H     
45   H         5.8390   41.9756   50.9296  H     
@<TRIPOS>BOND
     1    1    4 1
     2    1    5 2
     3    1   10 1
     4    2    3 1
     5    2    4 2
     6    2   11 1
     7    3    6 2
     8    5    6 1
     9    5    8 1
    10    6    9 1
    11    7    8 2
    12    7    9 1
    13   10   12 1
    14   11   19 1
    15   12   13 1
    16   13   16 1
    17   13   17 1
    18   14   15 1
    19   14   18 1
    20   15   16 1
    21   17   18 1
    22   19   23 1
    23   19   24 2
    24   20   21 2
    25   20   24 1
    26   21   22 1
    27   22   23 2
    28   22   25 1
    29    7   26 1
    30    9   27 1
    31   11   28 1
    32   12   29 1
    33   12   30 1
    34   13   31 1
    35   14   32 1
    36   14   33 1
    37   15   34 1
    38   15   35 1
    39   16   36 1
    40   16   37 1
    41   17   38 1
    42   17   39 1
    43   18   40 1
    44   18   41 1
    45   20   42 1
    46   21   43 1
    47   23   44 1
    48   24   45 1
@<TRIPOS>PROPERTY_DATA
  Total_Score	| 9.1134
  Crash		| -0.4261
  Polar		| 2.8474
  FragIndex	| 1
  FragRMSD	| 0.461

