@<TRIPOS>MOLECULE
BindingDB_5530
 45 48 0 0 0
SMALL
NO_CHARGES


@<TRIPOS>ATOM
1    C         7.2663   45.5425   51.3578  C     
2    C         7.9268   43.8256   49.8179  C     
3    N         9.2280   44.2259   49.8885  N     
4    N         6.9747   44.4860   50.5468  N     
5    C         8.6119   45.9349   51.4511  C     
6    C         9.5714   45.2597   50.6988  C     
7    C        10.5472   46.7710   51.9011  C     
8    N         9.2335   46.8673   52.1915  N     
9    N        10.7611   45.8077   50.9947  N     
10   O         6.3273   46.1757   52.1250  O     
11   N         7.6186   42.7916   49.0084  N     
12   C         5.0013   46.3814   51.5936  C     
13   C         3.9889   45.2391   51.9208  C     
14   C         2.1326   46.0443   54.1838  C     
15   C         3.6104   45.6543   54.4479  C     
16   C         4.1279   44.6729   53.3680  C     
17   C         2.5070   45.6658   51.6558  C     
18   C         1.9221   46.6021   52.7499  C     
19   C         6.4025   42.1988   48.8550  C     
20   C         4.7246   41.2772   47.3265  C     
21   C         3.9275   40.9022   48.4227  C     
22   C         4.3700   41.1475   49.7358  C     
23   C         5.6003   41.7981   49.9527  C     
24   C         5.9630   41.9025   47.5434  C     
25   H        11.2767   47.3452   52.3348  H     
26   H        11.6234   45.5314   50.6415  H     
27   H         8.3230   42.4838   48.4193  H     
28   H         4.6431   47.3034   52.0513  H     
29   H         5.0213   46.5642   50.5174  H     
30   H         4.2170   44.4175   51.2378  H     
31   H         1.4965   45.1652   54.3287  H     
32   H         1.8278   46.7999   54.9109  H     
33   H         4.2344   46.5528   54.4479  H     
34   H         3.6885   45.1868   55.4358  H     
35   H         3.5510   43.7476   53.4420  H     
36   H         5.1658   44.4093   53.5734  H     
37   H         2.4345   46.1659   50.6859  H     
38   H         1.8856   44.7651   51.6107  H     
39   H         0.8491   46.7298   52.5777  H     
40   H         2.3812   47.5910   52.6753  H     
41   H         4.4059   41.0957   46.3749  H     
42   H         3.0257   40.4401   48.2654  H     
43   H         3.8011   40.8426   50.5333  H     
44   H         5.9211   41.9631   50.9112  H     
45   H         6.5346   42.1685   46.7423  H     
@<TRIPOS>BOND
     1    1    4 1
     2    1    5 2
     3    1   10 1
     4    2    3 1
     5    2    4 2
     6    2   11 1
     7    3    6 2
     8    5    6 1
     9    5    8 1
    10    6    9 1
    11    7    8 2
    12    7    9 1
    13   10   12 1
    14   11   19 1
    15   12   13 1
    16   13   16 1
    17   13   17 1
    18   14   15 1
    19   14   18 1
    20   15   16 1
    21   17   18 1
    22   19   23 1
    23   19   24 2
    24   20   21 2
    25   20   24 1
    26   21   22 1
    27   22   23 2
    28    7   25 1
    29    9   26 1
    30   11   27 1
    31   12   28 1
    32   12   29 1
    33   13   30 1
    34   14   31 1
    35   14   32 1
    36   15   33 1
    37   15   34 1
    38   16   35 1
    39   16   36 1
    40   17   37 1
    41   17   38 1
    42   18   39 1
    43   18   40 1
    44   20   41 1
    45   21   42 1
    46   22   43 1
    47   23   44 1
    48   24   45 1
@<TRIPOS>PROPERTY_DATA
  Total_Score	| 9.3641
  Crash		| -0.4557
  Polar		| 2.9196
  FragIndex	| 1
  FragRMSD	| 0.520

