@<TRIPOS>MOLECULE
BindingDB_5541
 46 49 0 0 0
SMALL
NO_CHARGES


@<TRIPOS>ATOM
1    C         7.2782   45.4088   51.5235  C     
2    C         7.9240   43.8277   49.8345  C     
3    N         9.2131   44.2600   49.8765  N     
4    N         6.9920   44.4011   50.6497  N     
5    C         8.6203   45.8322   51.5749  C     
6    C         9.5628   45.2484   50.7412  C     
7    C        10.5294   46.7446   51.9797  C     
8    N         9.2297   46.7637   52.3382  N     
9    N        10.7358   45.8237   51.0159  N     
10   O         6.3654   45.9802   52.3661  O     
11   N         7.5934   42.8167   48.9938  N     
12   C         5.0846   46.4384   51.8683  C     
13   C         4.0108   45.3004   52.0293  C     
14   C         1.9434   45.8990   54.1737  C     
15   C         3.3851   45.4727   54.5435  C     
16   C         4.0489   44.6140   53.4332  C     
17   C         2.5606   45.7741   51.6932  C     
18   C         1.9106   46.6278   52.8109  C     
19   C         6.4051   42.1543   49.0155  C     
20   C         4.5123   41.1480   47.8192  C     
21   C         3.9181   40.7531   49.0397  C     
22   C         4.5886   41.0452   50.2487  C     
23   C         5.7955   41.7563   50.2353  C     
24   C         5.7446   41.8220   47.8051  C     
25   O         2.7292   40.1013   49.0438  O     
26   H        11.2608   47.3270   52.3976  H     
27   H        11.5875   45.6053   50.6059  H     
28   H         8.2314   42.5451   48.3226  H     
29   H         4.8202   47.3176   52.4639  H     
30   H         5.1405   46.7736   50.8318  H     
31   H         4.2446   44.5204   51.3030  H     
32   H         1.2988   45.0147   54.1283  H     
33   H         1.5511   46.5592   54.9548  H     
34   H         3.9908   46.3634   54.7380  H     
35   H         3.3485   44.8837   55.4610  H     
36   H         3.5255   43.6511   53.3828  H     
37   H         5.0820   44.4007   53.7218  H     
38   H         2.5625   46.3465   50.7618  H     
39   H         1.9227   44.8943   51.5249  H     
40   H         0.8690   46.8363   52.5426  H     
41   H         2.4305   47.5881   52.8966  H     
42   H         4.0232   40.9602   46.9357  H     
43   H         4.1609   40.7748   51.1400  H     
44   H         6.2629   41.9645   51.1220  H     
45   H         6.1600   42.0933   46.9107  H     
46   H         2.5296   39.9043   49.9908  H     
@<TRIPOS>BOND
     1    1    4 1
     2    1    5 2
     3    1   10 1
     4    2    3 1
     5    2    4 2
     6    2   11 1
     7    3    6 2
     8    5    6 1
     9    5    8 1
    10    6    9 1
    11    7    8 2
    12    7    9 1
    13   10   12 1
    14   11   19 1
    15   12   13 1
    16   13   16 1
    17   13   17 1
    18   14   15 1
    19   14   18 1
    20   15   16 1
    21   17   18 1
    22   19   23 1
    23   19   24 2
    24   20   21 2
    25   20   24 1
    26   21   22 1
    27   21   25 1
    28   22   23 2
    29    7   26 1
    30    9   27 1
    31   11   28 1
    32   12   29 1
    33   12   30 1
    34   13   31 1
    35   14   32 1
    36   14   33 1
    37   15   34 1
    38   15   35 1
    39   16   36 1
    40   16   37 1
    41   17   38 1
    42   17   39 1
    43   18   40 1
    44   18   41 1
    45   20   42 1
    46   22   43 1
    47   23   44 1
    48   24   45 1
    49   25   46 1
@<TRIPOS>PROPERTY_DATA
  Total_Score	| 9.5617
  Crash		| -0.7348
  Polar		| 4.0466
  FragIndex	| 1
  FragRMSD	| 0.524

