@<TRIPOS>MOLECULE
BindingDB_5534
 45 48 0 0 0
SMALL
NO_CHARGES


@<TRIPOS>ATOM
1    C         7.3097   45.5589   51.4452  C     
2    C         7.9398   43.8821   49.8575  C     
3    N         9.2467   44.2549   49.9627  N     
4    N         7.0089   44.5364   50.6026  N     
5    C         8.6574   45.9251   51.5754  C     
6    C         9.6096   45.2575   50.8107  C     
7    C        10.6182   46.7341   52.0245  C     
8    N         9.3033   46.8301   52.3288  N     
9    N        10.8096   45.7846   51.0936  N     
10   O         6.3312   46.1339   52.2144  O     
11   N         7.6296   42.8717   49.0187  N     
12   C         5.0675   46.3286   51.5289  C     
13   C         3.9460   45.2895   51.8849  C     
14   C         1.9774   45.8988   54.1212  C     
15   C         3.4450   45.5397   54.4554  C     
16   C         4.0903   44.6910   53.3227  C     
17   C         2.4814   45.7743   51.6068  C     
18   C         1.8684   46.6189   52.7521  C     
19   C         6.4289   42.2650   48.8091  C     
20   C         4.9697   41.0575   47.2447  C     
21   C         3.9326   41.0479   48.2135  C     
22   C         4.1614   41.6047   49.4958  C     
23   C         5.4150   42.1737   49.8004  C     
24   C         6.2059   41.6607   47.5466  C     
25   Cl        2.9098   41.6162   50.6453  Cl    
26   Cl        4.6998   40.3787   45.7071  Cl    
27   H        11.3647   47.3030   52.4284  H     
28   H        11.6756   45.5254   50.7248  H     
29   H         8.3573   42.5309   48.4809  H     
30   H         4.7162   47.3338   51.7969  H     
31   H         5.1502   46.3231   50.4280  H     
32   H         4.1067   44.4519   51.1873  H     
33   H         1.3683   44.9866   54.1056  H     
34   H         1.5806   46.5520   54.9047  H     
35   H         4.0188   46.4581   54.6210  H     
36   H         3.4691   44.9654   55.3848  H     
37   H         3.6301   43.6959   53.3433  H     
38   H         5.1525   44.5466   53.5580  H     
39   H         2.4502   46.3637   50.6804  H     
40   H         1.8404   44.9005   51.4407  H     
41   H         0.8172   46.8189   52.5320  H     
42   H         2.3838   47.5813   52.8108  H     
43   H         3.0128   40.6311   47.9946  H     
44   H         5.6124   42.5358   50.7462  H     
45   H         6.9420   41.6765   46.8239  H     
@<TRIPOS>BOND
     1    1    4 1
     2    1    5 2
     3    1   10 1
     4    2    3 1
     5    2    4 2
     6    2   11 1
     7    3    6 2
     8    5    6 1
     9    5    8 1
    10    6    9 1
    11    7    8 2
    12    7    9 1
    13   10   12 1
    14   11   19 1
    15   12   13 1
    16   13   16 1
    17   13   17 1
    18   14   15 1
    19   14   18 1
    20   15   16 1
    21   17   18 1
    22   19   23 1
    23   19   24 2
    24   20   21 2
    25   20   24 1
    26   20   26 1
    27   21   22 1
    28   22   23 2
    29   22   25 1
    30    7   27 1
    31    9   28 1
    32   11   29 1
    33   12   30 1
    34   12   31 1
    35   13   32 1
    36   14   33 1
    37   14   34 1
    38   15   35 1
    39   15   36 1
    40   16   37 1
    41   16   38 1
    42   17   39 1
    43   17   40 1
    44   18   41 1
    45   18   42 1
    46   21   43 1
    47   23   44 1
    48   24   45 1
@<TRIPOS>PROPERTY_DATA
  Total_Score	| 9.0270
  Crash		| -0.6772
  Polar		| 2.9776
  FragIndex	| 1
  FragRMSD	| 0.508

