@<TRIPOS>MOLECULE
BindingDB_11932
 34 36 0 0 0
SMALL
NO_CHARGES


@<TRIPOS>ATOM
1    C        -2.1736    8.5405   14.1356  C     
2    C        -2.3579    9.9296   14.1356  C     
3    C        -1.9632   10.5862   12.9556  C     
4    C        -1.4281    9.7345   11.9796  C     
5    S        -1.4590    8.1316   12.6150  S     
6    C        -2.4171    7.5965   15.2423  C     
7    C        -2.8623    3.9347   14.7207  C     
8    C        -2.6123    5.3447   14.1056  C     
9    N        -3.1859    6.4318   14.8631  N     
10   S        -4.8648    6.3772   15.0878  S     
11   O        -5.3231    7.1399   16.4067  O     
12   O        -5.6961    6.8563   13.8192  O     
13   O        -2.5736    2.9468   13.7220  O     
14   C        -4.2213    3.7029   15.2804  C     
15   C        -5.1828    4.7137   15.4206  C     
16   C        -4.6524    2.4584   15.7946  C     
17   C        -5.9540    2.4570   16.3094  C     
18   S        -6.5838    4.0474   16.1575  S     
19   O        -8.3784    1.2043   16.8679  O     
20   O        -6.3338   -0.1724   16.2363  O     
21   S        -6.7974    1.1277   17.0242  S     
22   N        -6.3389    0.7697   18.5996  N     
23   H        -2.7424   10.4390   14.9322  H     
24   H        -2.0445   11.5970   12.8230  H     
25   H        -1.0684   10.0169   11.0641  H     
26   H        -1.4442    7.2724   15.6260  H     
27   H        -2.9125    8.1194   16.0663  H     
28   H        -2.1511    3.7803   15.5403  H     
29   H        -1.5329    5.4694   14.0010  H     
30   H        -3.0333    5.3766   13.0986  H     
31   H        -3.2471    3.0740   13.0169  H     
32   H        -4.0542    1.6311   15.8139  H     
33   H        -6.0247   -0.1281   18.8126  H     
34   H        -6.4152    1.4449   19.3026  H     
@<TRIPOS>BOND
     1    1    2 2
     2    1    5 1
     3    1    6 1
     4    2    3 1
     5    3    4 2
     6    4    5 1
     7    6    9 1
     8    7    8 1
     9    7   13 1
    10    7   14 1
    11    8    9 1
    12    9   10 1
    13   10   11 2
    14   10   12 2
    15   10   15 1
    16   14   15 2
    17   14   16 1
    18   15   18 1
    19   16   17 2
    20   17   18 1
    21   17   21 1
    22   19   21 2
    23   20   21 2
    24   21   22 am
    25    2   23 1
    26    3   24 1
    27    4   25 1
    28    6   26 1
    29    6   27 1
    30    7   28 1
    31    8   29 1
    32    8   30 1
    33   13   31 1
    34   16   32 1
    35   22   33 1
    36   22   34 1
@<TRIPOS>PROPERTY_DATA
  Total_Score	| 2.8669
  Crash		| -2.0782
  Polar		| 1.6406
  FragIndex	| 1
  FragRMSD	| 1.241

