@<TRIPOS>MOLECULE
BindingDB_6628
 53 57 0 0 0
SMALL
NO_CHARGES


@<TRIPOS>ATOM
1    C         7.2283    8.2811   23.4369  C     
2    C         7.3959    8.0525   22.0729  C     
3    C         8.7687    8.0326   21.8502  C     
4    N         9.3493    8.2566   23.0379  N     
5    N         8.4611    8.3946   23.9683  N     
6    N         6.0599    8.4253   24.1149  N     
7    C         5.9367    8.6083   25.4268  C     
8    O         6.8827    8.4107   26.1998  O     
9    N         4.7752    9.0106   25.9081  N     
10   C         4.5006    9.4237   27.1852  C     
11   C         3.7821   10.0960   29.8613  C     
12   C         2.8531    9.4690   29.0080  C     
13   C         3.2098    9.1344   27.6833  C     
14   C         5.0537   10.4234   29.3558  C     
15   C         5.3993   10.1413   28.0285  C     
16   C         6.0963   11.0660   29.9523  C     
17   C         6.7437   10.6999   27.7857  C     
18   C         8.1095   12.6547   27.5300  C     
19   C         8.0208   12.2964   29.0331  C     
20   C         6.9198   11.9234   26.8716  C     
21   N         7.0559   11.2458   29.0589  N     
22   O         6.0928   11.5215   31.0902  O     
23   C         9.5123    7.8080   20.5946  C     
24   C        10.3151    6.1223   18.9434  C     
25   C        10.1683    5.4285   21.1786  C     
26   C        10.5480    4.1635   20.3750  C     
27   C        10.4810    4.5941   18.8962  C     
28   N         9.5688    6.3685   20.1966  N     
29   H         6.6602    7.9355   21.3742  H     
30   H        10.3087    8.2987   23.1825  H     
31   H         5.2473    8.4663   23.5848  H     
32   H         4.0151    8.9148   25.3093  H     
33   H         3.5269   10.3297   30.8235  H     
34   H         1.9170    9.2521   29.3525  H     
35   H         2.5265    8.6442   27.0974  H     
36   H         7.4768    9.9281   27.5156  H     
37   H         8.0485   13.7324   27.3653  H     
38   H         9.0521   12.2870   27.1143  H     
39   H         8.9813   11.9440   29.4247  H     
40   H         7.6900   13.1716   29.6080  H     
41   H         7.1384   11.6306   25.8401  H     
42   H         6.0278   12.5613   26.8823  H     
43   H         9.0267    8.3866   19.8073  H     
44   H        10.5252    8.2056   20.7047  H     
45   H        11.3014    6.6011   18.9624  H     
46   H         9.7595    6.4846   18.0758  H     
47   H         9.4644    5.1814   21.9754  H     
48   H        11.0734    5.8511   21.6296  H     
49   H        11.5560    3.8222   20.6346  H     
50   H         9.8419    3.3485   20.5673  H     
51   H         9.6094    4.1422   18.4095  H     
52   H        11.3835    4.3044   18.3505  H     
53   H         8.6100    6.0707   20.0157  H     
@<TRIPOS>BOND
     1    1    2 1
     2    1    5 2
     3    1    6 1
     4    2    3 2
     5    3    4 1
     6    3   23 1
     7    4    5 1
     8    6    7 am
     9    7    8 2
    10    7    9 am
    11    9   10 1
    12   10   13 2
    13   10   15 1
    14   11   12 2
    15   11   14 1
    16   12   13 1
    17   14   15 2
    18   14   16 1
    19   15   17 1
    20   16   21 1
    21   16   22 2
    22   17   20 1
    23   17   21 1
    24   18   19 1
    25   18   20 1
    26   19   21 1
    27   23   28 1
    28   24   27 1
    29   24   28 1
    30   25   26 1
    31   25   28 1
    32   26   27 1
    33    2   29 1
    34    4   30 1
    35    6   31 1
    36    9   32 1
    37   11   33 1
    38   12   34 1
    39   13   35 1
    40   17   36 1
    41   18   37 1
    42   18   38 1
    43   19   39 1
    44   19   40 1
    45   20   41 1
    46   20   42 1
    47   23   43 1
    48   23   44 1
    49   24   45 1
    50   24   46 1
    51   25   47 1
    52   25   48 1
    53   26   49 1
    54   26   50 1
    55   27   51 1
    56   27   52 1
    57   28   53 1
@<TRIPOS>PROPERTY_DATA
  Total_Score	| 6.9062
  Crash		| -1.3497
  Polar		| 2.7496
  FragIndex	| 1
  FragRMSD	| 0.965

