@<TRIPOS>MOLECULE
BindingDB_6630
 50 54 0 0 0
SMALL
NO_CHARGES


@<TRIPOS>ATOM
1    C         4.9591    7.6730   25.6826  C     
2    O         4.5766    6.5733   25.3026  O     
3    N         4.2084    8.1301   26.6683  N     
4    C         4.1579    9.1839   27.5440  C     
5    C         3.6692   10.8828   29.7976  C     
6    C         2.6111   10.1874   29.1972  C     
7    C         2.8602    9.3391   28.1021  C     
8    C         4.9578   10.7378   29.2566  C     
9    C         5.2151    9.9552   28.1163  C     
10   C         6.1141   11.2845   29.7115  C     
11   C         6.6731   10.0520   27.8613  C     
12   C         8.2697   11.7933   27.1042  C     
13   C         8.2645   11.6927   28.6472  C     
14   C         7.1793   10.8116   26.6155  C     
15   N         7.0969   10.9246   28.9096  N     
16   O         6.1933   12.1012   30.6246  O     
17   N         5.9647    8.2788   25.0641  N     
18   C         6.7254    7.7451   24.0685  C     
19   C         7.7931    8.3543   23.4227  C     
20   C         8.2952    7.4207   22.5216  C     
21   N         6.6287    6.5033   23.5580  N     
22   N         7.5294    6.3281   22.6494  N     
23   C         9.4665    7.5608   21.6293  C     
24   C        10.3577    7.0902   19.4775  C     
25   C         9.5174    8.9007   20.8781  C     
26   C        10.2976    8.6233   19.5799  C     
27   N         9.4836    6.5732   20.5402  N     
28   H         3.4519    7.5365   26.8106  H     
29   H         3.4991   11.4715   30.6184  H     
30   H         1.6649   10.2713   29.5754  H     
31   H         2.0648    8.8046   27.7343  H     
32   H         7.1599    9.0736   27.9640  H     
33   H         8.0433   12.8125   26.7733  H     
34   H         9.2549   11.5133   26.7156  H     
35   H         9.1484   11.1546   29.0150  H     
36   H         8.2411   12.6945   29.1011  H     
37   H         7.6360   10.1237   25.9024  H     
38   H         6.3462   11.3401   26.1335  H     
39   H         6.1773    9.1800   25.3425  H     
40   H         8.1520    9.2971   23.5823  H     
41   H         7.6540    5.5030   22.1550  H     
42   H        10.3728    7.4406   22.2285  H     
43   H        10.0000    6.7451   18.5075  H     
44   H        11.3774    6.7322   19.6267  H     
45   H         8.5047    9.2319   20.6447  H     
46   H        10.0082    9.6588   21.4847  H     
47   H        11.3099    9.0421   19.6286  H     
48   H         9.7864    9.0592   18.7147  H     
49   H         9.8093    5.6664   20.8772  H     
50   H         8.5438    6.4794   20.1549  H     
@<TRIPOS>BOND
     1    1    2 2
     2    1    3 am
     3    1   17 am
     4    3    4 1
     5    4    7 2
     6    4    9 1
     7    5    6 2
     8    5    8 1
     9    6    7 1
    10    8    9 2
    11    8   10 1
    12    9   11 1
    13   10   15 1
    14   10   16 2
    15   11   14 1
    16   11   15 1
    17   12   13 1
    18   12   14 1
    19   13   15 1
    20   17   18 1
    21   18   19 1
    22   18   21 2
    23   19   20 2
    24   20   22 1
    25   23   20 1
    26   21   22 1
    27   23   25 1
    28   23   27 1
    29   24   26 1
    30   24   27 1
    31   25   26 1
    32    3   28 1
    33    5   29 1
    34    6   30 1
    35    7   31 1
    36   11   32 1
    37   12   33 1
    38   12   34 1
    39   13   35 1
    40   13   36 1
    41   14   37 1
    42   14   38 1
    43   17   39 1
    44   19   40 1
    45   22   41 1
    46   23   42 1
    47   24   43 1
    48   24   44 1
    49   25   45 1
    50   25   46 1
    51   26   47 1
    52   26   48 1
    53   27   49 1
    54   27   50 1
@<TRIPOS>PROPERTY_DATA
  Total_Score	| 5.6484
  Crash		| -1.7262
  Polar		| 1.6097
  FragIndex	| 1
  FragRMSD	| 1.105

