@<TRIPOS>MOLECULE
BindingDB_6621
 52 55 0 0 0
SMALL
NO_CHARGES


@<TRIPOS>ATOM
1    C         7.3305    8.2358   23.4079  C     
2    C         7.4529    8.2006   22.0226  C     
3    C         8.7926    7.9352   21.7662  C     
4    N         9.3961    7.8350   22.9624  N     
5    N         8.5520    8.0160   23.9236  N     
6    N         6.1954    8.4855   24.1006  N     
7    C         6.0886    8.5947   25.4153  C     
8    O         7.0166    8.3423   26.1709  O     
9    N         4.9171    8.9777   25.8902  N     
10   C         4.6097    9.3189   27.1753  C     
11   C         3.7927   10.0426   29.8114  C     
12   C         2.9045    9.3736   28.9430  C     
13   C         3.3058    9.0264   27.6367  C     
14   C         5.0816   10.3682   29.3435  C     
15   C         5.4812   10.0215   28.0471  C     
16   C         6.0914   11.0647   29.9403  C     
17   C         6.8432   10.5478   27.8489  C     
18   C         8.2194   12.4813   27.4843  C     
19   C         8.0401   12.2653   29.0064  C     
20   C         7.0699   11.6810   26.8330  C     
21   N         7.0958   11.1954   29.0857  N     
22   O         6.0074   11.6313   31.0210  O     
23   C         9.4979    7.7714   20.4828  C     
24   N         9.4295    6.3524   20.0604  N     
25   C         9.9930    6.0482   18.7246  C     
26   C         9.6242    4.6219   18.2395  C     
27   C         8.7307    4.6023   16.9769  C     
28   H         6.7125    8.3462   21.3336  H     
29   H        10.3422    7.6665   23.0888  H     
30   H         5.3963    8.6564   23.5802  H     
31   H         4.1797    8.9648   25.2598  H     
32   H         3.4972   10.2987   30.7558  H     
33   H         1.9642    9.1470   29.2621  H     
34   H         2.6421    8.5339   27.0331  H     
35   H         7.5743    9.7451   27.7296  H     
36   H         8.1664   13.5400   27.2166  H     
37   H         9.1815   12.0813   27.1530  H     
38   H         8.9832   11.9810   29.4781  H     
39   H         7.6590   13.1770   29.4756  H     
40   H         7.3428   11.2969   25.8444  H     
41   H         6.1815   12.3126   26.7456  H     
42   H         9.0409    8.3958   19.7160  H     
43   H        10.5346    8.0962   20.6135  H     
44   H         9.9331    5.7825   20.7459  H     
45   H         8.4462    6.0766   20.0784  H     
46   H         9.6513    6.7786   17.9868  H     
47   H        11.0806    6.1213   18.7943  H     
48   H        10.5481    4.0841   18.0088  H     
49   H         9.1211    4.0818   19.0453  H     
50   H         7.7831    5.1080   17.1677  H     
51   H         8.5218    3.5706   16.6886  H     
52   H         9.2339    5.0967   16.1443  H     
@<TRIPOS>BOND
     1    1    2 1
     2    1    5 2
     3    1    6 1
     4    2    3 2
     5    3    4 1
     6    3   23 1
     7    4    5 1
     8    6    7 am
     9    7    8 2
    10    7    9 am
    11    9   10 1
    12   10   13 2
    13   10   15 1
    14   11   12 2
    15   11   14 1
    16   12   13 1
    17   14   15 2
    18   14   16 1
    19   15   17 1
    20   16   21 1
    21   16   22 2
    22   17   20 1
    23   17   21 1
    24   18   19 1
    25   18   20 1
    26   19   21 1
    27   23   24 1
    28   24   25 1
    29   25   26 1
    30   26   27 1
    31    2   28 1
    32    4   29 1
    33    6   30 1
    34    9   31 1
    35   11   32 1
    36   12   33 1
    37   13   34 1
    38   17   35 1
    39   18   36 1
    40   18   37 1
    41   19   38 1
    42   19   39 1
    43   20   40 1
    44   20   41 1
    45   23   42 1
    46   23   43 1
    47   24   44 1
    48   24   45 1
    49   25   46 1
    50   25   47 1
    51   26   48 1
    52   26   49 1
    53   27   50 1
    54   27   51 1
    55   27   52 1
@<TRIPOS>PROPERTY_DATA
  Total_Score	| 6.5339
  Crash		| -1.6321
  Polar		| 1.9152
  FragIndex	| 1
  FragRMSD	| 1.025

