@<TRIPOS>MOLECULE
BindingDB_6619
 39 42 0 0 0
SMALL
NO_CHARGES


@<TRIPOS>ATOM
1    C         8.7834    8.9243   21.8806  C     
2    C         9.0559    9.4847   23.1382  C     
3    C         6.8877    8.8516   23.9695  C     
4    C         6.5872    8.2648   22.7141  C     
5    C         7.5385    8.3065   21.6755  C     
6    N         8.1103    9.4291   24.1084  N     
7    N         6.0842    8.9417   25.0778  N     
8    C         4.8419    8.5286   25.2852  C     
9    O         4.2479    7.8618   24.4488  O     
10   N         4.0950    8.7414   26.3561  N     
11   C         4.1731    9.3670   27.5789  C     
12   C         3.8350   10.4523   30.2172  C     
13   C         2.7568    9.8554   29.5530  C     
14   C         2.9352    9.2922   28.2765  C     
15   C         5.0693   10.5320   29.5473  C     
16   C         5.2361   10.0587   28.2345  C     
17   C         6.2133   11.1308   29.9679  C     
18   C         6.6074   10.4329   27.8292  C     
19   C         7.4488   12.7002   27.3337  C     
20   C         7.9881   12.1991   28.6899  C     
21   C         6.7799   11.4665   26.6898  C     
22   N         7.0775   11.1408   28.9708  N     
23   O         6.3463   11.7215   31.0325  O     
24   H         9.4777    8.9572   21.1311  H     
25   H         9.9494    9.9412   23.3206  H     
26   H         5.6925    7.8164   22.5293  H     
27   H         7.3230    7.8827   20.7701  H     
28   H         6.4757    9.4258   25.8098  H     
29   H         3.2245    8.3207   26.2438  H     
30   H         3.7096   10.8535   31.1512  H     
31   H         1.8405    9.8233   29.9987  H     
32   H         2.1204    8.8327   27.8535  H     
33   H         7.2253    9.5437   27.6866  H     
34   H         6.6911   13.4739   27.5004  H     
35   H         8.2412   13.1184   26.7053  H     
36   H         9.0053   11.8004   28.6052  H     
37   H         7.9759   13.0122   29.4254  H     
38   H         7.4538   11.0746   25.9348  H     
39   H         5.8237   11.7191   26.2185  H     
@<TRIPOS>BOND
     1    1    2 1
     2    1    5 2
     3    2    6 2
     4    3    4 2
     5    3    6 1
     6    3    7 1
     7    4    5 1
     8    7    8 am
     9    8    9 2
    10    8   10 am
    11   10   11 1
    12   11   14 2
    13   11   16 1
    14   12   13 2
    15   12   15 1
    16   13   14 1
    17   15   16 2
    18   15   17 1
    19   16   18 1
    20   17   22 1
    21   17   23 2
    22   18   21 1
    23   18   22 1
    24   19   20 1
    25   19   21 1
    26   20   22 1
    27    1   24 1
    28    2   25 1
    29    4   26 1
    30    5   27 1
    31    7   28 1
    32   10   29 1
    33   12   30 1
    34   13   31 1
    35   14   32 1
    36   18   33 1
    37   19   34 1
    38   19   35 1
    39   20   36 1
    40   20   37 1
    41   21   38 1
    42   21   39 1
@<TRIPOS>PROPERTY_DATA
  Total_Score	| 4.7552
  Crash		| -1.0221
  Polar		| 1.7316
  FragIndex	| 1
  FragRMSD	| 0.705

