@<TRIPOS>MOLECULE
BindingDB_6632
 60 65 0 0 0
SMALL
NO_CHARGES


@<TRIPOS>ATOM
1    C         5.3869    8.0077   25.4121  C     
2    O         5.3825    6.8805   24.9355  O     
3    N         4.5086    8.1863   26.3847  N     
4    C         4.2820    9.1449   27.3382  C     
5    C         3.6036   10.4370   29.7995  C     
6    C         2.6223    9.7568   29.0610  C     
7    C         2.9675    9.0923   27.8681  C     
8    C         4.9065   10.5031   29.2750  C     
9    C         5.2369    9.9573   28.0244  C     
10   C         6.0190   11.0475   29.8405  C     
11   C         6.6614   10.2851   27.7775  C     
12   C         7.9233   12.4061   27.4902  C     
13   C         8.1434   11.8019   28.8872  C     
14   C         7.0175   11.3911   26.7501  C     
15   N         7.0193   10.9423   28.9865  N     
16   O         6.0593   11.6337   30.9180  O     
17   N         6.1404    8.9668   24.9050  N     
18   C         7.2011    8.8544   24.0686  C     
19   C         7.9331    7.7428   23.6547  C     
20   C         9.0528    8.2426   22.9998  C     
21   N         7.8477    9.9404   23.6108  N     
22   N         8.9202    9.5778   22.9828  N     
23   C        10.2640    7.4924   22.6285  C     
24   N        10.7725    7.8293   21.2636  N     
25   C        10.8912    6.7440   20.2482  C     
26   C         9.5144    6.1615   19.8158  C     
27   C        11.7801    5.5438   20.7082  C     
28   C        10.8678    4.3998   20.6613  C     
29   C         9.6029    4.7464   20.1717  C     
30   C        10.1365    2.0972   20.9343  C     
31   C         8.8641    2.4413   20.4219  C     
32   C         8.5978    3.7733   20.0368  C     
33   C        11.1456    3.0757   21.0497  C     
34   Cl        7.6657    1.2589   20.2667  Cl    
35   H         3.9129    7.4235   26.4807  H     
36   H         3.3699   10.8656   30.7007  H     
37   H         1.6662    9.7042   29.4143  H     
38   H         2.2454    8.5310   27.4046  H     
39   H         7.2649    9.3815   27.6501  H     
40   H         7.4188   13.3732   27.5711  H     
41   H         8.8760   12.5473   26.9743  H     
42   H         9.0622   11.2072   28.9126  H     
43   H         8.1893   12.5780   29.6591  H     
44   H         7.5707   10.9717   25.9186  H     
45   H         6.1178   11.8828   26.3686  H     
46   H         5.9251    9.8611   25.1988  H     
47   H         7.7741    6.7689   23.9200  H     
48   H         9.5652   10.2005   22.6087  H     
49   H        11.0400    7.7565   23.3485  H     
50   H        10.0714    6.4198   22.7473  H     
51   H        10.1757    8.5642   20.8720  H     
52   H        11.7089    8.2296   21.3725  H     
53   H        11.3631    7.1970   19.3684  H     
54   H         8.6792    6.6300   20.3439  H     
55   H         9.3602    6.2642   18.7376  H     
56   H        12.6220    5.3843   20.0264  H     
57   H        12.1669    5.6741   21.7202  H     
58   H        10.3277    1.1419   21.2433  H     
59   H         7.6872    4.0470   19.6628  H     
60   H        12.0682    2.8237   21.4145  H     
@<TRIPOS>BOND
     1    1    2 2
     2    1    3 am
     3    1   17 am
     4    3    4 1
     5    4    7 2
     6    4    9 1
     7    5    6 2
     8    5    8 1
     9    6    7 1
    10    8    9 2
    11    8   10 1
    12    9   11 1
    13   10   15 1
    14   10   16 2
    15   11   14 1
    16   11   15 1
    17   12   13 1
    18   12   14 1
    19   13   15 1
    20   17   18 1
    21   18   19 1
    22   18   21 2
    23   19   20 2
    24   20   22 1
    25   20   23 1
    26   21   22 1
    27   23   24 1
    28   25   24 1
    29   25   26 1
    30   25   27 1
    31   26   29 1
    32   27   28 1
    33   28   29 2
    34   28   33 1
    35   29   32 1
    36   30   31 1
    37   30   33 2
    38   31   32 2
    39   31   34 1
    40    3   35 1
    41    5   36 1
    42    6   37 1
    43    7   38 1
    44   11   39 1
    45   12   40 1
    46   12   41 1
    47   13   42 1
    48   13   43 1
    49   14   44 1
    50   14   45 1
    51   17   46 1
    52   19   47 1
    53   22   48 1
    54   23   49 1
    55   23   50 1
    56   24   51 1
    57   24   52 1
    58   25   53 1
    59   26   54 1
    60   26   55 1
    61   27   56 1
    62   27   57 1
    63   30   58 1
    64   32   59 1
    65   33   60 1
@<TRIPOS>PROPERTY_DATA
  Total_Score	| 5.6778
  Crash		| -1.8441
  Polar		| 3.0326
  FragIndex	| 1
  FragRMSD	| 0.975

