@<TRIPOS>MOLECULE
BindingDB_26325
 43 46 0 0 0
SMALL
NO_CHARGES


@<TRIPOS>ATOM
1    C         4.9613   29.1926    8.1137  C     
2    C         3.6682   30.2411    9.8323  C     
3    C         4.6894   30.2984    7.2590  C     
4    C         4.3630   32.1224    5.7231  C     
5    C         3.6913   32.3357    6.8580  C     
6    C         3.8825   31.3347    7.7583  C     
7    S         5.2943   30.6834    5.6710  S     
8    N         4.4423   29.2212    9.3766  N     
9    N         3.3797   31.2920    9.0239  N     
10   N         5.6751   28.0678    7.8851  N     
11   C         6.9628   27.8864    7.2905  C     
12   C         8.1055   28.2605    8.2809  C     
13   C         8.6598   27.0818    8.9802  C     
14   C         8.5499   26.7297   10.3314  C     
15   S         9.4462   25.7582    8.2210  S     
16   N         9.0620   25.5150   10.6656  N     
17   C         9.6210   24.8168    9.6469  C     
18   C        10.2101   22.7262   10.6508  C     
19   O         9.8158   23.0433   11.7615  O     
20   C        11.0702   20.7968    9.4595  C     
21   C        12.7432   19.3880    8.3597  C     
22   C        12.3125   20.1222    9.4847  C     
23   C        10.2628   20.7019    8.3043  C     
24   C        10.7067   19.9890    7.1720  C     
25   C        11.9444   19.3257    7.2015  C     
26   N        10.5780   21.4580   10.5447  N     
27   N        10.1607   23.5787    9.6321  N     
28   F        13.8932   18.7703    8.3881  F     
29   H         3.2839   30.2149   10.7769  H     
30   H         4.3205   32.7526    4.9541  H     
31   H         3.1144   33.1325    7.0325  H     
32   H         5.1853   27.2443    8.0612  H     
33   H         7.0114   26.8256    6.9989  H     
34   H         7.0773   28.4439    6.3605  H     
35   H         8.9182   28.7313    7.7145  H     
36   H         7.7649   28.9978    9.0190  H     
37   H         8.1116   27.3378   11.0235  H     
38   H        12.9012   20.1509   10.3247  H     
39   H         9.3570   21.1689    8.2687  H     
40   H        10.1287   19.9532    6.3316  H     
41   H        12.2584   18.7930    6.3823  H     
42   H        10.4012   20.9055   11.3212  H     
43   H        10.4945   23.2684    8.7745  H     
@<TRIPOS>BOND
     1    1    3 2
     2    1    8 1
     3    1   10 1
     4    2    8 2
     5    2    9 1
     6    3    6 1
     7    3    7 1
     8    4    5 2
     9    4    7 1
    10    5    6 1
    11    6    9 2
    12   10   11 1
    13   11   12 1
    14   12   13 1
    15   13   14 2
    16   13   15 1
    17   14   16 1
    18   15   17 1
    19   16   17 2
    20   17   27 1
    21   18   19 2
    22   18   26 am
    23   18   27 am
    24   20   22 2
    25   20   23 1
    26   20   26 1
    27   21   22 1
    28   21   25 2
    29   21   28 1
    30   23   24 2
    31   24   25 1
    32    2   29 1
    33    4   30 1
    34    5   31 1
    35   10   32 1
    36   11   33 1
    37   11   34 1
    38   12   35 1
    39   12   36 1
    40   14   37 1
    41   22   38 1
    42   23   39 1
    43   24   40 1
    44   25   41 1
    45   26   42 1
    46   27   43 1
@<TRIPOS>PROPERTY_DATA
  Total_Score	| 5.9325
  Crash		| -1.6422
  Polar		| 1.4572
  FragIndex	| 1
  FragRMSD	| 1.052

