@<TRIPOS>MOLECULE
BindingDB_26323
 47 50 0 0 0
SMALL
NO_CHARGES


@<TRIPOS>ATOM
1    C         5.0680   29.9011    7.6954  C     
2    C         3.7943   30.3726    9.6599  C     
3    C         4.3111   30.8709    7.0027  C     
4    C         3.1229   32.4181    5.6397  C     
5    C         2.6429   32.4174    6.8844  C     
6    C         3.3044   31.5480    7.6852  C     
7    S         4.4191   31.3447    5.3360  S     
8    N         4.7689   29.6805    9.0097  N     
9    N         3.0704   31.3123    9.0018  N     
10   N         6.0488   29.2179    7.0590  N     
11   C         6.6607   28.0083    7.5073  C     
12   C         7.8924   28.2862    8.4017  C     
13   C         8.4191   27.0588    9.0340  C     
14   C         8.5473   26.8497   10.4114  C     
15   S         9.0398   25.6480    8.2810  S     
16   N         9.0804   25.6596   10.7779  N     
17   C         9.4262   24.8608    9.7465  C     
18   C        10.2384   22.9063   10.8675  C     
19   O        10.0544   23.3685   12.0088  O     
20   C        11.0135   20.9106    9.7466  C     
21   C        12.4732   19.3031    8.6187  C     
22   C        12.1379   20.0634    9.7665  C     
23   C        10.1823   20.9261    8.6062  C     
24   C        10.5560   20.2315    7.4320  C     
25   C        11.6998   19.4282    7.4441  C     
26   N        10.7372   21.6808   10.8508  N     
27   N         9.9911   23.6355    9.8054  N     
28   O        13.5773   18.5039    8.6455  O     
29   C        13.2350   17.1102    8.5900  C     
30   H         3.6153   30.1904   10.6444  H     
31   H         2.7678   33.0164    4.9325  H     
32   H         1.8915   32.9903    7.1901  H     
33   H         6.3072   29.5377    6.1791  H     
34   H         5.9370   27.3790    8.0347  H     
35   H         6.9856   27.4611    6.6200  H     
36   H         8.6875   28.7403    7.8045  H     
37   H         7.6109   28.9917    9.1823  H     
38   H         8.2797   27.5401   11.1025  H     
39   H        12.7438   20.0049   10.5936  H     
40   H         9.2981   21.4255    8.5935  H     
41   H         9.9943   20.3270    6.5943  H     
42   H        11.9505   18.9116    6.5967  H     
43   H        11.0151   21.3157   11.7008  H     
44   H        10.2299   23.2599    8.9429  H     
45   H        12.5790   16.8289    9.4138  H     
46   H        14.1554   16.5405    8.6783  H     
47   H        12.7583   16.8526    7.6412  H     
@<TRIPOS>BOND
     1    1    3 2
     2    1    8 1
     3    1   10 1
     4    2    8 2
     5    2    9 1
     6    3    6 1
     7    3    7 1
     8    4    5 2
     9    4    7 1
    10    5    6 1
    11    6    9 2
    12   10   11 1
    13   11   12 1
    14   12   13 1
    15   13   14 2
    16   13   15 1
    17   14   16 1
    18   15   17 1
    19   16   17 2
    20   17   27 1
    21   18   19 2
    22   18   26 am
    23   18   27 am
    24   20   22 2
    25   20   23 1
    26   20   26 1
    27   21   22 1
    28   21   25 2
    29   21   28 1
    30   23   24 2
    31   24   25 1
    32   28   29 1
    33    2   30 1
    34    4   31 1
    35    5   32 1
    36   10   33 1
    37   11   34 1
    38   11   35 1
    39   12   36 1
    40   12   37 1
    41   14   38 1
    42   22   39 1
    43   23   40 1
    44   24   41 1
    45   25   42 1
    46   26   43 1
    47   27   44 1
    48   29   45 1
    49   29   46 1
    50   29   47 1
@<TRIPOS>PROPERTY_DATA
  Total_Score	| 6.8173
  Crash		| -2.5956
  Polar		| 1.6736
  FragIndex	| 1
  FragRMSD	| 1.042

