@<TRIPOS>MOLECULE
BindingDB_26329
 43 46 0 0 0
SMALL
NO_CHARGES


@<TRIPOS>ATOM
1    C         4.9889   29.2022    8.1249  C     
2    C         3.7040   30.2716    9.8369  C     
3    C         4.7265   30.3077    7.2765  C     
4    C         4.3952   32.1107    5.7175  C     
5    C         3.7186   32.3202    6.8520  C     
6    C         3.9338   31.3530    7.7716  C     
7    S         5.3456   30.6955    5.6866  S     
8    N         4.4788   29.2431    9.3885  N     
9    N         3.4326   31.3223    9.0322  N     
10   N         5.6467   28.0342    7.8971  N     
11   C         6.8827   27.8042    7.2216  C     
12   C         8.0803   28.2079    8.1273  C     
13   C         8.6315   27.0707    8.8990  C     
14   C         8.5706   26.8241   10.2825  C     
15   S         9.4392   25.7183    8.2188  S     
16   N         9.1056   25.6397   10.6812  N     
17   C         9.6513   24.8749    9.7012  C     
18   C        10.2146   22.8399   10.8318  C     
19   O         9.7758   23.2189   11.9022  O     
20   C        11.0937   20.8699    9.7582  C     
21   C        10.8372   19.8502    7.5508  C     
22   C        10.3505   20.6824    8.5761  C     
23   C        12.3099   20.1785    9.9174  C     
24   C        12.7984   19.3270    8.9034  C     
25   C        12.0555   19.1654    7.7112  C     
26   N        10.5458   21.5553   10.7919  N     
27   N        10.1994   23.6382    9.7665  N     
28   Cl       12.5826   18.1580    6.4510  Cl    
29   Cl       14.2735   18.5371    9.1572  Cl    
30   H         3.3172   30.2495   10.7777  H     
31   H         4.3344   32.7171    4.9390  H     
32   H         3.1144   33.0853    6.9985  H     
33   H         5.1662   27.2418    8.1629  H     
34   H         6.9233   26.7336    6.9588  H     
35   H         6.9775   28.3303    6.2713  H     
36   H         8.8661   28.6213    7.4886  H     
37   H         7.7860   28.9918    8.8332  H     
38   H         8.1124   27.4606   10.9384  H     
39   H        10.2902   19.7368    6.6916  H     
40   H         9.4575   21.1568    8.4526  H     
41   H        12.8212   20.2697   10.7970  H     
42   H        10.3750   21.0525   11.6010  H     
43   H        10.5346   23.2686    8.9343  H     
@<TRIPOS>BOND
     1    1    3 2
     2    1    8 1
     3    1   10 1
     4    2    8 2
     5    2    9 1
     6    3    6 1
     7    3    7 1
     8    4    5 2
     9    4    7 1
    10    5    6 1
    11    6    9 2
    12   10   11 1
    13   11   12 1
    14   12   13 1
    15   13   14 2
    16   13   15 1
    17   14   16 1
    18   15   17 1
    19   16   17 2
    20   17   27 1
    21   18   19 2
    22   18   26 am
    23   18   27 am
    24   20   22 2
    25   20   23 1
    26   20   26 1
    27   21   22 1
    28   21   25 2
    29   23   24 2
    30   24   25 1
    31   24   29 1
    32   25   28 1
    33    2   30 1
    34    4   31 1
    35    5   32 1
    36   10   33 1
    37   11   34 1
    38   11   35 1
    39   12   36 1
    40   12   37 1
    41   14   38 1
    42   21   39 1
    43   22   40 1
    44   23   41 1
    45   26   42 1
    46   27   43 1
@<TRIPOS>PROPERTY_DATA
  Total_Score	| 7.4562
  Crash		| -1.6619
  Polar		| 1.8899
  FragIndex	| 1
  FragRMSD	| 1.035

