@<TRIPOS>MOLECULE
BindingDB_26321
 46 49 0 0 0
SMALL
NO_CHARGES


@<TRIPOS>ATOM
1    C         4.9358   29.5026    7.7925  C     
2    C         3.7477   30.3132    9.7047  C     
3    C         4.4190   30.5780    7.0496  C     
4    C         3.6511   32.2976    5.5986  C     
5    C         3.1675   32.4591    6.8294  C     
6    C         3.5820   31.4951    7.6839  C     
7    S         4.6762   30.9454    5.3738  S     
8    N         4.5715   29.4151    9.1013  N     
9    N         3.2591   31.3553    8.9898  N     
10   N         5.7418   28.5871    7.2046  N     
11   C         6.3472   27.4686    7.8490  C     
12   C         7.4872   27.9025    8.8141  C     
13   C         8.2444   26.7865    9.4172  C     
14   C         8.8644   26.7762   10.6723  C     
15   S         8.7650   25.3374    8.6434  S     
16   N         9.6585   25.7064   10.9304  N     
17   C         9.7280   24.7774    9.9536  C     
18   C        10.5876   22.6304    9.2233  C     
19   O         9.7593   22.5331    8.3241  O     
20   C        11.5195   20.5196    8.5909  C     
21   C        11.8642   18.0965    8.3946  C     
22   C        11.8054   19.2640    9.1815  C     
23   C        11.3118   20.5777    7.1955  C     
24   C        11.3551   19.4128    6.4066  C     
25   C        11.6418   18.1684    7.0040  C     
26   N        11.5199   21.6715    9.3641  N     
27   N        10.5021   23.6677   10.0596  N     
28   C        12.6014   21.8149   10.3162  C     
29   H         3.4960   30.1976   10.6843  H     
30   H         3.4452   32.9197    4.8604  H     
31   H         2.5605   33.2050    7.0967  H     
32   H         5.9177   28.6923    6.2557  H     
33   H         5.5952   26.8762    8.3708  H     
34   H         6.7745   26.8481    7.0553  H     
35   H         8.1889   28.5272    8.2640  H     
36   H         7.0770   28.5039    9.6288  H     
37   H         8.7686   27.5371   11.3404  H     
38   H        12.0836   17.1975    8.8326  H     
39   H        11.9999   19.2123   10.1901  H     
40   H        11.1348   21.4872    6.7512  H     
41   H        11.1886   19.4802    5.4002  H     
42   H        11.6811   17.3235    6.4273  H     
43   H        11.0732   23.6314   10.8484  H     
44   H        13.1378   22.7582   10.1524  H     
45   H        13.3294   20.9926   10.2655  H     
46   H        12.1717   21.8234   11.3191  H     
@<TRIPOS>BOND
     1    1    3 2
     2    1    8 1
     3    1   10 1
     4    2    8 2
     5    2    9 1
     6    3    6 1
     7    3    7 1
     8    4    5 2
     9    4    7 1
    10    5    6 1
    11    6    9 2
    12   10   11 1
    13   11   12 1
    14   12   13 1
    15   13   14 2
    16   13   15 1
    17   14   16 1
    18   15   17 1
    19   16   17 2
    20   17   27 1
    21   18   19 2
    22   18   26 am
    23   18   27 am
    24   20   22 2
    25   20   23 1
    26   20   26 1
    27   21   22 1
    28   21   25 2
    29   23   24 2
    30   24   25 1
    31   26   28 1
    32    2   29 1
    33    4   30 1
    34    5   31 1
    35   10   32 1
    36   11   33 1
    37   11   34 1
    38   12   35 1
    39   12   36 1
    40   14   37 1
    41   21   38 1
    42   22   39 1
    43   23   40 1
    44   24   41 1
    45   25   42 1
    46   27   43 1
    47   28   44 1
    48   28   45 1
    49   28   46 1
@<TRIPOS>PROPERTY_DATA
  Total_Score	| 6.6634
  Crash		| -4.9819
  Polar		| 4.1317
  FragIndex	| 1
  FragRMSD	| 0.713

