@<TRIPOS>MOLECULE
BindingDB_26320
 43 46 0 0 0
SMALL
NO_CHARGES


@<TRIPOS>ATOM
1    C         5.0704   29.5787    7.7604  C     
2    C         3.8915   30.2847    9.7140  C     
3    C         4.4782   30.6378    7.0441  C     
4    C         3.5384   32.3143    5.6444  C     
5    C         3.0774   32.4269    6.8887  C     
6    C         3.5906   31.4839    7.7171  C     
7    S         4.6624   31.0531    5.3725  S     
8    N         4.7540   29.4428    9.0779  N     
9    N         3.3092   31.3078    9.0336  N     
10   N         5.8836   28.7022    7.1251  N     
11   C         6.5495   27.5889    7.7279  C     
12   C         7.8300   27.9812    8.5188  C     
13   C         8.5098   26.7845    9.0639  C     
14   C         8.5369   26.3373   10.3868  C     
15   S         9.3824   25.6086    8.1593  S     
16   N         9.1728   25.1561   10.5976  N     
17   C         9.7234   24.5859    9.4972  C     
18   C        10.4640   22.4373   10.2641  C     
19   O        10.0366   22.5811   11.3937  O     
20   C        11.4314   20.7396    8.8387  C     
21   C        13.2772   20.5556    7.2437  C     
22   C        12.6977   21.1611    8.3774  C     
23   C        10.7657   19.6934    8.1647  C     
24   C        11.3296   19.1075    7.0134  C     
25   C        12.5974   19.5240    6.5698  C     
26   N        10.9043   21.2119   10.0012  N     
27   N        10.3552   23.3960    9.3488  N     
28   H         3.6693   30.1322   10.6970  H     
29   H         3.2666   32.9288    4.9133  H     
30   H         2.4220   33.1197    7.1768  H     
31   H         5.9407   28.7756    6.1620  H     
32   H         5.8532   27.0473    8.3739  H     
33   H         6.8306   26.9176    6.9120  H     
34   H         8.5187   28.5145    7.8573  H     
35   H         7.5663   28.6588    9.3324  H     
36   H         8.0835   26.8385   11.1428  H     
37   H        14.2023   20.8480    6.9260  H     
38   H        13.2113   21.8915    8.8702  H     
39   H         9.8557   19.3641    8.4882  H     
40   H        10.8350   18.3583    6.5198  H     
41   H        13.0197   19.0857    5.7408  H     
42   H        10.7633   20.5521   10.7025  H     
43   H        10.7065   23.1988    8.4649  H     
@<TRIPOS>BOND
     1    1    3 2
     2    1    8 1
     3    1   10 1
     4    2    8 2
     5    2    9 1
     6    3    6 1
     7    3    7 1
     8    4    5 2
     9    4    7 1
    10    5    6 1
    11    6    9 2
    12   10   11 1
    13   11   12 1
    14   12   13 1
    15   13   14 2
    16   13   15 1
    17   14   16 1
    18   15   17 1
    19   16   17 2
    20   17   27 1
    21   18   19 2
    22   18   26 am
    23   18   27 am
    24   20   22 2
    25   20   23 1
    26   20   26 1
    27   21   22 1
    28   21   25 2
    29   23   24 2
    30   24   25 1
    31    2   28 1
    32    4   29 1
    33    5   30 1
    34   10   31 1
    35   11   32 1
    36   11   33 1
    37   12   34 1
    38   12   35 1
    39   14   36 1
    40   21   37 1
    41   22   38 1
    42   23   39 1
    43   24   40 1
    44   25   41 1
    45   26   42 1
    46   27   43 1
@<TRIPOS>PROPERTY_DATA
  Total_Score	| 6.2342
  Crash		| -1.0792
  Polar		| 1.4302
  FragIndex	| 1
  FragRMSD	| 1.100

