@<TRIPOS>MOLECULE
BindingDB_26330
 43 46 0 0 0
SMALL
NO_CHARGES


@<TRIPOS>ATOM
1    C         5.1448   29.8309    7.7670  C     
2    C         3.8417   30.3288    9.7071  C     
3    C         4.4350   30.8265    7.0614  C     
4    C         3.3211   32.4067    5.6769  C     
5    C         2.8049   32.4093    6.9103  C     
6    C         3.4201   31.5249    7.7241  C     
7    S         4.6108   31.3177    5.4025  S     
8    N         4.8230   29.6189    9.0809  N     
9    N         3.1419   31.2771    9.0310  N     
10   N         6.0833   29.0883    7.1270  N     
11   C         6.6610   27.8699    7.5846  C     
12   C         7.9275   28.0989    8.4514  C     
13   C         8.7677   26.8912    8.5128  C     
14   C         9.6126   26.4087    7.5081  C     
15   S         8.8098   25.7121    9.7593  S     
16   N        10.1731   25.1957    7.7401  N     
17   C         9.8651   24.6315    8.9245  C     
18   C        10.1244   22.7447   10.3893  C     
19   O         9.5877   23.2749   11.3533  O     
20   C        11.1040   20.6242    9.7161  C     
21   C        11.1421   19.3576    7.6190  C     
22   C        10.5279   20.3020    8.4706  C     
23   C        12.3029   19.9927   10.1003  C     
24   C        12.9368   19.0613    9.2466  C     
25   C        12.3557   18.7467    8.0032  C     
26   N        10.5345   21.5013   10.5977  N     
27   N        10.3209   23.4011    9.2548  N     
28   Cl       14.4089   18.3662    9.7307  Cl    
29   F        12.9133   17.8814    7.1941  F     
30   H         3.6224   30.1393   10.6843  H     
31   H         2.9754   32.9991    4.9632  H     
32   H         2.0502   32.9884    7.1997  H     
33   H         6.3602   29.3940    6.2482  H     
34   H         5.9173   27.2776    8.1375  H     
35   H         6.9190   27.2928    6.6836  H     
36   H         8.5205   28.9130    8.0350  H     
37   H         7.6270   28.3925    9.4657  H     
38   H         9.7620   26.9078    6.6289  H     
39   H        10.7097   19.1234    6.7217  H     
40   H         9.6461   20.7359    8.1782  H     
41   H        12.7305   20.2370   10.9932  H     
42   H        10.4922   21.1892   11.5154  H     
43   H        10.8491   22.9454    8.5802  H     
@<TRIPOS>BOND
     1    1    3 2
     2    1    8 1
     3    1   10 1
     4    2    8 2
     5    2    9 1
     6    3    6 1
     7    3    7 1
     8    4    5 2
     9    4    7 1
    10    5    6 1
    11    6    9 2
    12   10   11 1
    13   11   12 1
    14   12   13 1
    15   13   14 2
    16   13   15 1
    17   14   16 1
    18   15   17 1
    19   16   17 2
    20   17   27 1
    21   18   19 2
    22   18   26 am
    23   18   27 am
    24   20   22 2
    25   20   23 1
    26   20   26 1
    27   21   22 1
    28   21   25 2
    29   23   24 2
    30   24   25 1
    31   24   28 1
    32   25   29 1
    33    2   30 1
    34    4   31 1
    35    5   32 1
    36   10   33 1
    37   11   34 1
    38   11   35 1
    39   12   36 1
    40   12   37 1
    41   14   38 1
    42   21   39 1
    43   22   40 1
    44   23   41 1
    45   26   42 1
    46   27   43 1
@<TRIPOS>PROPERTY_DATA
  Total_Score	| 6.7130
  Crash		| -1.4430
  Polar		| 1.7220
  FragIndex	| 1
  FragRMSD	| 1.233

