@<TRIPOS>MOLECULE
BindingDB_26328
 43 46 0 0 0
SMALL
NO_CHARGES


@<TRIPOS>ATOM
1    C         5.0412   29.4925    7.8201  C     
2    C         3.8733   30.2548    9.7608  C     
3    C         4.4788   30.5606    7.0903  C     
4    C         3.6295   32.2749    5.6766  C     
5    C         3.1553   32.4041    6.9157  C     
6    C         3.6201   31.4425    7.7494  C     
7    S         4.6930   30.9609    5.4162  S     
8    N         4.7119   29.3826    9.1399  N     
9    N         3.3287   31.2864    9.0650  N     
10   N         5.8585   28.6017    7.2090  N     
11   C         6.5004   27.4880    7.8338  C     
12   C         7.7159   27.9401    8.6843  C     
13   C         8.3794   26.8193    9.3803  C     
14   C         8.7391   26.7311   10.7319  C     
15   S         8.9269   25.3559    8.6721  S     
16   N         9.3753   25.5874   11.0983  N     
17   C         9.5851   24.6840   10.1163  C     
18   C        10.4413   22.5268    9.4268  C     
19   O        10.1466   22.6579    8.2439  O     
20   C        11.3610   20.2960    9.0941  C     
21   C        10.9959   18.7892    7.1707  C     
22   C        10.6224   19.9150    7.9468  C     
23   C        12.4539   19.4794    9.4813  C     
24   C        12.8082   18.3377    8.7275  C     
25   C        12.0918   18.0069    7.5662  C     
26   N        11.0397   21.4136    9.8286  N     
27   N        10.2109   23.4884   10.3162  N     
28   Cl       13.4188   19.8528   10.8242  Cl    
29   H         3.6459   30.1254   10.7457  H     
30   H         3.3887   32.8999    4.9454  H     
31   H         2.5287   33.1216    7.1960  H     
32   H         6.0089   28.7164    6.2561  H     
33   H         5.7866   26.9270    8.4432  H     
34   H         6.8491   26.8240    7.0408  H     
35   H         8.4491   28.4185    8.0322  H     
36   H         7.3896   28.6781    9.4187  H     
37   H         8.5552   27.4887   11.3935  H     
38   H        10.4698   18.5412    6.3314  H     
39   H         9.8014   20.4620    7.6611  H     
40   H        13.5937   17.7506    9.0125  H     
41   H        12.3667   17.1916    7.0128  H     
42   H        11.3737   21.4099   10.7401  H     
43   H        10.5299   23.3207   11.2187  H     
@<TRIPOS>BOND
     1    1    3 2
     2    1    8 1
     3    1   10 1
     4    2    8 2
     5    2    9 1
     6    3    6 1
     7    3    7 1
     8    4    5 2
     9    4    7 1
    10    5    6 1
    11    6    9 2
    12   10   11 1
    13   11   12 1
    14   12   13 1
    15   13   14 2
    16   13   15 1
    17   14   16 1
    18   15   17 1
    19   16   17 2
    20   17   27 1
    21   18   19 2
    22   18   26 am
    23   18   27 am
    24   20   22 2
    25   20   23 1
    26   20   26 1
    27   21   22 1
    28   21   25 2
    29   23   24 2
    30   23   28 1
    31   24   25 1
    32    2   29 1
    33    4   30 1
    34    5   31 1
    35   10   32 1
    36   11   33 1
    37   11   34 1
    38   12   35 1
    39   12   36 1
    40   14   37 1
    41   21   38 1
    42   22   39 1
    43   24   40 1
    44   25   41 1
    45   26   42 1
    46   27   43 1
@<TRIPOS>PROPERTY_DATA
  Total_Score	| 10.9542
  Crash		| -1.7441
  Polar		| 5.4312
  FragIndex	| 1
  FragRMSD	| 0.316

