@<TRIPOS>MOLECULE
BindingDB_26326
 43 46 0 0 0
SMALL
NO_CHARGES


@<TRIPOS>ATOM
1    C         4.9466   29.5665    7.9809  C     
2    C         3.6291   30.3263    9.8203  C     
3    C         4.4094   30.6119    7.1858  C     
4    C         3.5473   32.3048    5.7169  C     
5    C         3.0365   32.4342    6.9388  C     
6    C         3.4942   31.4848    7.7889  C     
7    S         4.6520   31.0170    5.5143  S     
8    N         4.5138   29.4665    9.2648  N     
9    N         3.1323   31.3488    9.0886  N     
10   N         5.8629   28.6120    7.7105  N     
11   C         7.2385   28.6627    7.3543  C     
12   C         8.1077   28.3324    8.6039  C     
13   C         8.7849   27.0289    8.4873  C     
14   C         9.3511   26.4646    7.3421  C     
15   S         8.9554   25.8480    9.7234  S     
16   N         9.8347   25.2069    7.4936  N     
17   C         9.7266   24.6734    8.7276  C     
18   C        10.1321   22.7554   10.1376  C     
19   O         9.6119   23.2540   11.1243  O     
20   C        11.2336   20.6103    9.5411  C     
21   C        13.2227   19.1689    9.3410  C     
22   C        12.4543   20.1092   10.0541  C     
23   C        10.8348   20.1711    8.2538  C     
24   C        11.5863   19.2133    7.5473  C     
25   C        12.7769   18.7061    8.0917  C     
26   N        10.5843   21.5237   10.3354  N     
27   N        10.1635   23.4209    8.9910  N     
28   Cl       14.6894   18.6116    9.9708  Cl    
29   H         3.3485   30.2060   10.7894  H     
30   H         3.3023   32.9083    4.9699  H     
31   H         2.3828   33.1370    7.1930  H     
32   H         5.5327   27.7097    7.8431  H     
33   H         7.3768   27.9092    6.5739  H     
34   H         7.5461   29.6215    6.9453  H     
35   H         8.8590   29.1137    8.7452  H     
36   H         7.4905   28.3118    9.5071  H     
37   H         9.3779   26.9476    6.4426  H     
38   H        12.7996   20.4336   10.9591  H     
39   H        10.0224   20.5630    7.7847  H     
40   H        11.2798   18.9045    6.6214  H     
41   H        13.3253   18.0222    7.5639  H     
42   H        10.4073   21.1973   11.2332  H     
43   H        10.5247   22.9573    8.2295  H     
@<TRIPOS>BOND
     1    1    3 2
     2    1    8 1
     3    1   10 1
     4    2    8 2
     5    2    9 1
     6    3    6 1
     7    3    7 1
     8    4    5 2
     9    4    7 1
    10    5    6 1
    11    6    9 2
    12   10   11 1
    13   11   12 1
    14   12   13 1
    15   13   14 2
    16   13   15 1
    17   14   16 1
    18   15   17 1
    19   16   17 2
    20   17   27 1
    21   18   19 2
    22   18   26 am
    23   18   27 am
    24   20   22 2
    25   20   23 1
    26   20   26 1
    27   21   22 1
    28   21   25 2
    29   21   28 1
    30   23   24 2
    31   24   25 1
    32    2   29 1
    33    4   30 1
    34    5   31 1
    35   10   32 1
    36   11   33 1
    37   11   34 1
    38   12   35 1
    39   12   36 1
    40   14   37 1
    41   22   38 1
    42   23   39 1
    43   24   40 1
    44   25   41 1
    45   26   42 1
    46   27   43 1
@<TRIPOS>PROPERTY_DATA
  Total_Score	| 6.7521
  Crash		| -1.3350
  Polar		| 2.1553
  FragIndex	| 1
  FragRMSD	| 1.279

