@<TRIPOS>MOLECULE
BindingDB_26327
 43 46 0 0 0
SMALL
NO_CHARGES


@<TRIPOS>ATOM
1    C         5.0386   29.6892    7.7433  C     
2    C         3.8328   30.2561    9.7295  C     
3    C         4.3733   30.7335    7.0672  C     
4    C         3.3378   32.4218    5.7429  C     
5    C         2.8907   32.4631    6.9996  C     
6    C         3.4551   31.5117    7.7768  C     
7    S         4.5198   31.2309    5.4088  S     
8    N         4.7276   29.4842    9.0566  N     
9    N         3.1995   31.2711    9.0862  N     
10   N         5.9449   28.9117    7.1001  N     
11   C         6.6161   27.7752    7.6572  C     
12   C         7.9597   28.1210    8.3612  C     
13   C         8.5741   26.9417    9.0164  C     
14   C         8.6205   26.6770   10.3894  C     
15   S         9.2967   25.5805    8.2551  S     
16   N         9.1705   25.4859   10.7329  N     
17   C         9.6223   24.7220    9.7128  C     
18   C        10.2279   22.6811   10.8060  C     
19   O         9.8129   23.0456   11.8957  O     
20   C        11.1528   20.7203    9.7166  C     
21   C        12.8593   19.2148    8.8047  C     
22   C        12.3784   20.0289    9.8507  C     
23   C        10.4115   20.5555    8.5270  C     
24   C        10.8970   19.7601    7.4721  C     
25   C        12.1268   19.0962    7.6108  C     
26   N        10.5931   21.4051   10.7508  N     
27   N        10.1668   23.4834    9.7455  N     
28   Cl       12.7044   18.1134    6.3553  Cl    
29   H         3.6379   30.0627   10.7098  H     
30   H         2.9941   33.0287    5.0356  H     
31   H         2.1849   33.0839    7.3151  H     
32   H         6.1105   29.1075    6.1620  H     
33   H         5.9380   27.2704    8.3444  H     
34   H         6.8302   27.0914    6.8341  H     
35   H         8.6704   28.5251    7.6354  H     
36   H         7.7883   28.8913    9.1191  H     
37   H         8.2485   27.3238   11.0883  H     
38   H        13.7418   18.7097    8.9282  H     
39   H        12.8923   20.0641   10.7337  H     
40   H         9.5073   21.0106    8.4219  H     
41   H        10.3454   19.6611    6.6182  H     
42   H        10.4116   20.8789   11.5493  H     
43   H        10.4661   23.1124    8.9009  H     
@<TRIPOS>BOND
     1    1    3 2
     2    1    8 1
     3    1   10 1
     4    2    8 2
     5    2    9 1
     6    3    6 1
     7    3    7 1
     8    4    5 2
     9    4    7 1
    10    5    6 1
    11    6    9 2
    12   10   11 1
    13   11   12 1
    14   12   13 1
    15   13   14 2
    16   13   15 1
    17   14   16 1
    18   15   17 1
    19   16   17 2
    20   17   27 1
    21   18   19 2
    22   18   26 am
    23   18   27 am
    24   20   22 2
    25   20   23 1
    26   20   26 1
    27   21   22 1
    28   21   25 2
    29   23   24 2
    30   24   25 1
    31   25   28 1
    32    2   29 1
    33    4   30 1
    34    5   31 1
    35   10   32 1
    36   11   33 1
    37   11   34 1
    38   12   35 1
    39   12   36 1
    40   14   37 1
    41   21   38 1
    42   22   39 1
    43   23   40 1
    44   24   41 1
    45   26   42 1
    46   27   43 1
@<TRIPOS>PROPERTY_DATA
  Total_Score	| 6.3331
  Crash		| -1.5639
  Polar		| 1.5854
  FragIndex	| 1
  FragRMSD	| 0.903

