@<TRIPOS>MOLECULE
BindingDB_26322
 46 49 0 0 0
SMALL
NO_CHARGES


@<TRIPOS>ATOM
1    C         5.0489   29.4362    8.0048  C     
2    C         3.6204   30.2968    9.7042  C     
3    C         4.7366   30.5579    7.1940  C     
4    C         4.2529   32.3638    5.6849  C     
5    C         3.6377   32.5381    6.8569  C     
6    C         3.8694   31.5217    7.7185  C     
7    S         5.1592   30.9234    5.5465  S     
8    N         4.4425   29.3386    9.2135  N     
9    N         3.3431   31.3976    8.9607  N     
10   N         5.9112   28.4226    7.7528  N     
11   C         7.2789   28.4998    7.3526  C     
12   C         8.1935   28.4622    8.6077  C     
13   C         8.5142   27.1084    9.0828  C     
14   C         8.4663   26.6140   10.3931  C     
15   S         9.1640   25.8429    8.1266  S     
16   N         8.9417   25.3482   10.5573  N     
17   C         9.3860   24.7495    9.4284  C     
18   C        10.2188   22.6228   10.1605  C     
19   O         9.8537   22.7770   11.3121  O     
20   C        11.4284   21.0297    8.7634  C     
21   C        12.0152   19.1404    7.2876  C     
22   C        11.3394   19.6608    8.4182  C     
23   C        12.2627   21.8637    7.9796  C     
24   C        12.9341   21.3611    6.8525  C     
25   C        12.8165   20.0058    6.5090  C     
26   N        10.8023   21.4647    9.9022  N     
27   N         9.9569   23.5375    9.2421  N     
28   C        11.8843   17.7186    6.9273  C     
29   H         3.2310   30.2022   10.6423  H     
30   H         4.1914   33.0178    4.9456  H     
31   H         3.0672   33.3217    7.0649  H     
32   H         5.6072   27.5287    8.0242  H     
33   H         7.4825   27.6759    6.6738  H     
34   H         7.5096   29.4268    6.8251  H     
35   H         9.1323   28.9710    8.3835  H     
36   H         7.7120   29.0322    9.4148  H     
37   H         8.1292   27.1629   11.1837  H     
38   H        10.7552   19.0381    8.9851  H     
39   H        12.4185   22.8349    8.2427  H     
40   H        13.5222   21.9836    6.2948  H     
41   H        13.3160   19.6614    5.6888  H     
42   H        10.7794   20.8213   10.6299  H     
43   H        10.2240   23.3425    8.3263  H     
44   H        12.1993   17.1028    7.7710  H     
45   H        12.4942   17.4492    6.0647  H     
46   H        10.8422   17.4990    6.6861  H     
@<TRIPOS>BOND
     1    1    3 2
     2    1    8 1
     3    1   10 1
     4    2    8 2
     5    2    9 1
     6    3    6 1
     7    3    7 1
     8    4    5 2
     9    4    7 1
    10    5    6 1
    11    6    9 2
    12   10   11 1
    13   11   12 1
    14   12   13 1
    15   13   14 2
    16   13   15 1
    17   14   16 1
    18   15   17 1
    19   16   17 2
    20   17   27 1
    21   18   19 2
    22   18   26 am
    23   18   27 am
    24   20   22 2
    25   20   23 1
    26   20   26 1
    27   21   22 1
    28   21   25 2
    29   21   28 1
    30   23   24 2
    31   24   25 1
    32    2   29 1
    33    4   30 1
    34    5   31 1
    35   10   32 1
    36   11   33 1
    37   11   34 1
    38   12   35 1
    39   12   36 1
    40   14   37 1
    41   22   38 1
    42   23   39 1
    43   24   40 1
    44   25   41 1
    45   26   42 1
    46   27   43 1
    47   28   44 1
    48   28   45 1
    49   28   46 1
@<TRIPOS>PROPERTY_DATA
  Total_Score	| 6.8140
  Crash		| -1.5044
  Polar		| 1.5669
  FragIndex	| 1
  FragRMSD	| 1.349

