@<TRIPOS>MOLECULE
BindingDB_26334
 59 63 0 0 0
SMALL
NO_CHARGES


@<TRIPOS>ATOM
1    C         5.1346   29.7213    7.6449  C     
2    C         3.9626   30.3536    9.6313  C     
3    C         4.4234   30.7149    6.9394  C     
4    C         3.2954   32.2994    5.5597  C     
5    C         2.8726   32.3826    6.8188  C     
6    C         3.4974   31.4982    7.6330  C     
7    S         4.5009   31.1233    5.2532  S     
8    N         4.8669   29.5792    8.9752  N     
9    N         3.2801   31.3176    8.9613  N     
10   N         6.0125   28.9091    7.0044  N     
11   C         6.6580   27.7573    7.5630  C     
12   C         7.8750   28.0873    8.4770  C     
13   C         8.4869   26.8657    9.0534  C     
14   C         8.4881   26.4626   10.3942  C     
15   S         9.2951   25.6034    8.2046  S     
16   N         9.0699   25.2614   10.6533  N     
17   C         9.5883   24.6127    9.5808  C     
18   C        10.3408   22.5282   10.5203  C     
19   O        10.0432   22.8330   11.6669  O     
20   N        10.8210   21.2958   10.3902  N     
21   N        10.1841   23.3970    9.5192  N     
22   C        11.0686   20.5559    9.2684  C     
23   C        10.5257   19.8470    6.9860  C     
24   C        10.2826   20.6698    8.0984  C     
25   C        12.0785   19.5615    9.3097  C     
26   C        12.3494   18.7388    8.1863  C     
27   C        11.5387   18.8754    7.0384  C     
28   C        13.4859   17.7739    8.1550  C     
29   C        14.5371   18.1098    7.0494  C     
30   C        15.8524   19.5558    8.6827  C     
31   C        16.6937   19.4270    6.7261  C     
32   C        16.7990   20.4525    7.8641  C     
33   N        15.8503   18.5580    7.5923  N     
34   H         3.7940   30.2055   10.6258  H     
35   H         2.9233   32.8668    4.8338  H     
36   H         2.1733   33.0191    7.1280  H     
37   H         6.1455   29.0630    6.0552  H     
38   H         5.9248   27.1627    8.1136  H     
39   H         7.0121   27.1509    6.7279  H     
40   H         8.6301   28.6159    7.8923  H     
41   H         7.5524   28.7504    9.2841  H     
42   H         8.0595   27.0167   11.1360  H     
43   H        11.0351   20.8498   11.2294  H     
44   H        10.5061   23.1166    8.6454  H     
45   H         9.9645   19.9527    6.1370  H     
46   H         9.5078   21.3352    8.0599  H     
47   H        12.6402   19.4630   10.1598  H     
48   H        11.6936   18.2793    6.2198  H     
49   H        13.9888   17.7375    9.1252  H     
50   H        13.0756   16.7710    7.9690  H     
51   H        14.7312   17.2230    6.4482  H     
52   H        14.1495   18.8762    6.3676  H     
53   H        16.3131   19.1728    9.6000  H     
54   H        14.8888   20.0396    8.8679  H     
55   H        16.1896   19.8377    5.8444  H     
56   H        17.6510   18.9641    6.4686  H     
57   H        16.3699   21.4317    7.6204  H     
58   H        17.8080   20.5225    8.2857  H     
59   H        16.3993   17.7468    7.8903  H     
@<TRIPOS>BOND
     1    1    3 2
     2    1    8 1
     3    1   10 1
     4    2    8 2
     5    2    9 1
     6    3    6 1
     7    3    7 1
     8    4    5 2
     9    4    7 1
    10    5    6 1
    11    6    9 2
    12   10   11 1
    13   11   12 1
    14   12   13 1
    15   13   14 2
    16   13   15 1
    17   14   16 1
    18   15   17 1
    19   16   17 2
    20   17   21 1
    21   18   19 2
    22   18   20 am
    23   18   21 am
    24   20   22 1
    25   22   24 2
    26   22   25 1
    27   23   24 1
    28   23   27 2
    29   25   26 2
    30   26   27 1
    31   26   28 1
    32   28   29 1
    33   29   33 1
    34   30   32 1
    35   30   33 1
    36   31   32 1
    37   31   33 1
    38    2   34 1
    39    4   35 1
    40    5   36 1
    41   10   37 1
    42   11   38 1
    43   11   39 1
    44   12   40 1
    45   12   41 1
    46   14   42 1
    47   20   43 1
    48   21   44 1
    49   23   45 1
    50   24   46 1
    51   25   47 1
    52   27   48 1
    53   28   49 1
    54   28   50 1
    55   29   51 1
    56   29   52 1
    57   30   53 1
    58   30   54 1
    59   31   55 1
    60   31   56 1
    61   32   57 1
    62   32   58 1
    63   33   59 1
@<TRIPOS>PROPERTY_DATA
  Total_Score	| 10.4669
  Crash		| -2.3042
  Polar		| 1.5562
  FragIndex	| 1
  FragRMSD	| 0.949

