@<TRIPOS>MOLECULE
BindingDB_26332
 49 52 0 0 0
SMALL
NO_CHARGES


@<TRIPOS>ATOM
1    C         4.9768   29.5435    7.7877  C     
2    C         3.8006   30.3511    9.7031  C     
3    C         4.4541   30.6135    7.0340  C     
4    C         3.7198   32.3718    5.6064  C     
5    C         3.2125   32.5075    6.8315  C     
6    C         3.6147   31.5240    7.6727  C     
7    S         4.7324   31.0137    5.3711  S     
8    N         4.6288   29.4541    9.1034  N     
9    N         3.2953   31.3916    8.9843  N     
10   N         5.8172   28.6493    7.2161  N     
11   C         6.4071   27.5160    7.8535  C     
12   C         7.5690   27.9636    8.7755  C     
13   C         8.2866   26.8540    9.4295  C     
14   C         8.7168   26.7676   10.7587  C     
15   S         8.8775   25.4310    8.6690  S     
16   N         9.4204   25.6513   11.0821  N     
17   C         9.6292   24.7718   10.0753  C     
18   C        10.6499   22.7208    9.3220  C     
19   O        10.2518   22.8020    8.1673  O     
20   N        11.4261   21.7173    9.6981  N     
21   N        10.3477   23.6363   10.2338  N     
22   C        11.9568   20.6609    8.8766  C     
23   C        13.3956   18.4987    8.9884  C     
24   C        12.8447   19.7291    9.7585  C     
25   C        10.8382   19.8330    8.1721  C     
26   C        11.4104   18.6299    7.3761  C     
27   C        12.2611   17.7099    8.2873  C     
28   H         3.5645   30.2464   10.6884  H     
29   H         3.5221   33.0088    4.8701  H     
30   H         2.6097   33.2514    7.0956  H     
31   H         6.1348   28.8505    6.3176  H     
32   H         5.6658   26.9512    8.4412  H     
33   H         6.7765   26.8546    7.0648  H     
34   H         8.2969   28.5229    8.1821  H     
35   H         7.1696   28.6329    9.5399  H     
36   H         8.5258   27.4974   11.4512  H     
37   H        11.7059   21.7242   10.6257  H     
38   H        10.7233   23.4934   11.1189  H     
39   H        12.5957   21.1150    8.1125  H     
40   H        14.1195   18.8299    8.2392  H     
41   H        13.9121   17.8320    9.6850  H     
42   H        13.6911   20.2938   10.1559  H     
43   H        12.2649   19.3688   10.6103  H     
44   H        10.1393   19.4613    8.9243  H     
45   H        10.2765   20.4617    7.4784  H     
46   H        10.5822   18.0566    6.9499  H     
47   H        12.0248   18.9946    6.5472  H     
48   H        12.6970   16.9069    7.6851  H     
49   H        11.6125   17.2545    9.0424  H     
@<TRIPOS>BOND
     1    1    3 2
     2    1    8 1
     3    1   10 1
     4    2    8 2
     5    2    9 1
     6    3    6 1
     7    3    7 1
     8    4    5 2
     9    4    7 1
    10    5    6 1
    11    6    9 2
    12   10   11 1
    13   11   12 1
    14   12   13 1
    15   13   14 2
    16   13   15 1
    17   14   16 1
    18   15   17 1
    19   16   17 2
    20   17   21 1
    21   18   19 2
    22   18   20 am
    23   18   21 am
    24   20   22 1
    25   22   24 1
    26   22   25 1
    27   23   24 1
    28   23   27 1
    29   25   26 1
    30   26   27 1
    31    2   28 1
    32    4   29 1
    33    5   30 1
    34   10   31 1
    35   11   32 1
    36   11   33 1
    37   12   34 1
    38   12   35 1
    39   14   36 1
    40   20   37 1
    41   21   38 1
    42   22   39 1
    43   23   40 1
    44   23   41 1
    45   24   42 1
    46   24   43 1
    47   25   44 1
    48   25   45 1
    49   26   46 1
    50   26   47 1
    51   27   48 1
    52   27   49 1
@<TRIPOS>PROPERTY_DATA
  Total_Score	| 12.5324
  Crash		| -1.0724
  Polar		| 5.6102
  FragIndex	| 1
  FragRMSD	| 0.302

