@<TRIPOS>MOLECULE
BindingDB_26315
 46 49 0 0 0
SMALL
NO_CHARGES


@<TRIPOS>ATOM
1    C         5.0839   29.6661    7.7270  C     
2    C         3.8759   30.2016    9.7207  C     
3    C         4.4119   30.7155    7.0683  C     
4    C         3.3643   32.4130    5.7635  C     
5    C         2.9009   32.4197    7.0125  C     
6    C         3.4779   31.4673    7.7844  C     
7    S         4.5489   31.2265    5.4154  S     
8    N         4.7856   29.4518    9.0428  N     
9    N         3.2221   31.2120    9.0924  N     
10   N         5.9633   28.8816    7.0550  N     
11   C         6.6320   27.7321    7.5779  C     
12   C         7.8312   28.0808    8.4992  C     
13   C         9.6884   24.6648    9.4643  C     
14   N        10.3165   23.4701    9.3314  N     
15   C        10.4599   22.5365   10.2696  C     
16   O        10.0445   22.7044   11.4037  O     
17   N        10.9218   21.3173   10.0252  N     
18   C        11.4835   20.8343    8.8835  C     
19   C        12.7691   21.2366    8.4683  C     
20   C        10.8444   19.7733    8.2062  C     
21   C        11.4533   19.1692    7.0946  C     
22   C        12.7319   19.5843    6.6820  C     
23   C        13.4147   20.6233    7.3646  C     
24   C        14.7894   21.0601    6.9805  C     
25   F        15.2759   20.4740    5.8338  F     
26   F        14.8166   22.4179    6.7655  F     
27   F        15.6802   20.7687    7.9877  F     
28   C         8.5369   26.4336   10.3624  C     
29   C         8.4957   26.8738    9.0342  C     
30   N         9.1612   25.2472   10.5687  N     
31   S         9.3350   25.6817    8.1246  S     
32   H         3.6790   29.9981   10.7007  H     
33   H         3.0398   33.0443    5.0696  H     
34   H         2.1946   33.0413    7.3366  H     
35   H         6.0882   29.0663    6.1100  H     
36   H         5.9179   27.1012    8.1092  H     
37   H         7.0042   27.1626    6.7235  H     
38   H         8.5727   28.6545    7.9396  H     
39   H         7.4791   28.6959    9.3317  H     
40   H        10.6460   23.2482    8.4478  H     
41   H        10.8133   20.6740   10.7440  H     
42   H        13.2490   21.9750    8.9912  H     
43   H         9.9283   19.4431    8.5100  H     
44   H        10.9779   18.4094    6.5995  H     
45   H        13.1627   19.1130    5.8820  H     
46   H         8.0981   26.9476   11.1265  H     
@<TRIPOS>BOND
     1    1    3 2
     2    1    8 1
     3    1   10 1
     4    2    8 2
     5    2    9 1
     6    3    6 1
     7    3    7 1
     8    4    5 2
     9    4    7 1
    10    5    6 1
    11    6    9 2
    12   10   11 1
    13   11   12 1
    14   12   29 1
    15   13   14 1
    16   13   30 2
    17   13   31 1
    18   14   15 am
    19   15   16 2
    20   15   17 am
    21   17   18 1
    22   18   19 2
    23   18   20 1
    24   19   23 1
    25   20   21 2
    26   21   22 1
    27   22   23 2
    28   23   24 1
    29   24   25 1
    30   24   26 1
    31   24   27 1
    32   28   29 2
    33   28   30 1
    34   29   31 1
    35    2   32 1
    36    4   33 1
    37    5   34 1
    38   10   35 1
    39   11   36 1
    40   11   37 1
    41   12   38 1
    42   12   39 1
    43   14   40 1
    44   17   41 1
    45   19   42 1
    46   20   43 1
    47   21   44 1
    48   22   45 1
    49   28   46 1
@<TRIPOS>PROPERTY_DATA
  Total_Score	| 6.7823
  Crash		| -0.8771
  Polar		| 1.3686
  FragIndex	| 1
  FragRMSD	| 1.099

