@<TRIPOS>MOLECULE
BindingDB_26331
 47 51 0 0 0
SMALL
NO_CHARGES


@<TRIPOS>ATOM
1    C         5.0753   29.7811    7.7191  C     
2    C         3.8439   30.2805    9.7119  C     
3    C         4.3736   30.8163    7.0607  C     
4    C         3.2836   32.4835    5.7541  C     
5    C         2.8119   32.4778    7.0061  C     
6    C         3.4108   31.5379    7.7779  C     
7    S         4.5203   31.3523    5.4160  S     
8    N         4.7803   29.5575    9.0332  N     
9    N         3.1605   31.2805    9.0856  N     
10   N         6.0010   29.0389    7.0606  N     
11   C         6.6335   27.8540    7.5531  C     
12   C         7.8939   28.1323    8.4148  C     
13   C         8.4708   26.8876    8.9591  C     
14   C         8.4654   26.4653   10.2919  C     
15   S         9.2390   25.6326    8.0743  S     
16   N         9.0088   25.2453   10.5162  N     
17   C         9.5024   24.6086    9.4302  C     
18   C        10.2621   22.5520   10.3780  C     
19   O         9.9042   22.8601   11.5060  O     
20   C        11.2677   20.6084    9.2651  C     
21   C        10.9696   19.5415    7.0668  C     
22   C        10.5344   20.4419    8.0674  C     
23   C        12.1472   18.7852    7.2435  C     
24   N        10.8545   21.3667   10.3200  N     
25   N        10.0857   23.3847    9.3580  N     
26   C        12.8619   18.9378    8.4416  C     
27   C        12.4240   19.8213    9.4309  C     
28   C        14.2750   18.8931   10.1628  C     
29   C        14.0283   18.3442    8.9090  C     
30   N        13.2931   19.7629   10.4554  N     
31   H         3.6572   30.0761   10.6934  H     
32   H         2.9258   33.0874    5.0530  H     
33   H         2.0711   33.0605    7.3182  H     
34   H         6.2171   29.3112    6.1549  H     
35   H         5.9022   27.2526    8.1107  H     
36   H         6.9349   27.2747    6.6746  H     
37   H         8.6454   28.6291    7.8021  H     
38   H         7.6327   28.7998    9.2385  H     
39   H         8.0503   27.0144   11.0470  H     
40   H        10.4145   19.4162    6.2204  H     
41   H         9.6483   20.9276    7.9404  H     
42   H        12.4742   18.1407    6.5188  H     
43   H        11.1017   21.0271   11.1907  H     
44   H        10.4301   23.1137    8.4909  H     
45   H        15.0900   18.7004   10.7528  H     
46   H        14.6051   17.6576    8.4186  H     
47   H        13.2310   20.2953   11.2587  H     
@<TRIPOS>BOND
     1    1    3 2
     2    1    8 1
     3    1   10 1
     4    2    8 2
     5    2    9 1
     6    3    6 1
     7    3    7 1
     8    4    5 2
     9    4    7 1
    10    5    6 1
    11    6    9 2
    12   10   11 1
    13   11   12 1
    14   12   13 1
    15   13   14 2
    16   13   15 1
    17   14   16 1
    18   15   17 1
    19   16   17 2
    20   17   25 1
    21   18   19 2
    22   18   24 am
    23   18   25 am
    24   20   22 2
    25   20   24 1
    26   20   27 1
    27   21   22 1
    28   21   23 2
    29   23   26 1
    30   26   27 2
    31   26   29 1
    32   27   30 1
    33   28   29 2
    34   28   30 1
    35    2   31 1
    36    4   32 1
    37    5   33 1
    38   10   34 1
    39   11   35 1
    40   11   36 1
    41   12   37 1
    42   12   38 1
    43   14   39 1
    44   21   40 1
    45   22   41 1
    46   23   42 1
    47   24   43 1
    48   25   44 1
    49   28   45 1
    50   29   46 1
    51   30   47 1
@<TRIPOS>PROPERTY_DATA
  Total_Score	| 9.2237
  Crash		| -1.1289
  Polar		| 3.0020
  FragIndex	| 1
  FragRMSD	| 0.856

