@<TRIPOS>MOLECULE
BindingDB_26324
 45 48 0 0 0
SMALL
NO_CHARGES


@<TRIPOS>ATOM
1    C         5.1269   29.7273    7.7157  C     
2    C         3.8952   30.2453    9.6962  C     
3    C         4.4706   30.7922    7.0594  C     
4    C         3.3870   32.4474    5.7353  C     
5    C         2.9318   32.4724    6.9872  C     
6    C         3.5307   31.5419    7.7704  C     
7    S         4.6225   31.3102    5.4085  S     
8    N         4.7998   29.4939    9.0194  N     
9    N         3.2558   31.2638    9.0674  N     
10   N         6.0015   28.9379    7.0440  N     
11   C         6.6757   27.7909    7.5700  C     
12   C         7.8542   28.1324    8.5260  C     
13   C         8.5262   26.9124    9.0320  C     
14   C         8.5791   26.4560   10.3532  C     
15   S         9.3443   25.7142    8.1083  S     
16   N         9.1937   25.2589   10.5333  N     
17   C         9.7069   24.6766    9.4262  C     
18   C        10.4511   22.5547   10.2348  C     
19   O        10.0202   22.7305   11.3604  O     
20   C        11.3173   20.7569    8.8582  C     
21   C        12.8856   20.6513    6.9837  C     
22   C        12.3933   21.3043    8.1300  C     
23   C        10.7654   19.5198    8.4494  C     
24   C        11.2342   18.8768    7.2885  C     
25   C        12.2923   19.4418    6.5576  C     
26   N        10.8609   21.3122   10.0129  N     
27   N        10.3319   23.4850    9.2920  N     
28   C        13.8769   21.1511    6.3143  C     
29   C        14.7868   21.5942    5.6731  C     
30   H         3.6846   30.0312   10.6669  H     
31   H         3.0269   33.0398    5.0252  H     
32   H         2.1856   33.0511    7.2936  H     
33   H         6.1027   29.1050    6.0904  H     
34   H         5.9588   27.1465    8.0770  H     
35   H         7.0742   27.2456    6.7167  H     
36   H         8.5943   28.7438    8.0004  H     
37   H         7.4742   28.7182    9.3703  H     
38   H         8.1582   26.9732   11.1288  H     
39   H        12.8358   22.1559    8.4806  H     
40   H        10.0127   19.0794    8.9923  H     
41   H        10.8087   17.9976    6.9788  H     
42   H        12.6210   18.9563    5.7188  H     
43   H        10.7538   20.6833   10.7547  H     
44   H        10.6592   23.2600    8.4090  H     
45   H        15.4911   21.9324    5.1741  H     
@<TRIPOS>BOND
     1    1    3 2
     2    1    8 1
     3    1   10 1
     4    2    8 2
     5    2    9 1
     6    3    6 1
     7    3    7 1
     8    4    5 2
     9    4    7 1
    10    5    6 1
    11    6    9 2
    12   10   11 1
    13   11   12 1
    14   12   13 1
    15   13   14 2
    16   13   15 1
    17   14   16 1
    18   15   17 1
    19   16   17 2
    20   17   27 1
    21   18   19 2
    22   18   26 am
    23   18   27 am
    24   20   22 2
    25   20   23 1
    26   20   26 1
    27   21   22 1
    28   21   25 2
    29   21   28 1
    30   23   24 2
    31   24   25 1
    32   28   29 3
    33    2   30 1
    34    4   31 1
    35    5   32 1
    36   10   33 1
    37   11   34 1
    38   11   35 1
    39   12   36 1
    40   12   37 1
    41   14   38 1
    42   22   39 1
    43   23   40 1
    44   24   41 1
    45   25   42 1
    46   26   43 1
    47   27   44 1
    48   29   45 1
@<TRIPOS>PROPERTY_DATA
  Total_Score	| 6.4767
  Crash		| -1.1833
  Polar		| 1.3973
  FragIndex	| 1
  FragRMSD	| 1.133

