@<TRIPOS>MOLECULE
BindingDB_13424
 53 56 0 0 0
SMALL
NO_CHARGES


@<TRIPOS>ATOM
1    C        -4.3297    4.7440   15.0673  C     
2    C        -3.8486    6.0852   14.4590  C     
3    C        -3.8019    3.5428   12.8409  C     
4    C        -4.8671    2.2587   14.6039  C     
5    C        -3.4298    1.7111   14.4820  C     
6    C        -2.7532    2.5204   13.3518  C     
7    C        -4.8324    3.7002   14.0064  C     
8    C        -6.2538    4.1010   13.4939  C     
9    C        -3.2424    4.9070   12.3019  C     
10   C        -2.7001    5.8684   13.4211  C     
11   C        -1.8543    6.0893   10.5317  C     
12   C        -2.1772    4.7266   11.1876  C     
13   C        -1.7160    7.2219   11.4874  C     
14   C        -2.1068    7.1345   12.8579  C     
15   C        -1.8047    8.2373   13.7007  C     
16   C        -1.2698    9.4358   13.1984  C     
17   C        -0.9347    9.5225   11.8332  C     
18   C        -1.1718    8.4248   10.9859  C     
19   O        -0.3616   10.6722   11.4010  O     
20   O         1.9040    9.3163   10.3063  O     
21   S         1.1757   10.8011   10.6669  S     
22   O         1.0005   11.7348    9.2610  O     
23   N         2.1442   11.6961   11.7263  N     
24   O        -0.9114   10.4414   14.0548  O     
25   C        -2.0264   11.1826   14.5831  C     
26   O        -5.3509    2.1899   15.9467  O     
27   H        -3.4915    4.3285   15.6372  H     
28   H        -5.1214    4.9573   15.7904  H     
29   H        -4.6815    6.6109   13.9889  H     
30   H        -3.5078    6.6998   15.2927  H     
31   H        -4.3186    3.0570   12.0004  H     
32   H        -5.5114    1.6124   13.9975  H     
33   H        -2.8828    1.8510   15.4201  H     
34   H        -3.4394    0.6401   14.2490  H     
35   H        -2.4275    1.8596   12.5400  H     
36   H        -1.8714    3.0295   13.7459  H     
37   H        -6.9362    4.2397   14.3307  H     
38   H        -6.6730    3.3305   12.8446  H     
39   H        -6.2226    5.0307   12.9266  H     
40   H        -4.0897    5.4088   11.8233  H     
41   H        -1.8753    5.3741   13.9424  H     
42   H        -0.9234    5.9724    9.9630  H     
43   H        -2.6460    6.3437    9.8188  H     
44   H        -1.2598    4.3072   11.6089  H     
45   H        -2.5404    4.0401   10.4182  H     
46   H        -1.9537    8.1764   14.7064  H     
47   H        -0.9213    8.4955    9.9966  H     
48   H         3.0633   11.4100   11.9006  H     
49   H         1.7614   12.4408   12.2289  H     
50   H        -2.6333   11.6214   13.7836  H     
51   H        -1.6323   11.9936   15.1959  H     
52   H        -2.6551   10.5530   15.2188  H     
53   H        -6.2670    2.5277   15.9056  H     
@<TRIPOS>BOND
     1    1    2 1
     2    1    7 1
     3    2   10 1
     4    3    6 1
     5    3    7 1
     6    3    9 1
     7    4    5 1
     8    4    7 1
     9    4   26 1
    10    5    6 1
    11    7    8 1
    12    9   10 1
    13    9   12 1
    14   10   14 1
    15   11   12 1
    16   11   13 1
    17   13   14 2
    18   13   18 1
    19   14   15 1
    20   15   16 2
    21   16   17 1
    22   16   24 1
    23   17   18 2
    24   17   19 1
    25   19   21 1
    26   20   21 2
    27   21   22 2
    28   21   23 am
    29   24   25 1
    30    1   27 1
    31    1   28 1
    32    2   29 1
    33    2   30 1
    34    3   31 1
    35    4   32 1
    36    5   33 1
    37    5   34 1
    38    6   35 1
    39    6   36 1
    40    8   37 1
    41    8   38 1
    42    8   39 1
    43    9   40 1
    44   10   41 1
    45   11   42 1
    46   11   43 1
    47   12   44 1
    48   12   45 1
    49   15   46 1
    50   18   47 1
    51   23   48 1
    52   23   49 1
    53   25   50 1
    54   25   51 1
    55   25   52 1
    56   26   53 1
@<TRIPOS>PROPERTY_DATA
  Total_Score	| 0.9305
  Crash		| -0.6494
  Polar		| 0.0002
  FragIndex	| 1
  FragRMSD	| 0.658

