@<TRIPOS>MOLECULE
BindingDB_13426
 58 61 0 0 0
SMALL
NO_CHARGES


@<TRIPOS>ATOM
1    C        -4.3565    5.2660   14.9277  C     
2    C        -3.7847    6.5201   14.2181  C     
3    C        -3.6010    3.8111   12.9216  C     
4    C        -4.8478    2.7226   14.6785  C     
5    C        -3.3972    2.2046   14.8036  C     
6    C        -2.6015    2.8859   13.6697  C     
7    C        -4.7478    4.0958   13.9469  C     
8    C        -6.1124    4.4139   13.2539  C     
9    C        -3.0065    5.1049   12.2702  C     
10   C        -2.5488    6.1709   13.3266  C     
11   C        -1.5137    6.1303   10.4858  C     
12   C        -1.8632    4.8311   11.2573  C     
13   C        -1.4243    7.3511   11.3499  C     
14   C        -1.8860    7.3650   12.6990  C     
15   C        -1.6151    8.5167   13.4876  C     
16   C        -1.1218    9.7049   12.9210  C     
17   C        -0.7181    9.7092   11.5709  C     
18   C        -0.8584    8.5307   10.8058  C     
19   O        -0.8990   10.8245   13.6827  O     
20   C        -2.0276   11.3291   14.4102  C     
21   O        -5.5342    2.8278   15.9311  O     
22   O        -5.8615    0.0483   16.0804  O     
23   O        -4.7937    1.4046   18.1624  O     
24   S        -5.9312    1.5138   16.9184  S     
25   N        -7.4370    1.7117   17.6339  N     
26   O        -0.1682   10.8466   11.0728  O     
27   N         1.2517   10.5812    8.6782  N     
28   S         1.3379   10.9871   10.3066  S     
29   O         1.8949   12.5800   10.3926  O     
30   O         2.4786    9.9592   11.0130  O     
31   H        -3.6041    4.9200   15.6435  H     
32   H        -5.2303    5.5621   15.5191  H     
33   H        -4.5604    6.9943   13.6157  H     
34   H        -3.5148    7.2235   15.0045  H     
35   H        -4.0228    3.2140   12.1031  H     
36   H        -5.3968    2.0123   14.0526  H     
37   H        -2.9784    2.4804   15.7751  H     
38   H        -3.3635    1.1165   14.7081  H     
39   H        -2.1866    2.1444   12.9844  H     
40   H        -1.7729    3.4528   14.0972  H     
41   H        -6.9019    4.5231   14.0011  H     
42   H        -6.4026    3.6092   12.5758  H     
43   H        -6.0610    5.3368   12.6762  H     
44   H        -3.8207    5.5510   11.6832  H     
45   H        -1.7888    5.7325   13.9765  H     
46   H        -0.5589    5.9693    9.9805  H     
47   H        -2.2683    6.3029    9.7141  H     
48   H        -0.9749    4.4737   11.7853  H     
49   H        -2.1641    4.0589   10.5446  H     
50   H        -1.7799    8.5174   14.4955  H     
51   H        -0.5356    8.5353    9.8309  H     
52   H        -2.8785   11.5232   13.7509  H     
53   H        -1.7228   12.2671   14.8814  H     
54   H        -2.3295   10.6366   15.1997  H     
55   H        -7.7794    1.0268   18.2280  H     
56   H        -7.9574    2.5135   17.4582  H     
57   H         2.0619   10.6085    8.1418  H     
58   H         0.4278   10.2315    8.2976  H     
@<TRIPOS>BOND
     1    1    2 1
     2    1    7 1
     3    2   10 1
     4    3    6 1
     5    3    7 1
     6    3    9 1
     7    4    5 1
     8    4    7 1
     9    4   21 1
    10    5    6 1
    11    7    8 1
    12    9   10 1
    13    9   12 1
    14   10   14 1
    15   11   12 1
    16   11   13 1
    17   13   14 2
    18   13   18 1
    19   14   15 1
    20   15   16 2
    21   16   17 1
    22   16   19 1
    23   17   18 2
    24   17   26 1
    25   19   20 1
    26   21   24 1
    27   22   24 2
    28   23   24 2
    29   24   25 am
    30   26   28 1
    31   27   28 am
    32   28   29 2
    33   28   30 2
    34    1   31 1
    35    1   32 1
    36    2   33 1
    37    2   34 1
    38    3   35 1
    39    4   36 1
    40    5   37 1
    41    5   38 1
    42    6   39 1
    43    6   40 1
    44    8   41 1
    45    8   42 1
    46    8   43 1
    47    9   44 1
    48   10   45 1
    49   11   46 1
    50   11   47 1
    51   12   48 1
    52   12   49 1
    53   15   50 1
    54   18   51 1
    55   20   52 1
    56   20   53 1
    57   20   54 1
    58   25   55 1
    59   25   56 1
    60   27   57 1
    61   27   58 1
@<TRIPOS>PROPERTY_DATA
  Total_Score	| 4.3030
  Crash		| -1.1117
  Polar		| 2.8150
  FragIndex	| 1
  FragRMSD	| 1.262

