@<TRIPOS>MOLECULE
BindingDB_50171450
 51 54 0 0 0
SMALL
NO_CHARGES


@<TRIPOS>ATOM
1    S         0.8692   10.8717   10.3038  S     
2    C        -4.6234    3.6053   14.1913  C     
3    C        -1.7804    6.9533   13.2207  C     
4    C        -3.2656    3.3561   13.4646  C     
5    C        -2.4288    5.7312   13.8181  C     
6    C        -2.7500    4.6358   12.7354  C     
7    C        -0.5468    9.3036   12.1449  C     
8    C        -1.1910    6.9416   11.9193  C     
9    C        -1.6107    8.1264   13.9995  C     
10   O        -0.0227   10.4755   11.6926  O     
11   C        -4.9004    2.2450   14.6310  C     
12   C        -1.0139    9.2854   13.4759  C     
13   C        -4.3498    4.6861   15.2908  C     
14   C        -0.6353    8.1242   11.3783  C     
15   C        -3.7019    5.9876   14.7069  C     
16   C        -3.4800    2.0095   12.7460  C     
17   C        -1.5053    4.3897   11.8430  C     
18   O         1.7607   12.2862   10.5432  O     
19   O         2.0061    9.6417   10.0289  O     
20   C        -1.1260    5.6981   11.0968  C     
21   N        -0.0889   10.9922    8.9380  N     
22   C        -4.3154    1.2262   13.7894  C     
23   O        -5.7394    1.9741   15.4787  O     
24   C        -5.8454    4.0413   13.3000  C     
25   O        -0.8296   10.3767   14.2886  O     
26   C        -2.0395   11.1005   14.5789  C     
27   H        -2.4904    3.1328   14.2155  H     
28   H        -1.6708    5.3259   14.5001  H     
29   H        -3.5380    5.0078   12.0699  H     
30   H        -1.9188    8.1431   14.9717  H     
31   H        -5.2833    4.9427   15.8006  H     
32   H        -3.6764    4.2753   16.0469  H     
33   H        -0.2377    8.1086   10.4386  H     
34   H        -3.4467    6.6142   15.5655  H     
35   H        -4.4444    6.5414   14.1268  H     
36   H        -4.0380    2.1491   11.8181  H     
37   H        -2.5368    1.5088   12.5274  H     
38   H        -0.6630    4.0563   12.4595  H     
39   H        -1.7173    3.6096   11.1089  H     
40   H        -1.7924    5.8244   10.2369  H     
41   H        -0.1045    5.5624   10.7127  H     
42   H         0.1727   11.6150    8.2348  H     
43   H        -0.9787   10.5862    8.9178  H     
44   H        -3.6781    0.5759   14.3931  H     
45   H        -5.0842    0.6234   13.2976  H     
46   H        -5.6942    5.0115   12.8365  H     
47   H        -6.7506    4.1145   13.9168  H     
48   H        -6.0488    3.3219   12.5044  H     
49   H        -2.5805   11.3863   13.6683  H     
50   H        -1.7587   12.0204   15.1124  H     
51   H        -2.6935   10.5244   15.2335  H     
@<TRIPOS>BOND
     1    1   10 1
     2    1   18 2
     3    1   19 2
     4    1   21 am
     5    2    4 1
     6    2   11 1
     7    2   13 1
     8    2   24 1
     9    3    5 1
    10    3    8 1
    11    3    9 2
    12    4    6 1
    13    4   16 1
    14    5    6 1
    15    5   15 1
    16    6   17 1
    17    7   10 1
    18    7   12 2
    19    7   14 1
    20    8   14 2
    21    8   20 1
    22    9   12 1
    23   11   22 1
    24   11   23 2
    25   12   25 1
    26   13   15 1
    27   16   22 1
    28   17   20 1
    29   25   26 1
    30    4   27 1
    31    5   28 1
    32    6   29 1
    33    9   30 1
    34   13   31 1
    35   13   32 1
    36   14   33 1
    37   15   34 1
    38   15   35 1
    39   16   36 1
    40   16   37 1
    41   17   38 1
    42   17   39 1
    43   20   40 1
    44   20   41 1
    45   21   42 1
    46   21   43 1
    47   22   44 1
    48   22   45 1
    49   24   46 1
    50   24   47 1
    51   24   48 1
    52   26   49 1
    53   26   50 1
    54   26   51 1
@<TRIPOS>PROPERTY_DATA
  Total_Score	| 1.3579
  Crash		| -0.2570
  Polar		| 0.0008
  FragIndex	| 1
  FragRMSD	| 0.928

