@<TRIPOS>MOLECULE
BindingDB_13425
 53 56 0 0 0
SMALL
NO_CHARGES


@<TRIPOS>ATOM
1    C        -4.2600    5.0328   15.1387  C     
2    C        -3.7793    6.3098   14.3978  C     
3    C        -3.7563    3.6309   13.0305  C     
4    C        -4.8089    2.4978   14.9122  C     
5    C        -3.3882    1.9072   14.7854  C     
6    C        -2.7010    2.6605   13.6257  C     
7    C        -4.7780    3.8852   14.1905  C     
8    C        -6.2068    4.2410   13.6567  C     
9    C        -3.1946    4.9331   12.3639  C     
10   C        -2.6343    5.9883   13.3821  C     
11   C        -1.8007    5.9321   10.4864  C     
12   C        -2.1329    4.6393   11.2710  C     
13   C        -1.6297    7.1463   11.3319  C     
14   C        -2.0117    7.1824   12.7061  C     
15   C        -1.6604    8.3312   13.4593  C     
16   C        -1.0650    9.4550   12.8588  C     
17   C        -0.7703    9.4402   11.4838  C     
18   C        -1.0435    8.2859   10.7306  C     
19   O        -0.1698   10.5051   10.9023  O     
20   O        -0.7272   10.5308   13.6375  O     
21   C        -1.8550   11.1855   14.2327  C     
22   O        -5.1862    2.5776   16.2961  O     
23   O        -5.8567   -0.1078   16.4717  O     
24   O        -5.7614    1.5188   18.7519  O     
25   S        -6.1341    1.4335   17.1007  S     
26   N        -7.7433    1.8083   16.8676  N     
27   H        -3.4207    4.6639   15.7382  H     
28   H        -5.0491    5.3110   15.8436  H     
29   H        -4.6164    6.7898   13.8835  H     
30   H        -3.4381    7.0039   15.1663  H     
31   H        -4.2770    3.0697   12.2437  H     
32   H        -5.4850    1.8205   14.3802  H     
33   H        -2.8221    2.0575   15.7104  H     
34   H        -3.4284    0.8341   14.5812  H     
35   H        -2.3425    1.9610   12.8630  H     
36   H        -1.8375    3.2090   14.0109  H     
37   H        -6.8991    4.3678   14.4912  H     
38   H        -6.5975    3.4505   13.0116  H     
39   H        -6.1989    5.1655   13.0778  H     
40   H        -4.0442    5.3946   11.8476  H     
41   H        -1.8212    5.5323   13.9534  H     
42   H        -0.8810    5.7408    9.9239  H     
43   H        -2.5996    6.1253    9.7642  H     
44   H        -1.2205    4.2538   11.7339  H     
45   H        -2.5037    3.8827   10.5722  H     
46   H        -1.8180    8.3611   14.4670  H     
47   H        -0.7886    8.2764    9.7427  H     
48   H        -0.9010   11.0416   10.5278  H     
49   H        -2.5153   11.5847   13.4477  H     
50   H        -1.4754   12.0046   14.8538  H     
51   H        -2.4205   10.5023   14.8846  H     
52   H        -8.3465    1.1282   16.5241  H     
53   H        -8.1152    2.5900   17.3129  H     
@<TRIPOS>BOND
     1    1    2 1
     2    1    7 1
     3    2   10 1
     4    3    6 1
     5    3    7 1
     6    3    9 1
     7    4    5 1
     8    4    7 1
     9    4   22 1
    10    5    6 1
    11    7    8 1
    12    9   10 1
    13    9   12 1
    14   10   14 1
    15   11   12 1
    16   11   13 1
    17   13   14 2
    18   13   18 1
    19   14   15 1
    20   15   16 2
    21   16   17 1
    22   16   20 1
    23   17   18 2
    24   17   19 1
    25   20   21 1
    26   22   25 1
    27   23   25 2
    28   24   25 2
    29   25   26 am
    30    1   27 1
    31    1   28 1
    32    2   29 1
    33    2   30 1
    34    3   31 1
    35    4   32 1
    36    5   33 1
    37    5   34 1
    38    6   35 1
    39    6   36 1
    40    8   37 1
    41    8   38 1
    42    8   39 1
    43    9   40 1
    44   10   41 1
    45   11   42 1
    46   11   43 1
    47   12   44 1
    48   12   45 1
    49   15   46 1
    50   18   47 1
    51   19   48 1
    52   21   49 1
    53   21   50 1
    54   21   51 1
    55   26   52 1
    56   26   53 1
@<TRIPOS>PROPERTY_DATA
  Total_Score	| 4.4852
  Crash		| -0.9285
  Polar		| 2.0122
  FragIndex	| 1
  FragRMSD	| 1.092

