@<TRIPOS>MOLECULE
BindingDB_50134329
 47 50 0 0 0
SMALL
NO_CHARGES


@<TRIPOS>ATOM
1    S         0.5440   10.8788   10.2424  S     
2    C        -4.5421    3.5378   14.1749  C     
3    C        -3.1378    3.2686   13.5396  C     
4    C        -2.6072    4.5311   12.7954  C     
5    C        -2.3633    5.6719   13.8554  C     
6    C        -1.6892    6.8769   13.2706  C     
7    C        -1.0330    6.8343   11.9957  C     
8    C        -4.8305    2.1983   14.6532  C     
9    C        -4.3513    4.6681   15.2404  C     
10   C        -3.6966    5.9536   14.6365  C     
11   C        -3.2951    1.8950   12.8636  C     
12   C        -1.3008    4.2813   11.9888  C     
13   O         0.2688   10.3120   11.8287  O     
14   C        -1.5556    8.0764   14.0242  C     
15   O         2.0478   10.3179    9.6650  O     
16   O        -0.6415   10.3365    9.1602  O     
17   C        -0.4329    7.9953   11.4697  C     
18   C        -0.9195    5.5709   11.2101  C     
19   N         0.6333   12.5609   10.2652  N     
20   C        -0.3461    9.1783   12.2322  C     
21   C        -4.2046    1.1502   13.8708  C     
22   O        -5.6856    1.9493   15.4928  O     
23   C        -0.9046    9.2018   13.5190  C     
24   C        -5.7164    3.9137   13.1943  C     
25   H        -2.4105    3.0871   14.3484  H     
26   H        -3.3612    4.8589   12.0634  H     
27   H        -1.6528    5.2964   14.5938  H     
28   H        -5.3176    4.9272   15.6881  H     
29   H        -3.7128    4.3005   16.0504  H     
30   H        -3.5144    6.6247   15.4758  H     
31   H        -4.4041    6.4539   13.9677  H     
32   H        -3.7674    1.9947   11.8863  H     
33   H        -2.3302    1.3945   12.7477  H     
34   H        -0.4882    4.0127   12.6756  H     
35   H        -1.4385    3.4649   11.2735  H     
36   H        -1.9084    8.1177   14.9857  H     
37   H         0.0155    7.9651   10.5493  H     
38   H        -1.5490    5.6584   10.3060  H     
39   H         0.1267    5.4504   10.8853  H     
40   H         0.3437   13.0598    9.4794  H     
41   H         0.7070   13.0094   11.1296  H     
42   H        -3.6137    0.5095   14.5298  H     
43   H        -4.9515    0.5493   13.3492  H     
44   H        -0.8304   10.0394   14.1038  H     
45   H        -5.5761    4.8908   12.7344  H     
46   H        -6.6668    3.9468   13.7373  H     
47   H        -5.8228    3.1862   12.3847  H     
@<TRIPOS>BOND
     1    1   13 1
     2    1   15 2
     3    1   16 2
     4    1   19 am
     5    2    3 1
     6    2    8 1
     7    2    9 1
     8    2   24 1
     9    3    4 1
    10    3   11 1
    11    4    5 1
    12    4   12 1
    13    5    6 1
    14    5   10 1
    15    6    7 1
    16    6   14 2
    17    7   17 2
    18    7   18 1
    19    8   21 1
    20    8   22 2
    21    9   10 1
    22   11   21 1
    23   12   18 1
    24   13   20 1
    25   14   23 1
    26   17   20 1
    27   20   23 2
    28    3   25 1
    29    4   26 1
    30    5   27 1
    31    9   28 1
    32    9   29 1
    33   10   30 1
    34   10   31 1
    35   11   32 1
    36   11   33 1
    37   12   34 1
    38   12   35 1
    39   14   36 1
    40   17   37 1
    41   18   38 1
    42   18   39 1
    43   19   40 1
    44   19   41 1
    45   21   42 1
    46   21   43 1
    47   23   44 1
    48   24   45 1
    49   24   46 1
    50   24   47 1
@<TRIPOS>PROPERTY_DATA
  Total_Score	| 0.8012
  Crash		| -0.1792
  Polar		| 0.0009
  FragIndex	| 1
  FragRMSD	| 0.899

