@<TRIPOS>MOLECULE
BindingDB_13428
 60 63 0 0 0
SMALL
NO_CHARGES


@<TRIPOS>ATOM
1    C        -4.4896    5.1949   14.8387  C     
2    C        -3.8854    6.4474   14.1555  C     
3    C        -3.6378    3.7323   12.8721  C     
4    C        -3.4929    2.1587   14.7940  C     
5    C        -2.6744    2.7927   13.6474  C     
6    C        -4.8242    4.0136   13.8536  C     
7    C        -6.1641    4.3131   13.1053  C     
8    C        -3.0076    5.0281   12.2586  C     
9    C        -2.6016    6.0915   13.3372  C     
10   C        -1.4265    6.0531   10.5566  C     
11   C        -1.8187    4.7515   11.3017  C     
12   C        -1.3383    7.2559   11.4356  C     
13   C        -1.8705    7.2757   12.7579  C     
14   C        -1.5710    8.3898   13.5804  C     
15   C        -0.8557    9.5144   13.1134  C     
16   C        -0.3776    9.4916   11.7826  C     
17   C        -0.6339    8.3839   10.9515  C     
18   C        -1.8806   11.3100   14.6145  C     
19   O         0.4731   10.4576   11.3443  O     
20   N         0.4511   13.1594   11.0595  N     
21   S         0.0511   11.7166   10.2956  S     
22   O         0.9111   11.6109    8.8435  O     
23   O        -1.6122   11.6622   10.0022  O     
24   C        -0.5983   10.6508   14.0491  C     
25   C        -4.9460    2.6511   14.6038  C     
26   O        -5.7022    2.7774   15.8153  O     
27   O        -5.8778    0.0038   16.1865  O     
28   O        -4.7259    1.5447   18.0679  O     
29   S        -5.9590    1.5219   16.9193  S     
30   N        -7.4051    1.7083   17.7457  N     
31   H        -3.7707    4.8634   15.5918  H     
32   H        -5.3894    5.4975   15.3808  H     
33   H        -4.6230    6.9220   13.5041  H     
34   H        -3.6583    7.1536   14.9530  H     
35   H        -4.0271    3.1437   12.0316  H     
36   H        -3.4403    1.0670   14.7586  H     
37   H        -3.1035    2.4881   15.7638  H     
38   H        -2.2762    2.0191   12.9840  H     
39   H        -1.8280    3.3370   14.0694  H     
40   H        -6.9779    4.4597   13.8200  H     
41   H        -6.4370    3.4781   12.4568  H     
42   H        -6.0875    5.2098   12.4880  H     
43   H        -3.7905    5.4754   11.6368  H     
44   H        -1.8886    5.6351   14.0303  H     
45   H        -0.4555    5.8783   10.0841  H     
46   H        -2.1506    6.2515    9.7603  H     
47   H        -0.9567    4.3895   11.8693  H     
48   H        -2.0860    3.9852   10.5682  H     
49   H        -1.8535    8.3789   14.5613  H     
50   H        -0.2450    8.3769   10.0047  H     
51   H        -2.5358   11.6324   13.8057  H     
52   H        -1.6070   12.1845   15.2076  H     
53   H        -2.4271   10.6208   15.2600  H     
54   H         0.9941   13.8174   10.5969  H     
55   H         0.2353   13.2834   11.9994  H     
56   H         0.0038   10.2878   14.8851  H     
57   H        -0.0198   11.4350   13.5625  H     
58   H        -5.4608    1.9198   13.9697  H     
59   H        -7.6487    1.0640   18.4253  H     
60   H        -7.9932    2.4509   17.5394  H     
@<TRIPOS>BOND
     1    1    2 1
     2    1    6 1
     3    2    9 1
     4    3    5 1
     5    3    6 1
     6    3    8 1
     7    4    5 1
     8    4   25 1
     9    6    7 1
    10    6   25 1
    11    8    9 1
    12    8   11 1
    13    9   13 1
    14   10   11 1
    15   10   12 1
    16   12   13 2
    17   12   17 1
    18   13   14 1
    19   14   15 2
    20   15   16 1
    21   15   24 1
    22   16   17 2
    23   16   19 1
    24   18   24 1
    25   19   21 1
    26   20   21 am
    27   21   22 2
    28   21   23 2
    29   25   26 1
    30   26   29 1
    31   27   29 2
    32   28   29 2
    33   29   30 am
    34    1   31 1
    35    1   32 1
    36    2   33 1
    37    2   34 1
    38    3   35 1
    39    4   36 1
    40    4   37 1
    41    5   38 1
    42    5   39 1
    43    7   40 1
    44    7   41 1
    45    7   42 1
    46    8   43 1
    47    9   44 1
    48   10   45 1
    49   10   46 1
    50   11   47 1
    51   11   48 1
    52   14   49 1
    53   17   50 1
    54   18   51 1
    55   18   52 1
    56   18   53 1
    57   20   54 1
    58   20   55 1
    59   24   56 1
    60   24   57 1
    61   25   58 1
    62   30   59 1
    63   30   60 1
@<TRIPOS>PROPERTY_DATA
  Total_Score	| 4.4945
  Crash		| -1.2053
  Polar		| 2.8863
  FragIndex	| 1
  FragRMSD	| 1.148

