@<TRIPOS>MOLECULE
BindingDB_13427
 53 56 0 0 0
SMALL
NO_CHARGES


@<TRIPOS>ATOM
1    C        -4.1069    4.5952   14.8172  C     
2    C        -3.7289    5.9370   14.1187  C     
3    C        -3.7350    3.2868   12.6065  C     
4    C        -4.7672    2.2244   14.4802  C     
5    C        -4.0447    1.1644   13.8439  C     
6    C        -3.1454    1.8642   12.8086  C     
7    C        -4.6977    3.5257   13.8322  C     
8    C        -6.1439    3.9356   13.3854  C     
9    C        -2.6357    4.3970   12.4060  C     
10   C        -3.2769    5.8080   12.6197  C     
11   C        -0.7968    5.4237   10.9693  C     
12   C        -1.9065    4.3388   11.0377  C     
13   C        -1.2309    6.7769   11.4117  C     
14   C        -2.4352    6.9612   12.1452  C     
15   C        -2.8948    8.2830   12.3568  C     
16   C        -2.1349    9.4122   11.9865  C     
17   C        -0.8775    9.2182   11.3646  C     
18   C        -0.4459    7.9047   11.0808  C     
19   C        -2.1695   11.3536   13.6069  C     
20   O        -5.4903    1.9949   15.4405  O     
21   O        -0.1424   10.3316   11.0615  O     
22   N         2.2459   11.4577   11.7812  N     
23   S         1.4553   10.6364   10.5470  S     
24   O         2.3595    9.2717   10.1236  O     
25   O         1.3785   11.7012    9.2295  O     
26   C        -2.6743   10.7773   12.2652  C     
27   H        -3.1980    4.1881   15.2779  H     
28   H        -4.8065    4.7968   15.6339  H     
29   H        -4.5924    6.5998   14.1626  H     
30   H        -2.9293    6.4006   14.7002  H     
31   H        -4.3339    3.2498   11.6912  H     
32   H        -3.4430    0.6148   14.5731  H     
33   H        -4.7473    0.4787   13.3596  H     
34   H        -3.1257    1.2973   11.8693  H     
35   H        -2.1225    1.9112   13.1967  H     
36   H        -6.7745    4.1322   14.2550  H     
37   H        -6.6125    3.1390   12.8005  H     
38   H        -6.1343    4.8387   12.7741  H     
39   H        -1.8652    4.2651   13.1731  H     
40   H        -4.1750    5.8498   11.9897  H     
41   H         0.0498    5.1213   11.5886  H     
42   H        -0.4526    5.4744    9.9341  H     
43   H        -1.4545    3.3548   10.8935  H     
44   H        -2.6273    4.5039   10.2320  H     
45   H        -3.7988    8.4277   12.8071  H     
46   H         0.4327    7.7557   10.5944  H     
47   H        -2.4356   10.6947   14.4337  H     
48   H        -2.6244   12.3279   13.7833  H     
49   H        -1.0889   11.4831   13.5875  H     
50   H         3.2048   11.3319   11.9057  H     
51   H         1.7346   11.9876   12.4169  H     
52   H        -2.3977   11.4561   11.4506  H     
53   H        -3.7680   10.7695   12.3026  H     
@<TRIPOS>BOND
     1    1    2 1
     2    1    7 1
     3    2   10 1
     4    3    6 1
     5    3    7 1
     6    3    9 1
     7    4    5 1
     8    4    7 1
     9    4   20 2
    10    5    6 1
    11    7    8 1
    12    9   10 1
    13    9   12 1
    14   10   14 1
    15   11   12 1
    16   11   13 1
    17   13   14 2
    18   13   18 1
    19   14   15 1
    20   15   16 2
    21   16   17 1
    22   16   26 1
    23   17   18 2
    24   17   21 1
    25   19   26 1
    26   21   23 1
    27   22   23 am
    28   23   24 2
    29   23   25 2
    30    1   27 1
    31    1   28 1
    32    2   29 1
    33    2   30 1
    34    3   31 1
    35    5   32 1
    36    5   33 1
    37    6   34 1
    38    6   35 1
    39    8   36 1
    40    8   37 1
    41    8   38 1
    42    9   39 1
    43   10   40 1
    44   11   41 1
    45   11   42 1
    46   12   43 1
    47   12   44 1
    48   15   45 1
    49   18   46 1
    50   19   47 1
    51   19   48 1
    52   19   49 1
    53   22   50 1
    54   22   51 1
    55   26   52 1
    56   26   53 1
@<TRIPOS>PROPERTY_DATA
  Total_Score	| 0.1489
  Crash		| -0.5818
  Polar		| 0.0003
  FragIndex	| 1
  FragRMSD	| 0.684

