@<TRIPOS>MOLECULE
BindingDB_50200941
 60 63 0 0 0
SMALL
NO_CHARGES


@<TRIPOS>ATOM
1    C        -1.8541    9.4977   12.0454  C     
2    C        -0.7582    9.2903   11.1702  C     
3    C        -0.1566    8.0181   11.0885  C     
4    C        -2.3179    8.4101   12.8170  C     
5    C        -1.7236    7.1298   12.7588  C     
6    C        -0.6308    6.9383   11.8682  C     
7    C        -0.0195    5.5852   11.7729  C     
8    C        -1.0871    4.4507   11.7259  C     
9    C        -2.2168    5.9419   13.5444  C     
10   C        -2.3999    4.7349   12.5466  C     
11   C        -3.9767    4.8528   15.1546  C     
12   C        -3.4644    6.1579   14.4737  C     
13   C        -4.2262    3.7117   14.1141  C     
14   C        -2.8942    3.4797   13.3342  C     
15   C        -3.1205    2.1326   12.6098  C     
16   C        -4.0065    1.3164   13.5880  C     
17   C        -4.3973    2.2907   14.7348  C     
18   O        -5.7206    2.0638   15.2293  O     
19   C        -5.4854    4.0661   13.2294  C     
20   O        -0.3449   10.3318   10.3915  O     
21   S        -6.1355    1.5153   16.7768  S     
22   N        -7.5353    2.2998   17.2645  N     
23   O        -6.4541   -0.1325   16.6467  O     
24   O        -4.8679    1.7755   17.8646  O     
25   S         1.2161   10.9530   10.1857  S     
26   N         1.6426   11.7128   11.6206  N     
27   O         2.3799    9.7597    9.8983  O     
28   O         1.2618   12.0740    8.9226  O     
29   C        -2.5436   10.8171   12.1827  C     
30   C        -2.2332   11.5193   13.5260  C     
31   H         0.6107    7.8679   10.4309  H     
32   H        -3.1195    8.5639   13.4239  H     
33   H         0.6463    5.4946   10.9097  H     
34   H         0.5948    5.4462   12.6676  H     
35   H        -1.3612    4.2712   10.6821  H     
36   H        -0.5982    3.5402   12.0833  H     
37   H        -1.4003    5.6815   14.2271  H     
38   H        -3.1713    5.0145   11.8236  H     
39   H        -3.2340    4.5313   15.8902  H     
40   H        -4.8977    5.0670   15.7040  H     
41   H        -3.2039    6.8703   15.2617  H     
42   H        -4.2826    6.5970   13.9009  H     
43   H        -2.0967    3.2817   14.0647  H     
44   H        -3.6333    2.2903   11.6585  H     
45   H        -2.1758    1.6190   12.4161  H     
46   H        -4.8944    0.9391   13.0714  H     
47   H        -3.4574    0.4587   13.9867  H     
48   H        -3.6754    2.1515   15.5491  H     
49   H        -6.3582    4.2360   13.8641  H     
50   H        -5.7407    3.2640   12.5362  H     
51   H        -5.3369    4.9666   12.6368  H     
52   H        -8.3699    1.8120   17.3114  H     
53   H        -7.4973    3.2177   17.5765  H     
54   H         2.4416   12.2607   11.6536  H     
55   H         0.9771   11.7965   12.3219  H     
56   H        -2.2609   11.5012   11.3803  H     
57   H        -3.6242   10.6654   12.1006  H     
58   H        -2.6027   10.9343   14.3718  H     
59   H        -2.7180   12.4967   13.5511  H     
60   H        -1.1561   11.6613   13.6380  H     
@<TRIPOS>BOND
     1    1    2 2
     2    1    4 1
     3    1   29 1
     4    2    3 1
     5    2   20 1
     6    3    6 2
     7    4    5 2
     8    5    6 1
     9    5    9 1
    10    6    7 1
    11    7    8 1
    12    8   10 1
    13    9   10 1
    14    9   12 1
    15   10   14 1
    16   11   12 1
    17   11   13 1
    18   13   14 1
    19   13   17 1
    20   13   19 1
    21   14   15 1
    22   15   16 1
    23   16   17 1
    24   17   18 1
    25   18   21 1
    26   20   25 1
    27   21   22 am
    28   21   23 2
    29   21   24 2
    30   25   26 am
    31   25   27 2
    32   25   28 2
    33   29   30 1
    34    3   31 1
    35    4   32 1
    36    7   33 1
    37    7   34 1
    38    8   35 1
    39    8   36 1
    40    9   37 1
    41   10   38 1
    42   11   39 1
    43   11   40 1
    44   12   41 1
    45   12   42 1
    46   14   43 1
    47   15   44 1
    48   15   45 1
    49   16   46 1
    50   16   47 1
    51   17   48 1
    52   19   49 1
    53   19   50 1
    54   19   51 1
    55   22   52 1
    56   22   53 1
    57   26   54 1
    58   26   55 1
    59   29   56 1
    60   29   57 1
    61   30   58 1
    62   30   59 1
    63   30   60 1
@<TRIPOS>PROPERTY_DATA
  Total_Score	| 3.9996
  Crash		| -0.8916
  Polar		| 2.4072
  FragIndex	| 1
  FragRMSD	| 0.977

