@<TRIPOS>MOLECULE
BindingDB_50159804
 54 57 0 0 0
SMALL
NO_CHARGES


@<TRIPOS>ATOM
1    C        -1.1038    9.4251   13.0821  C     
2    C        -0.3234    9.2767   11.9209  C     
3    C        -0.0668    7.9777   11.4472  C     
4    C        -1.6438    8.3029   13.7249  C     
5    C        -1.4866    6.9951   13.2004  C     
6    C        -0.6270    6.8433   12.0727  C     
7    C        -0.2991    5.5098   11.4894  C     
8    C        -0.8574    4.2797   12.2482  C     
9    C        -2.1118    5.7926   13.8683  C     
10   C        -2.2492    4.5835   12.8609  C     
11   C        -4.1122    4.7904   15.2496  C     
12   C        -3.4671    6.0606   14.6229  C     
13   C        -4.2592    3.6254   14.2136  C     
14   C        -2.8463    3.3491   13.6026  C     
15   C        -3.0205    1.9846   12.8900  C     
16   C        -4.0460    1.2183   13.7699  C     
17   C        -4.5291    2.2248   14.8499  C     
18   O        -5.8918    2.0029   15.2218  O     
19   C        -5.3931    3.9828   13.1781  C     
20   O         0.1690   10.4194   11.3544  O     
21   S        -6.4418    1.7159   16.7915  S     
22   N        -7.1911    3.1198   17.3208  N     
23   O        -7.6104    0.5103   16.7033  O     
24   O        -5.2302    1.3031   17.8904  O     
25   S         1.0513   10.7204    9.9274  S     
26   N         2.4315   11.6148   10.3018  N     
27   O         1.4658    9.3700    8.9927  O     
28   O         0.0958   11.7509    8.9770  O     
29   H        -1.2495   10.3569   13.4721  H     
30   H         0.5411    7.8413   10.6421  H     
31   H        -2.1732    8.4744   14.5754  H     
32   H        -0.6902    5.4942   10.4691  H     
33   H         0.7899    5.4031   11.4280  H     
34   H        -0.9204    3.4394   11.5539  H     
35   H        -0.1599    4.0017   13.0423  H     
36   H        -1.4024    5.4893   14.6476  H     
37   H        -2.9169    4.8592   12.0421  H     
38   H        -3.4854    4.4674   16.0821  H     
39   H        -5.0901    5.0449   15.6634  H     
40   H        -3.3000    6.7504   15.4535  H     
41   H        -4.1741    6.5430   13.9430  H     
42   H        -2.1451    3.1503   14.4261  H     
43   H        -3.4061    2.1270   11.8774  H     
44   H        -2.0741    1.4400   12.8314  H     
45   H        -4.8879    0.8774   13.1602  H     
46   H        -3.5904    0.3472   14.2428  H     
47   H        -3.8878    2.1037   15.7333  H     
48   H        -6.3380    4.1500   13.6997  H     
49   H        -5.5574    3.1800   12.4566  H     
50   H        -5.1692    4.8851   12.6106  H     
51   H        -6.9626    3.4716   18.1997  H     
52   H        -7.6029    3.7171   16.6688  H     
53   H         3.1777   11.6446    9.6711  H     
54   H         2.4199   12.2260   11.0634  H     
@<TRIPOS>BOND
     1    1    2 2
     2    1    4 1
     3    2    3 1
     4    2   20 1
     5    3    6 2
     6    4    5 2
     7    5    6 1
     8    5    9 1
     9    6    7 1
    10    7    8 1
    11    8   10 1
    12    9   10 1
    13    9   12 1
    14   10   14 1
    15   11   12 1
    16   11   13 1
    17   13   14 1
    18   13   17 1
    19   13   19 1
    20   14   15 1
    21   15   16 1
    22   16   17 1
    23   17   18 1
    24   18   21 1
    25   20   25 1
    26   21   22 am
    27   21   23 2
    28   21   24 2
    29   25   26 am
    30   25   27 2
    31   25   28 2
    32    1   29 1
    33    3   30 1
    34    4   31 1
    35    7   32 1
    36    7   33 1
    37    8   34 1
    38    8   35 1
    39    9   36 1
    40   10   37 1
    41   11   38 1
    42   11   39 1
    43   12   40 1
    44   12   41 1
    45   14   42 1
    46   15   43 1
    47   15   44 1
    48   16   45 1
    49   16   46 1
    50   17   47 1
    51   19   48 1
    52   19   49 1
    53   19   50 1
    54   22   51 1
    55   22   52 1
    56   26   53 1
    57   26   54 1
@<TRIPOS>PROPERTY_DATA
  Total_Score	| 3.3037
  Crash		| -0.5314
  Polar		| 1.1294
  FragIndex	| 1
  FragRMSD	| 1.135

