@<TRIPOS>MOLECULE
BindingDB_50200940
 53 56 0 0 0
SMALL
NO_CHARGES


@<TRIPOS>ATOM
1    C        -1.5135    9.4684   11.9875  C     
2    C        -0.5104    9.1114   11.0636  C     
3    C        -0.0176    7.7976   11.0170  C     
4    C        -2.0293    8.4719   12.8506  C     
5    C        -1.5754    7.1239   12.7987  C     
6    C        -0.5416    6.8058   11.8752  C     
7    C         0.0043    5.4225   11.8433  C     
8    C        -1.0972    4.3272   11.9348  C     
9    C        -2.1363    6.0065   13.6443  C     
10   C        -2.3937    4.7569   12.7117  C     
11   C        -3.9946    5.1245   15.2714  C     
12   C        -3.3673    6.3556   14.5538  C     
13   C        -4.3273    3.9668   14.2726  C     
14   C        -3.0015    3.5808   13.5441  C     
15   C        -3.3339    2.2143   12.8973  C     
16   C        -4.3052    1.5359   13.9024  C     
17   C        -4.6630    2.6133   14.9635  C     
18   O        -6.0260    2.5489   15.4056  O     
19   C        -5.5117    4.3955   13.3207  C     
20   O         0.0041   10.0309   10.2109  O     
21   S        -6.5436    1.6931   16.7700  S     
22   N        -5.6529    2.1449   18.1214  N     
23   O        -8.1937    1.9510   17.0571  O     
24   O        -6.3151    0.0370   16.5315  O     
25   O        -1.9060   10.7877   11.9709  O     
26   C        -3.0650   11.1929   12.7111  C     
27   H         0.7281    7.5688   10.3490  H     
28   H        -2.7447    8.7346   13.5230  H     
29   H         0.6087    5.2466   10.9494  H     
30   H         0.6705    5.3216   12.7032  H     
31   H        -1.3816    4.0321   10.9210  H     
32   H        -0.6417    3.4497   12.4021  H     
33   H        -1.3334    5.7292   14.3377  H     
34   H        -3.1189    5.0531   11.9519  H     
35   H        -3.2874    4.7673   16.0260  H     
36   H        -4.9021    5.4261   15.8027  H     
37   H        -3.0535    7.0672   15.3219  H     
38   H        -4.1411    6.8448   13.9607  H     
39   H        -2.2399    3.3543   14.3068  H     
40   H        -3.8164    2.3588   11.9274  H     
41   H        -2.4336    1.6087   12.7535  H     
42   H        -5.2045    1.1889   13.3830  H     
43   H        -3.8323    0.6731   14.3814  H     
44   H        -4.0062    2.4730   15.8291  H     
45   H        -6.3826    4.6881   13.9100  H     
46   H        -5.8182    3.5800   12.6639  H     
47   H        -5.2537    5.2401   12.6862  H     
48   H        -0.7185   10.2081    9.5590  H     
49   H        -5.8641    1.7554   18.9826  H     
50   H        -5.0984    2.9386   18.0764  H     
51   H        -3.9429   10.6128   12.4348  H     
52   H        -3.2758   12.2487   12.4809  H     
53   H        -2.8885   11.1217   13.7813  H     
@<TRIPOS>BOND
     1    1    2 2
     2    1    4 1
     3    1   25 1
     4    2    3 1
     5    2   20 1
     6    3    6 2
     7    4    5 2
     8    5    6 1
     9    5    9 1
    10    6    7 1
    11    7    8 1
    12    8   10 1
    13    9   10 1
    14    9   12 1
    15   10   14 1
    16   11   12 1
    17   11   13 1
    18   13   14 1
    19   13   17 1
    20   13   19 1
    21   14   15 1
    22   15   16 1
    23   16   17 1
    24   17   18 1
    25   18   21 1
    26   21   22 am
    27   21   23 2
    28   21   24 2
    29   25   26 1
    30    3   27 1
    31    4   28 1
    32    7   29 1
    33    7   30 1
    34    8   31 1
    35    8   32 1
    36    9   33 1
    37   10   34 1
    38   11   35 1
    39   11   36 1
    40   12   37 1
    41   12   38 1
    42   14   39 1
    43   15   40 1
    44   15   41 1
    45   16   42 1
    46   16   43 1
    47   17   44 1
    48   19   45 1
    49   19   46 1
    50   19   47 1
    51   20   48 1
    52   22   49 1
    53   22   50 1
    54   26   51 1
    55   26   52 1
    56   26   53 1
@<TRIPOS>PROPERTY_DATA
  Total_Score	| 4.0684
  Crash		| -1.0594
  Polar		| 1.9538
  FragIndex	| 1
  FragRMSD	| 0.806

