@<TRIPOS>MOLECULE
BindingDB_50200936
 58 61 0 0 0
SMALL
NO_CHARGES


@<TRIPOS>ATOM
1    C        -1.9377    9.2825   11.5243  C     
2    C        -0.7184    9.0295   10.8562  C     
3    C        -0.1034    7.7641   10.9674  C     
4    C        -2.5044    8.2756   12.3410  C     
5    C        -1.8724    7.0329   12.5167  C     
6    C        -0.6817    6.7619   11.7782  C     
7    C        -0.0859    5.4017   11.8486  C     
8    C        -1.1828    4.3026   11.7587  C     
9    C        -2.3924    5.9389   13.4017  C     
10   C        -2.5182    4.6298   12.5284  C     
11   C        -4.1409    4.9968   15.0933  C     
12   C        -3.6633    6.2348   14.2691  C     
13   C        -4.3427    3.7349   14.1888  C     
14   C        -2.9963    3.4541   13.4392  C     
15   C        -3.1998    2.0400   12.8463  C     
16   C        -4.0902    1.3099   13.9019  C     
17   C        -4.4777    2.3855   14.9506  C     
18   O        -5.7761    2.1592   15.5213  O     
19   C        -5.6024    3.9527   13.2664  C     
20   O        -0.1970   10.0611   10.1365  O     
21   S        -6.0462    1.3206   16.9622  S     
22   N        -7.5489    1.6827   17.6132  N     
23   O        -6.0624   -0.3319   16.6134  O     
24   O        -4.8291    1.5401   18.1052  O     
25   S         1.3145   10.8256   10.2683  S     
26   N         1.5034   11.5250   11.7810  N     
27   O         2.5314    9.6554   10.0794  O     
28   O         1.5183   11.9673    9.0314  O     
29   O        -2.5316   10.5045   11.2925  O     
30   C        -3.5010   10.9796   12.2455  C     
31   H         0.7566    7.5730   10.4486  H     
32   H        -3.3920    8.4816   12.7957  H     
33   H         0.6593    5.2369   11.0592  H     
34   H         0.4366    5.3127   12.8086  H     
35   H        -1.4197    4.1517   10.6995  H     
36   H        -0.7375    3.3665   12.1140  H     
37   H        -1.6004    5.7589   14.1421  H     
38   H        -3.2908    4.8057   11.7737  H     
39   H        -3.3927    4.7957   15.8693  H     
40   H        -5.0713    5.2533   15.6076  H     
41   H        -3.4314    7.0476   14.9644  H     
42   H        -4.4791    6.5756   13.6336  H     
43   H        -2.1956    3.3447   14.1862  H     
44   H        -3.7078    2.0948   11.8849  H     
45   H        -2.2504    1.5166   12.7148  H     
46   H        -4.9743    0.8896   13.4182  H     
47   H        -3.5405    0.4968   14.3761  H     
48   H        -3.7294    2.3475   15.7505  H     
49   H        -6.4802    4.1758   13.8792  H     
50   H        -5.8345    3.0691   12.6763  H     
51   H        -5.4671    4.7772   12.5690  H     
52   H        -7.7571    1.3874   18.5153  H     
53   H        -8.1028    2.3583   17.1983  H     
54   H         2.0437   12.3213   11.8773  H     
55   H         1.1441   11.0871   12.5676  H     
56   H        -4.4248   10.4040   12.1415  H     
57   H        -3.7084   12.0183   12.0126  H     
58   H        -3.1269   10.9124   13.2719  H     
@<TRIPOS>BOND
     1    1    2 2
     2    1    4 1
     3    1   29 1
     4    2    3 1
     5    2   20 1
     6    3    6 2
     7    4    5 2
     8    5    6 1
     9    5    9 1
    10    6    7 1
    11    7    8 1
    12    8   10 1
    13    9   10 1
    14    9   12 1
    15   10   14 1
    16   11   12 1
    17   11   13 1
    18   13   14 1
    19   13   17 1
    20   13   19 1
    21   14   15 1
    22   15   16 1
    23   16   17 1
    24   17   18 1
    25   18   21 1
    26   20   25 1
    27   21   22 am
    28   21   23 2
    29   21   24 2
    30   25   26 am
    31   25   27 2
    32   25   28 2
    33   29   30 1
    34    3   31 1
    35    4   32 1
    36    7   33 1
    37    7   34 1
    38    8   35 1
    39    8   36 1
    40    9   37 1
    41   10   38 1
    42   11   39 1
    43   11   40 1
    44   12   41 1
    45   12   42 1
    46   14   43 1
    47   15   44 1
    48   15   45 1
    49   16   46 1
    50   16   47 1
    51   17   48 1
    52   19   49 1
    53   19   50 1
    54   19   51 1
    55   22   52 1
    56   22   53 1
    57   26   54 1
    58   26   55 1
    59   30   56 1
    60   30   57 1
    61   30   58 1
@<TRIPOS>PROPERTY_DATA
  Total_Score	| 3.9986
  Crash		| -1.1526
  Polar		| 2.3491
  FragIndex	| 1
  FragRMSD	| 0.922

