@<TRIPOS>MOLECULE
BindingDB_50028901
 28 29 0 0 0
SMALL
NO_CHARGES


@<TRIPOS>ATOM
1    C        28.8044   44.2741   17.8968  C     
2    C        28.2455   43.9542   16.6255  C     
3    N        29.8592   43.6317   20.1451  N     
4    C        29.0816   43.2025   18.9194  C     
5    C        28.9735   45.6423   18.2421  C     
6    C        27.9215   44.9818   15.7066  C     
7    C        28.6434   46.6541   17.3202  C     
8    C        28.1270   46.3237   16.0628  C     
9    C        29.5704   46.0557   19.5323  C     
10   Cl       27.9879   42.3277   16.1875  Cl    
11   C        29.3937   44.9663   20.6161  C     
12   Cl       27.2843   44.6813   14.1703  Cl    
13   C        31.3609   43.4829   20.0777  C     
14   C        32.0841   43.7996   18.7385  C     
15   H        29.5714   42.9867   20.9082  H     
16   H        28.1036   42.8353   19.2631  H     
17   H        29.5811   42.3440   18.4604  H     
18   H        28.7729   47.6372   17.5576  H     
19   H        27.8887   47.0896   15.4170  H     
20   H        30.6229   46.3094   19.4172  H     
21   H        29.0625   46.9574   19.9013  H     
22   H        28.3278   44.8902   20.8835  H     
23   H        29.9112   45.2720   21.5354  H     
24   H        31.8466   44.1173   20.8393  H     
25   H        31.5802   42.4465   20.3288  H     
26   H        31.8763   43.0459   17.9823  H     
27   H        33.1805   43.8289   18.8626  H     
28   H        31.7421   44.7830   18.3837  H     
@<TRIPOS>BOND
     1    1    2 2
     2    1    4 1
     3    1    5 1
     4    2    6 1
     5    2   10 1
     6    3    4 1
     7    3   11 1
     8    3   13 1
     9    5    7 2
    10    5    9 1
    11    6    8 2
    12    6   12 1
    13    7    8 1
    14    9   11 1
    15   13   14 1
    16    3   15 1
    17    4   16 1
    18    4   17 1
    19    7   18 1
    20    8   19 1
    21    9   20 1
    22    9   21 1
    23   11   22 1
    24   11   23 1
    25   13   24 1
    26   13   25 1
    27   14   26 1
    28   14   27 1
    29   14   28 1
@<TRIPOS>PROPERTY_DATA
  Total_Score	| 6.1648
  Crash		| -2.3820
  Polar		| 2.5916
  FragIndex	| 1
  FragRMSD	| 0.932

