@<TRIPOS>MOLECULE
BindingDB_50028906
 57 60 0 0 0
SMALL
NO_CHARGES


@<TRIPOS>ATOM
1    C        29.1892   44.2837   17.1517  C     
2    C        29.7274   52.0002   21.0709  C     
3    C        29.2980   52.9399   20.0830  C     
4    C        28.4248   43.7648   16.0770  C     
5    N        29.9218   44.3439   19.5078  N     
6    N        29.9511   49.6321   21.8539  N     
7    C        29.9749   50.5825   20.7054  C     
8    C        29.5127   43.4749   18.3708  C     
9    C        29.9385   52.4260   22.4079  C     
10   C        29.6290   45.6323   17.0857  C     
11   C        28.9788   54.2721   20.4568  C     
12   C        27.9957   44.6220   15.0294  C     
13   C        29.1536   46.4908   16.0766  C     
14   C        29.6290   53.7628   22.7716  C     
15   C        29.1363   54.6714   21.8034  C     
16   C        28.3262   45.9923   15.0568  C     
17   C        30.5774   46.1959   18.0723  C     
18   C        30.4599   51.4984   23.4508  C     
19   Cl       28.0272   42.1149   16.0114  Cl    
20   Cl       29.1732   52.5032   18.4290  Cl    
21   C        31.0927   45.1864   19.1199  C     
22   C        30.8828   50.0934   22.9281  C     
23   Cl       28.4003   55.4349   19.3512  Cl    
24   Cl       27.0872   44.0882   13.6946  Cl    
25   C        30.0025   43.6988   20.8501  C     
26   C        30.0530   48.1802   21.4374  C     
27   C        29.3979   47.2131   22.4886  C     
28   C        29.9929   44.7171   22.0118  C     
29   C        28.9141   45.8403   21.9378  C     
30   H        29.1521   45.0005   19.5786  H     
31   H        29.0165   49.7477   22.2522  H     
32   H        29.1788   50.2690   20.0203  H     
33   H        30.9452   50.5357   20.1992  H     
34   H        28.5955   42.9456   18.6635  H     
35   H        30.2682   42.7256   18.1458  H     
36   H        29.4362   47.4819   16.0650  H     
37   H        29.7461   54.0767   23.7258  H     
38   H        28.9053   55.6255   22.0919  H     
39   H        28.0228   46.6363   14.3091  H     
40   H        31.4284   46.6215   17.5435  H     
41   H        30.0444   46.9969   18.5849  H     
42   H        31.3177   51.9584   23.9473  H     
43   H        29.6720   51.3721   24.1973  H     
44   H        31.4869   45.7786   19.9507  H     
45   H        31.8930   44.5654   18.6892  H     
46   H        30.8625   49.3956   23.7776  H     
47   H        31.9094   50.1289   22.5465  H     
48   H        29.1261   43.0553   20.9558  H     
49   H        30.8834   43.0578   20.9028  H     
50   H        29.6140   47.9836   20.4465  H     
51   H        31.1109   47.9148   21.3580  H     
52   H        30.1221   47.0156   23.2760  H     
53   H        28.5454   47.6959   22.9716  H     
54   H        29.8626   44.1696   22.9487  H     
55   H        30.9802   45.1673   22.0818  H     
56   H        28.0447   45.5132   22.5111  H     
57   H        28.5682   46.0070   20.9173  H     
@<TRIPOS>BOND
     1    1    4 2
     2    1    8 1
     3    1   10 1
     4    2    3 2
     5    2    7 1
     6    2    9 1
     7    3   11 1
     8    3   20 1
     9    4   12 1
    10    4   19 1
    11    5    8 1
    12    5   21 1
    13    5   25 1
    14    6    7 1
    15    6   22 1
    16    6   26 1
    17    9   14 2
    18    9   18 1
    19   10   13 2
    20   10   17 1
    21   11   15 2
    22   11   23 1
    23   12   16 2
    24   12   24 1
    25   13   16 1
    26   14   15 1
    27   17   21 1
    28   18   22 1
    29   25   28 1
    30   26   27 1
    31   27   29 1
    32   28   29 1
    33    5   30 1
    34    6   31 1
    35    7   32 1
    36    7   33 1
    37    8   34 1
    38    8   35 1
    39   13   36 1
    40   14   37 1
    41   15   38 1
    42   16   39 1
    43   17   40 1
    44   17   41 1
    45   18   42 1
    46   18   43 1
    47   21   44 1
    48   21   45 1
    49   22   46 1
    50   22   47 1
    51   25   48 1
    52   25   49 1
    53   26   50 1
    54   26   51 1
    55   27   52 1
    56   27   53 1
    57   28   54 1
    58   28   55 1
    59   29   56 1
    60   29   57 1
@<TRIPOS>PROPERTY_DATA
  Total_Score	| 1.0537
  Crash		| -8.7302
  Polar		| 0.9996
  FragIndex	| 1
  FragRMSD	| 1.114

