@<TRIPOS>MOLECULE
BindingDB_50028912
 35 37 0 0 0
SMALL
NO_CHARGES


@<TRIPOS>ATOM
1    C        29.0760   44.2533   17.4208  C     
2    C        28.1490   43.8727   16.4110  C     
3    N        30.4474   43.7498   19.5445  N     
4    C        29.4235   43.3179   18.5286  C     
5    C        29.7030   45.5272   17.3476  C     
6    C        27.8274   44.7766   15.3693  C     
7    C        29.3184   46.4395   16.3381  C     
8    C        29.9276   44.0165   20.9295  C     
9    C        28.3882   46.0652   15.3584  C     
10   C        30.7864   45.9211   18.2807  C     
11   C        31.4451   44.7069   18.9903  C     
12   Cl       27.4319   42.3290   16.4257  Cl    
13   Cl       26.8099   44.3563   14.0831  Cl    
14   C        29.6674   45.4087   21.3974  C     
15   C        30.6764   46.3969   21.2860  C     
16   C        28.4806   45.7514   22.0918  C     
17   C        28.3286   47.0291   22.6707  C     
18   C        30.5093   47.6919   21.8086  C     
19   C        29.3393   47.9999   22.5185  C     
20   H        31.0017   42.8992   19.6805  H     
21   H        28.4850   43.0336   19.0181  H     
22   H        29.8234   42.4117   18.0687  H     
23   H        29.7529   47.3662   16.2763  H     
24   H        29.0233   43.4198   21.0645  H     
25   H        30.6430   43.5744   21.6259  H     
26   H        28.1480   46.7320   14.6200  H     
27   H        31.5719   46.4460   17.7331  H     
28   H        30.3735   46.6350   18.9848  H     
29   H        32.1619   45.0322   19.7426  H     
30   H        32.0292   44.1537   18.2520  H     
31   H        31.5551   46.1831   20.8205  H     
32   H        27.7313   45.0658   22.2106  H     
33   H        27.4793   47.2585   23.1905  H     
34   H        31.2434   48.3967   21.6952  H     
35   H        29.2312   48.9285   22.9377  H     
@<TRIPOS>BOND
     1    1    2 2
     2    1    4 1
     3    1    5 1
     4    2    6 1
     5    2   12 1
     6    3    4 1
     7    3    8 1
     8    3   11 1
     9    5    7 2
    10    5   10 1
    11    6    9 2
    12    6   13 1
    13    7    9 1
    14    8   14 1
    15   10   11 1
    16   14   15 2
    17   14   16 1
    18   15   18 1
    19   16   17 2
    20   17   19 1
    21   18   19 2
    22    3   20 1
    23    4   21 1
    24    4   22 1
    25    7   23 1
    26    8   24 1
    27    8   25 1
    28    9   26 1
    29   10   27 1
    30   10   28 1
    31   11   29 1
    32   11   30 1
    33   15   31 1
    34   16   32 1
    35   17   33 1
    36   18   34 1
    37   19   35 1
@<TRIPOS>PROPERTY_DATA
  Total_Score	| 3.3909
  Crash		| -5.5097
  Polar		| 0.1164
  FragIndex	| 1
  FragRMSD	| 0.970

