@<TRIPOS>MOLECULE
BindingDB_28435
 47 49 0 0 0
SMALL
NO_CHARGES


@<TRIPOS>ATOM
1    O       -25.9579   -4.8946   37.6611  O     
2    O       -22.8690   -4.6292   37.3189  O     
3    O       -23.7888   -2.0351   37.3244  O     
4    C       -29.6644   -6.7140   41.7161  C     
5    N       -26.9010   -2.7603   37.2420  N     
6    N       -26.3756   -6.6917   40.2564  N     
7    N       -28.5041   -1.3649   36.5765  N     
8    N       -27.9223   -3.3287   39.4125  N     
9    N       -29.9706   -2.2444   39.8310  N     
10   N       -30.9087   -0.7432   38.3022  N     
11   C       -24.8869   -5.3556   38.5047  C     
12   C       -23.7615   -4.2966   38.3847  C     
13   C       -24.5370   -3.0087   38.0603  C     
14   C       -25.7047   -3.5563   37.2170  C     
15   C       -25.4089   -5.5628   39.9600  C     
16   C       -27.8299   -2.7030   38.2126  C     
17   C       -27.3301   -1.9399   36.2557  C     
18   C       -27.1454   -6.3986   41.5213  C     
19   C       -28.8298   -1.8294   37.7910  C     
20   C       -27.2327   -7.1142   39.1109  C     
21   C       -28.3502   -7.3178   41.9105  C     
22   C       -29.9278   -1.5933   38.6378  C     
23   C       -28.9911   -3.1040   40.2230  C     
24   N       -30.4413   -6.9843   40.6848  N     
25   O       -30.0949   -5.9082   42.5291  O     
26   H       -22.0059   -4.2439   37.5691  H     
27   H       -22.8435   -2.2749   37.4151  H     
28   H       -25.7948   -7.5087   40.4646  H     
29   H       -30.8716   -0.2740   37.4555  H     
30   H       -31.6344   -0.5633   38.9239  H     
31   H       -24.5260   -6.3179   38.1376  H     
32   H       -23.1823   -4.1973   39.3073  H     
33   H       -24.9001   -2.5531   38.9858  H     
34   H       -25.3542   -3.6529   36.1855  H     
35   H       -25.8309   -4.6086   40.2809  H     
36   H       -24.5331   -5.7365   40.5902  H     
37   H       -26.8414   -1.7752   35.3727  H     
38   H       -26.4216   -6.4712   42.3421  H     
39   H       -27.4864   -5.3580   41.5154  H     
40   H       -27.9101   -6.3126   38.8101  H     
41   H       -27.8110   -7.9998   39.3574  H     
42   H       -26.6221   -7.4125   38.2573  H     
43   H       -28.2493   -7.5789   42.9707  H     
44   H       -28.3012   -8.2634   41.3703  H     
45   H       -29.0567   -3.5736   41.1255  H     
46   H       -31.3161   -6.5697   40.6103  H     
47   H       -30.1720   -7.6376   40.0234  H     
@<TRIPOS>BOND
     1    1   11 1
     2    1   14 1
     3   12    2 1
     4   13    3 1
     5    4   21 1
     6    4   24 am
     7    4   25 2
     8   14    5 1
     9    5   16 1
    10    5   17 1
    11    6   15 1
    12    6   18 1
    13    6   20 1
    14    7   17 2
    15    7   19 1
    16    8   16 1
    17    8   23 2
    18    9   22 2
    19    9   23 1
    20   10   22 1
    21   11   12 1
    22   11   15 1
    23   12   13 1
    24   13   14 1
    25   16   19 2
    26   18   21 1
    27   19   22 1
    28    2   26 1
    29    3   27 1
    30    6   28 1
    31   10   29 1
    32   10   30 1
    33   11   31 1
    34   12   32 1
    35   13   33 1
    36   14   34 1
    37   15   35 1
    38   15   36 1
    39   17   37 1
    40   18   38 1
    41   18   39 1
    42   20   40 1
    43   20   41 1
    44   20   42 1
    45   21   43 1
    46   21   44 1
    47   23   45 1
    48   24   46 1
    49   24   47 1
@<TRIPOS>PROPERTY_DATA
  Total_Score	| 10.6276
  Crash		| -1.3181
  Polar		| 7.9521
  FragIndex	| 1
  FragRMSD	| 0.315

