@<TRIPOS>MOLECULE
BindingDB_28449
 55 57 0 0 0
SMALL
NO_CHARGES


@<TRIPOS>ATOM
1    O       -26.0229   -4.9587   37.7085  O     
2    O       -22.8853   -4.6734   37.3130  O     
3    O       -23.8396   -2.0899   37.3786  O     
4    C       -29.8102   -7.0249   41.8435  C     
5    N       -26.9097   -2.7974   37.1863  N     
6    N       -26.4653   -6.7909   40.1643  N     
7    N       -28.4916   -1.3604   36.5680  N     
8    N       -27.9134   -3.3429   39.3759  N     
9    N       -29.9460   -2.2239   39.8213  N     
10   N       -30.8981   -0.7440   38.2865  N     
11   C       -24.9102   -5.4497   38.4700  C     
12   C       -23.7911   -4.3713   38.3864  C     
13   C       -24.5900   -3.0869   38.0791  C     
14   C       -25.7342   -3.6357   37.2084  C     
15   C       -25.3904   -5.7528   39.9235  C     
16   C       -27.8341   -2.7353   38.1628  C     
17   C       -27.3208   -1.9329   36.2170  C     
18   C       -27.2867   -6.4295   41.3875  C     
19   C       -28.8251   -1.8486   37.7651  C     
20   C       -28.3200   -7.4726   41.9278  C     
21   C       -29.9119   -1.5915   38.6194  C     
22   C       -28.9604   -3.0852   40.2093  C     
23   N       -30.2922   -6.7752   40.4770  N     
24   C       -26.6413   -1.5250   34.9631  C     
25   C       -27.3021   -7.1421   38.9742  C     
26   C       -26.3007   -0.0179   34.9680  C     
27   H       -22.0231   -4.2946   37.5908  H     
28   H       -22.8951   -2.2896   37.5448  H     
29   H       -30.4334   -7.8008   42.2875  H     
30   H       -29.9469   -6.1056   42.4214  H     
31   H       -25.9742   -7.6566   40.4165  H     
32   H       -30.8761   -0.2859   37.4317  H     
33   H       -31.6204   -0.5694   38.9141  H     
34   H       -24.5447   -6.3787   38.0429  H     
35   H       -23.2234   -4.2922   39.3247  H     
36   H       -24.9721   -2.6596   39.0130  H     
37   H       -25.3639   -3.7941   36.1902  H     
38   H       -25.6696   -4.7903   40.3748  H     
39   H       -24.5200   -6.1103   40.4808  H     
40   H       -26.5895   -6.2023   42.2133  H     
41   H       -27.8115   -5.4827   41.1845  H     
42   H       -28.1078   -7.6680   42.9827  H     
43   H       -28.1904   -8.4215   41.4138  H     
44   H       -29.0098   -3.5250   41.1318  H     
45   H       -29.7321   -6.0407   40.0402  H     
46   H       -31.2754   -6.4795   40.5018  H     
47   H       -30.2154   -7.6342   39.9289  H     
48   H       -25.7149   -2.0816   34.8040  H     
49   H       -27.3035   -1.7486   34.1196  H     
50   H       -27.8638   -6.2685   38.6410  H     
51   H       -27.9962   -7.9545   39.1911  H     
52   H       -26.6727   -7.5057   38.1649  H     
53   H       -27.2107    0.5782   35.0308  H     
54   H       -25.7756    0.2481   34.0520  H     
55   H       -25.6603    0.2183   35.8170  H     
@<TRIPOS>BOND
     1    1   11 1
     2    1   14 1
     3   12    2 1
     4   13    3 1
     5    4   20 1
     6    4   23 1
     7   14    5 1
     8    5   16 1
     9    5   17 1
    10    6   15 1
    11    6   18 1
    12    6   25 1
    13    7   17 2
    14    7   19 1
    15    8   16 1
    16    8   22 2
    17    9   21 2
    18    9   22 1
    19   10   21 1
    20   11   12 1
    21   11   15 1
    22   12   13 1
    23   13   14 1
    24   16   19 2
    25   17   24 1
    26   18   20 1
    27   19   21 1
    28   24   26 1
    29    2   27 1
    30    3   28 1
    31    4   29 1
    32    4   30 1
    33    6   31 1
    34   10   32 1
    35   10   33 1
    36   11   34 1
    37   12   35 1
    38   13   36 1
    39   14   37 1
    40   15   38 1
    41   15   39 1
    42   18   40 1
    43   18   41 1
    44   20   42 1
    45   20   43 1
    46   22   44 1
    47   23   45 1
    48   23   46 1
    49   23   47 1
    50   24   48 1
    51   24   49 1
    52   25   50 1
    53   25   51 1
    54   25   52 1
    55   26   53 1
    56   26   54 1
    57   26   55 1
@<TRIPOS>PROPERTY_DATA
  Total_Score	| 12.2269
  Crash		| -1.5486
  Polar		| 8.2470
  FragIndex	| 1
  FragRMSD	| 0.321

