@<TRIPOS>MOLECULE
BindingDB_28433
 53 55 0 0 0
SMALL
NO_CHARGES


@<TRIPOS>ATOM
1    O       -25.9655   -4.9970   37.6417  O     
2    O       -22.9047   -4.7070   37.2641  O     
3    O       -23.8117   -2.1331   37.2300  O     
4    C       -29.7318   -6.6651   41.6720  C     
5    N       -26.9213   -2.8494   37.1136  N     
6    N       -26.4449   -6.6702   40.2481  N     
7    N       -28.3828   -1.2449   36.5947  N     
8    N       -28.1848   -3.7132   39.0658  N     
9    N       -30.1882   -2.5477   39.5210  N     
10   N       -30.8766   -0.7393   38.2013  N     
11   C       -24.8897   -5.4046   38.5208  C     
12   C       -23.7799   -4.3470   38.3383  C     
13   C       -24.5771   -3.0869   37.9681  C     
14   C       -25.7342   -3.6714   37.1291  C     
15   C       -25.4333   -5.5688   39.9732  C     
16   C       -27.9446   -2.9091   37.9953  C     
17   C       -27.2118   -1.8285   36.2531  C     
18   C       -27.2269   -6.3738   41.5072  C     
19   C       -28.8435   -1.8959   37.6694  C     
20   C       -27.2914   -7.0583   39.0827  C     
21   C       -28.4321   -7.2932   41.8755  C     
22   C       -29.9948   -1.7202   38.4568  C     
23   C       -29.3067   -3.5391   39.8178  C     
24   N       -30.4995   -6.9935   40.6503  N     
25   O       -30.1445   -5.8009   42.4347  O     
26   C       -26.3960   -1.3869   35.0975  C     
27   C       -26.3732    0.1388   34.8486  C     
28   H       -22.0020   -4.6172   37.6337  H     
29   H       -22.8686   -2.3381   37.3974  H     
30   H       -25.8951   -7.5091   40.4539  H     
31   H       -30.7517   -0.1438   37.4458  H     
32   H       -31.6338   -0.5966   38.8000  H     
33   H       -24.5102   -6.3772   38.2010  H     
34   H       -23.1939   -4.1843   39.2402  H     
35   H       -24.9570   -2.6022   38.8719  H     
36   H       -25.3989   -3.8169   36.1018  H     
37   H       -25.8396   -4.5965   40.2627  H     
38   H       -24.5837   -5.7709   40.6283  H     
39   H       -26.5334   -6.4038   42.3598  H     
40   H       -27.6109   -5.3469   41.4534  H     
41   H       -27.9779   -6.2582   38.8166  H     
42   H       -27.8552   -7.9636   39.2839  H     
43   H       -26.6791   -7.3135   38.2180  H     
44   H       -28.3464   -7.6207   42.9157  H     
45   H       -28.3957   -8.1904   41.2535  H     
46   H       -29.4891   -4.1386   40.6251  H     
47   H       -31.3697   -6.5696   40.5283  H     
48   H       -30.1998   -7.6804   40.0234  H     
49   H       -25.3648   -1.7060   35.2503  H     
50   H       -26.7763   -1.8853   34.1939  H     
51   H       -27.3791    0.5257   34.6726  H     
52   H       -25.7546    0.3588   33.9739  H     
53   H       -25.9420    0.6493   35.7155  H     
@<TRIPOS>BOND
     1    1   11 1
     2    1   14 1
     3   12    2 1
     4   13    3 1
     5    4   21 1
     6    4   24 am
     7    4   25 2
     8   14    5 1
     9    5   16 1
    10    5   17 1
    11    6   15 1
    12    6   18 1
    13    6   20 1
    14    7   17 2
    15    7   19 1
    16    8   16 1
    17    8   23 2
    18    9   22 2
    19    9   23 1
    20   10   22 1
    21   11   12 1
    22   11   15 1
    23   12   13 1
    24   13   14 1
    25   16   19 2
    26   17   26 1
    27   18   21 1
    28   19   22 1
    29   26   27 1
    30    2   28 1
    31    3   29 1
    32    6   30 1
    33   10   31 1
    34   10   32 1
    35   11   33 1
    36   12   34 1
    37   13   35 1
    38   14   36 1
    39   15   37 1
    40   15   38 1
    41   18   39 1
    42   18   40 1
    43   20   41 1
    44   20   42 1
    45   20   43 1
    46   21   44 1
    47   21   45 1
    48   23   46 1
    49   24   47 1
    50   24   48 1
    51   26   49 1
    52   26   50 1
    53   27   51 1
    54   27   52 1
    55   27   53 1
@<TRIPOS>PROPERTY_DATA
  Total_Score	| 11.0657
  Crash		| -1.5554
  Polar		| 7.9182
  FragIndex	| 1
  FragRMSD	| 0.215

