@<TRIPOS>MOLECULE
BindingDB_28452
 43 45 0 0 0
SMALL
NO_CHARGES


@<TRIPOS>ATOM
1    O       -26.0415   -5.0317   37.7455  O     
2    O       -22.8655   -4.6661   37.2487  O     
3    O       -23.8444   -2.1337   37.4000  O     
4    N       -26.9144   -2.8669   37.2160  N     
5    N       -26.6550   -6.3728   40.0299  N     
6    N       -28.3975   -1.3166   36.6049  N     
7    N       -28.2247   -3.7671   39.1332  N     
8    N       -30.2544   -2.5958   39.4951  N     
9    N       -30.8941   -0.7621   38.1707  N     
10   C       -24.8644   -5.5109   38.4425  C     
11   C       -23.7512   -4.4194   38.3444  C     
12   C       -24.5901   -3.1413   38.0908  C     
13   C       -25.7441   -3.7194   37.2228  C     
14   C       -25.2513   -5.8708   39.9159  C     
15   C       -27.9691   -2.9451   38.0690  C     
16   C       -27.2159   -1.8967   36.3013  C     
17   C       -26.9055   -7.6675   39.3033  C     
18   C       -28.8718   -1.9438   37.6893  C     
19   C       -30.0382   -1.7578   38.4476  C     
20   C       -29.3764   -3.5870   39.8338  C     
21   C       -27.1318   -6.4536   41.4510  C     
22   C       -26.4198   -1.4858   35.1287  C     
23   H       -22.0236   -4.2583   37.5345  H     
24   H       -22.9024   -2.3354   37.5680  H     
25   H       -27.2519   -5.6657   39.5835  H     
26   H       -30.6863   -0.1549   37.4421  H     
27   H       -31.6757   -0.6055   38.7342  H     
28   H       -24.5238   -6.4146   37.9431  H     
29   H       -23.1623   -4.3352   39.2695  H     
30   H       -24.9615   -2.7417   39.0535  H     
31   H       -25.4054   -3.8715   36.1866  H     
32   H       -25.1263   -4.9673   40.5439  H     
33   H       -24.5553   -6.6280   40.3091  H     
34   H       -26.4814   -7.6451   38.2952  H     
35   H       -27.9790   -7.8157   39.1971  H     
36   H       -26.4791   -8.5253   39.8342  H     
37   H       -29.5577   -4.1951   40.6314  H     
38   H       -26.5764   -7.2075   42.0309  H     
39   H       -28.2079   -6.6917   41.4613  H     
40   H       -27.0127   -5.4802   41.9411  H     
41   H       -25.4678   -1.0526   35.4623  H     
42   H       -26.9620   -0.7350   34.5416  H     
43   H       -26.2302   -2.3626   34.4945  H     
@<TRIPOS>BOND
     1    1   10 1
     2    1   13 1
     3   11    2 1
     4   12    3 1
     5   13    4 1
     6    4   15 1
     7    4   16 1
     8    5   14 1
     9    5   17 1
    10    5   21 1
    11    6   16 2
    12    6   18 1
    13    7   15 1
    14    7   20 2
    15    8   19 2
    16    8   20 1
    17    9   19 1
    18   10   11 1
    19   10   14 1
    20   11   12 1
    21   12   13 1
    22   15   18 2
    23   16   22 1
    24   18   19 1
    25    2   23 1
    26    3   24 1
    27    5   25 1
    28    9   26 1
    29    9   27 1
    30   10   28 1
    31   11   29 1
    32   12   30 1
    33   13   31 1
    34   14   32 1
    35   14   33 1
    36   17   34 1
    37   17   35 1
    38   17   36 1
    39   20   37 1
    40   21   38 1
    41   21   39 1
    42   21   40 1
    43   22   41 1
    44   22   42 1
    45   22   43 1
@<TRIPOS>PROPERTY_DATA
  Total_Score	| 9.4262
  Crash		| -1.4358
  Polar		| 5.8999
  FragIndex	| 1
  FragRMSD	| 0.091

