@<TRIPOS>MOLECULE
BindingDB_28448
 52 54 0 0 0
SMALL
NO_CHARGES


@<TRIPOS>ATOM
1    O       -26.0773   -4.8943   37.7460  O     
2    O       -22.9014   -4.6850   37.2829  O     
3    O       -23.8121   -2.1016   37.3438  O     
4    C       -29.8068   -6.9819   41.8650  C     
5    N       -26.8971   -2.7518   37.1946  N     
6    N       -26.4421   -6.7814   40.2053  N     
7    N       -28.3996   -1.2439   36.5452  N     
8    N       -28.0996   -3.4721   39.2308  N     
9    N       -30.1533   -2.3571   39.5749  N     
10   N       -30.9168   -0.7011   38.1097  N     
11   C       -24.9345   -5.4288   38.4573  C     
12   C       -23.7951   -4.3784   38.3565  C     
13   C       -24.5645   -3.0752   38.0619  C     
14   C       -25.7418   -3.6094   37.2132  C     
15   C       -25.3807   -5.7434   39.9272  C     
16   C       -27.8986   -2.7571   38.0949  C     
17   C       -27.2218   -1.8304   36.2480  C     
18   C       -27.2722   -6.4099   41.4071  C     
19   C       -28.8339   -1.8119   37.6773  C     
20   C       -28.3224   -7.4571   41.9086  C     
21   C       -29.9900   -1.6112   38.4506  C     
22   C       -29.2281   -3.2783   39.9691  C     
23   N       -30.3005   -6.7775   40.4949  N     
24   C       -26.4291   -1.4453   35.0632  C     
25   C       -27.2647   -7.1531   39.0135  C     
26   H       -22.0426   -4.2938   37.5502  H     
27   H       -22.8616   -2.2705   37.5441  H     
28   H       -30.4367   -7.7444   42.3407  H     
29   H       -29.9137   -6.0453   42.4211  H     
30   H       -25.9489   -7.6394   40.4617  H     
31   H       -30.7880   -0.1540   37.3138  H     
32   H       -31.6930   -0.5545   38.6796  H     
33   H       -24.6083   -6.3646   37.9984  H     
34   H       -23.2106   -4.2941   39.2897  H     
35   H       -24.9249   -2.6367   39.0068  H     
36   H       -25.3822   -3.7807   36.1953  H     
37   H       -25.6486   -4.7794   40.3961  H     
38   H       -24.4786   -6.0949   40.4618  H     
39   H       -26.5851   -6.2393   42.2391  H     
40   H       -27.7713   -5.4601   41.2163  H     
41   H       -28.1059   -7.7013   42.9562  H     
42   H       -28.2312   -8.3920   41.3460  H     
43   H       -29.3816   -3.8169   40.8188  H     
44   H       -29.7484   -6.0489   40.0376  H     
45   H       -31.2847   -6.4977   40.5164  H     
46   H       -30.2108   -7.6533   39.9723  H     
47   H       -25.4408   -1.1126   35.3724  H     
48   H       -26.9171   -0.6342   34.5215  H     
49   H       -26.3283   -2.2978   34.3935  H     
50   H       -27.7753   -6.2770   38.6137  H     
51   H       -28.0052   -7.9206   39.2505  H     
52   H       -26.6346   -7.5866   38.2387  H     
@<TRIPOS>BOND
     1    1   11 1
     2    1   14 1
     3   12    2 1
     4   13    3 1
     5    4   20 1
     6    4   23 1
     7   14    5 1
     8    5   16 1
     9    5   17 1
    10    6   15 1
    11    6   18 1
    12    6   25 1
    13    7   17 2
    14    7   19 1
    15    8   16 1
    16    8   22 2
    17    9   21 2
    18    9   22 1
    19   10   21 1
    20   11   12 1
    21   11   15 1
    22   12   13 1
    23   13   14 1
    24   16   19 2
    25   17   24 1
    26   18   20 1
    27   19   21 1
    28    2   26 1
    29    3   27 1
    30    4   28 1
    31    4   29 1
    32    6   30 1
    33   10   31 1
    34   10   32 1
    35   11   33 1
    36   12   34 1
    37   13   35 1
    38   14   36 1
    39   15   37 1
    40   15   38 1
    41   18   39 1
    42   18   40 1
    43   20   41 1
    44   20   42 1
    45   22   43 1
    46   23   44 1
    47   23   45 1
    48   23   46 1
    49   24   47 1
    50   24   48 1
    51   24   49 1
    52   25   50 1
    53   25   51 1
    54   25   52 1
@<TRIPOS>PROPERTY_DATA
  Total_Score	| 12.3144
  Crash		| -1.5443
  Polar		| 8.2828
  FragIndex	| 1
  FragRMSD	| 0.254

