@<TRIPOS>MOLECULE
BindingDB_28429
 59 61 0 0 0
SMALL
NO_CHARGES


@<TRIPOS>ATOM
1    O       -26.1299   -5.0553   37.9619  O     
2    O       -23.1099   -4.0262   39.6814  O     
3    O       -23.4084   -3.4529   37.0075  O     
4    C       -29.6126   -7.3019   42.4151  C     
5    N       -26.9640   -2.9794   37.1913  N     
6    N       -26.4576   -7.2845   40.0340  N     
7    N       -28.3693   -1.3359   36.6237  N     
8    N       -28.3146   -3.7922   39.1013  N     
9    N       -30.2792   -2.5788   39.4913  N     
10   N       -30.8762   -0.7469   38.1506  N     
11   C       -30.5495   -6.2280   43.0355  C     
12   C       -25.0719   -5.3239   38.9003  C     
13   C       -24.4528   -3.9398   39.2023  C     
14   C       -24.5637   -3.2212   37.8337  C     
15   C       -25.8297   -3.8700   37.2050  C     
16   C       -25.6425   -6.0268   40.1755  C     
17   C       -28.0046   -3.0019   38.0432  C     
18   C       -27.2130   -1.9661   36.3172  C     
19   C       -27.3294   -7.5884   41.2295  C     
20   C       -28.8664   -1.9694   37.6890  C     
21   C       -27.1913   -7.4195   38.7426  C     
22   C       -26.4176   -1.5571   35.1377  C     
23   C       -28.5899   -6.6971   41.4227  C     
24   C       -30.0314   -1.7500   38.4424  C     
25   C       -29.4452   -3.5968   39.8232  C     
26   O       -30.7581   -6.4873   44.4278  O     
27   N       -31.8352   -7.2961   44.6457  N     
28   C       -26.1694   -0.0280   35.0617  C     
29   H       -23.1553   -4.6786   40.4146  H     
30   H       -22.6982   -2.8932   37.3909  H     
31   H       -29.0727   -7.8257   43.2139  H     
32   H       -30.2249   -8.0539   41.9027  H     
33   H       -25.7604   -8.0445   40.0156  H     
34   H       -30.6791   -0.1579   37.4086  H     
35   H       -31.6582   -0.5829   38.7042  H     
36   H       -30.0836   -5.2481   42.9811  H     
37   H       -31.4919   -6.1529   42.4695  H     
38   H       -24.3290   -5.9776   38.4206  H     
39   H       -25.0615   -3.3884   39.9344  H     
40   H       -24.6755   -2.1335   37.9851  H     
41   H       -25.6242   -4.2059   36.1927  H     
42   H       -26.2145   -5.2689   40.7379  H     
43   H       -24.7683   -6.2935   40.7973  H     
44   H       -27.6413   -8.6330   41.1549  H     
45   H       -26.7064   -7.5241   42.1249  H     
46   H       -27.8752   -6.5799   38.5950  H     
47   H       -27.7556   -8.3601   38.7042  H     
48   H       -26.4799   -7.4564   37.9150  H     
49   H       -25.4460   -2.0571   35.1228  H     
50   H       -26.9559   -1.8620   34.2345  H     
51   H       -29.0838   -6.5398   40.4668  H     
52   H       -28.2789   -5.7277   41.8009  H     
53   H       -29.6632   -4.2120   40.6068  H     
54   H       -32.6975   -6.7836   44.4434  H     
55   H       -31.8442   -7.5861   45.6278  H     
56   H       -31.7819   -8.1296   44.0477  H     
57   H       -27.1147    0.5282   35.1092  H     
58   H       -25.6687    0.2178   34.1184  H     
59   H       -25.5266    0.2897   35.8967  H     
@<TRIPOS>BOND
     1    1   12 1
     2    1   15 1
     3   13    2 1
     4   14    3 1
     5    4   11 1
     6    4   23 1
     7   15    5 1
     8    5   17 1
     9    5   18 1
    10    6   16 1
    11    6   19 1
    12    6   21 1
    13    7   18 2
    14    7   20 1
    15    8   17 1
    16    8   25 2
    17    9   24 2
    18    9   25 1
    19   10   24 1
    20   11   26 1
    21   12   13 1
    22   12   16 1
    23   13   14 1
    24   14   15 1
    25   17   20 2
    26   18   22 1
    27   19   23 1
    28   20   24 1
    29   22   28 1
    30   26   27 1
    31    2   29 1
    32    3   30 1
    33    4   31 1
    34    4   32 1
    35    6   33 1
    36   10   34 1
    37   10   35 1
    38   11   36 1
    39   11   37 1
    40   12   38 1
    41   13   39 1
    42   14   40 1
    43   15   41 1
    44   16   42 1
    45   16   43 1
    46   19   44 1
    47   19   45 1
    48   21   46 1
    49   21   47 1
    50   21   48 1
    51   22   49 1
    52   22   50 1
    53   23   51 1
    54   23   52 1
    55   25   53 1
    56   27   54 1
    57   27   55 1
    58   27   56 1
    59   28   57 1
    60   28   58 1
    61   28   59 1
@<TRIPOS>PROPERTY_DATA
  Total_Score	| 10.1909
  Crash		| -2.1272
  Polar		| 6.1679
  FragIndex	| 1
  FragRMSD	| 0.763

