@<TRIPOS>MOLECULE
BindingDB_28436
 52 54 0 0 0
SMALL
NO_CHARGES


@<TRIPOS>ATOM
1    O       -25.9353   -4.8171   37.5443  O     
2    O       -22.8581   -4.5184   37.2752  O     
3    O       -23.7696   -1.9130   37.4673  O     
4    C       -28.8071   -6.5235   41.4831  C     
5    N       -26.8555   -2.6576   37.1316  N     
6    N       -26.0129   -6.9811   40.0052  N     
7    N       -28.4738   -1.2641   36.4859  N     
8    N       -27.8447   -3.2055   39.3224  N     
9    N       -29.9097   -2.1519   39.7463  N     
10   N       -30.8931   -0.6914   38.2165  N     
11   C       -24.8830   -5.2864   38.4166  C     
12   C       -23.7586   -4.2243   38.3558  C     
13   C       -24.5516   -2.9391   38.0764  C     
14   C       -25.6614   -3.4637   37.1431  C     
15   C       -25.4953   -5.5814   39.8302  C     
16   C       -27.7874   -2.6101   38.1041  C     
17   C       -27.2859   -1.8130   36.1520  C     
18   C       -26.3769   -7.3362   41.4254  C     
19   C       -28.8003   -1.7468   37.6887  C     
20   C       -27.0666   -7.3550   39.0059  C     
21   C       -27.8718   -7.5863   41.8125  C     
22   C       -29.8959   -1.5307   38.5381  C     
23   C       -28.9001   -2.9785   40.1430  C     
24   N       -29.9472   -6.7927   40.8587  N     
25   O       -28.5730   -5.3993   41.9045  O     
26   C       -26.5928   -1.4464   34.8982  C     
27   N       -30.8476   -5.9288   40.6311  N     
28   H       -21.9934   -4.1405   37.5232  H     
29   H       -22.8294   -2.1849   37.6052  H     
30   H       -25.2085   -7.5703   39.7809  H     
31   H       -30.8793   -0.2205   37.3633  H     
32   H       -31.6126   -0.5288   38.8501  H     
33   H       -24.4756   -6.2132   38.0098  H     
34   H       -23.1805   -4.1635   39.2865  H     
35   H       -24.9597   -2.5548   39.0209  H     
36   H       -25.2413   -3.5319   36.1373  H     
37   H       -26.3071   -4.8867   40.0400  H     
38   H       -24.7195   -5.3926   40.5821  H     
39   H       -25.8409   -8.2649   41.6495  H     
40   H       -25.9662   -6.5919   42.1178  H     
41   H       -27.9449   -6.7075   39.0950  H     
42   H       -27.3775   -8.3895   39.1567  H     
43   H       -26.6947   -7.2666   37.9913  H     
44   H       -27.9186   -7.7426   42.8905  H     
45   H       -28.1904   -8.5256   41.3473  H     
46   H       -28.9387   -3.4126   41.0617  H     
47   H       -30.1060   -7.7021   40.5563  H     
48   H       -25.6270   -0.9918   35.1343  H     
49   H       -27.1905   -0.7252   34.3327  H     
50   H       -26.4345   -2.3317   34.2792  H     
51   H       -31.6703   -6.1932   40.2698  H     
52   H       -30.7281   -5.0422   40.9170  H     
@<TRIPOS>BOND
     1    1   11 1
     2    1   14 1
     3   12    2 1
     4   13    3 1
     5    4   21 1
     6    4   24 am
     7    4   25 2
     8   14    5 1
     9    5   16 1
    10    5   17 1
    11    6   15 1
    12    6   18 1
    13    6   20 1
    14    7   17 2
    15    7   19 1
    16    8   16 1
    17    8   23 2
    18    9   22 2
    19    9   23 1
    20   10   22 1
    21   11   12 1
    22   11   15 1
    23   12   13 1
    24   13   14 1
    25   16   19 2
    26   17   26 1
    27   18   21 1
    28   19   22 1
    29   24   27 1
    30    2   28 1
    31    3   29 1
    32    6   30 1
    33   10   31 1
    34   10   32 1
    35   11   33 1
    36   12   34 1
    37   13   35 1
    38   14   36 1
    39   15   37 1
    40   15   38 1
    41   18   39 1
    42   18   40 1
    43   20   41 1
    44   20   42 1
    45   20   43 1
    46   21   44 1
    47   21   45 1
    48   23   46 1
    49   24   47 1
    50   26   48 1
    51   26   49 1
    52   26   50 1
    53   27   51 1
    54   27   52 1
@<TRIPOS>PROPERTY_DATA
  Total_Score	| 10.1427
  Crash		| -2.0498
  Polar		| 7.9739
  FragIndex	| 1
  FragRMSD	| 0.583

