@<TRIPOS>MOLECULE
BindingDB_28428
 56 58 0 0 0
SMALL
NO_CHARGES


@<TRIPOS>ATOM
1    O       -26.0655   -4.9056   37.7121  O     
2    O       -22.8910   -4.6363   37.3376  O     
3    O       -23.8271   -2.0922   37.2254  O     
4    C       -29.6608   -7.3315   42.3369  C     
5    N       -26.9360   -2.7495   37.1573  N     
6    N       -26.4111   -6.7828   40.2210  N     
7    N       -28.4234   -1.2055   36.5417  N     
8    N       -28.1681   -3.5083   39.1618  N     
9    N       -30.2000   -2.3688   39.5338  N     
10   N       -30.9395   -0.6577   38.1242  N     
11   C       -30.1038   -7.7700   43.7655  C     
12   C       -24.9444   -5.3828   38.4753  C     
13   C       -23.8215   -4.3054   38.3741  C     
14   C       -24.5886   -3.0270   37.9978  C     
15   C       -25.7699   -3.6006   37.1811  C     
16   C       -25.4155   -5.6719   39.9374  C     
17   C       -27.9508   -2.7630   38.0460  C     
18   C       -27.2427   -1.7873   36.2416  C     
19   C       -27.5126   -6.3946   41.1729  C     
20   C       -28.8744   -1.7983   37.6518  C     
21   C       -26.9580   -7.4949   39.0234  C     
22   C       -26.4457   -1.3650   35.0749  C     
23   C       -28.1554   -7.5545   41.9955  C     
24   C       -30.0291   -1.5974   38.4277  C     
25   C       -29.2950   -3.3142   39.9018  C     
26   O       -30.7052   -6.6617   44.4649  O     
27   N       -32.0100   -6.8686   44.8040  N     
28   H       -22.0420   -4.2324   37.6195  H     
29   H       -22.8821   -2.2639   37.4305  H     
30   H       -30.2529   -7.8815   41.6011  H     
31   H       -29.9198   -6.2774   42.2030  H     
32   H       -25.8642   -7.4962   40.7153  H     
33   H       -30.8209   -0.0994   37.3377  H     
34   H       -31.6957   -0.5030   38.7158  H     
35   H       -30.7687   -8.6386   43.7006  H     
36   H       -29.2399   -8.0798   44.3583  H     
37   H       -24.5659   -6.3052   38.0318  H     
38   H       -23.2742   -4.1854   39.3150  H     
39   H       -24.9466   -2.5298   38.9057  H     
40   H       -25.4306   -3.7663   36.1536  H     
41   H       -25.7745   -4.7200   40.3342  H     
42   H       -24.5240   -5.9199   40.5159  H     
43   H       -27.1417   -5.6779   41.9139  H     
44   H       -28.2891   -5.8673   40.6050  H     
45   H       -27.5176   -6.8027   38.3857  H     
46   H       -27.6196   -8.3217   39.3070  H     
47   H       -26.1518   -7.9379   38.4434  H     
48   H       -25.4608   -1.0287   35.4013  H     
49   H       -26.9400   -0.5420   34.5568  H     
50   H       -26.3303   -2.1963   34.3784  H     
51   H       -27.5712   -7.6708   42.9147  H     
52   H       -28.0621   -8.5007   41.4500  H     
53   H       -29.4586   -3.8712   40.7401  H     
54   H       -32.5316   -7.2469   44.0071  H     
55   H       -32.4369   -5.9809   45.0873  H     
56   H       -32.0557   -7.5242   45.5915  H     
@<TRIPOS>BOND
     1    1   12 1
     2    1   15 1
     3   13    2 1
     4   14    3 1
     5    4   11 1
     6    4   23 1
     7   15    5 1
     8    5   17 1
     9    5   18 1
    10    6   16 1
    11    6   19 1
    12    6   21 1
    13    7   18 2
    14    7   20 1
    15    8   17 1
    16    8   25 2
    17    9   24 2
    18    9   25 1
    19   10   24 1
    20   11   26 1
    21   12   13 1
    22   12   16 1
    23   13   14 1
    24   14   15 1
    25   17   20 2
    26   18   22 1
    27   19   23 1
    28   20   24 1
    29   26   27 1
    30    2   28 1
    31    3   29 1
    32    4   30 1
    33    4   31 1
    34    6   32 1
    35   10   33 1
    36   10   34 1
    37   11   35 1
    38   11   36 1
    39   12   37 1
    40   13   38 1
    41   14   39 1
    42   15   40 1
    43   16   41 1
    44   16   42 1
    45   19   43 1
    46   19   44 1
    47   21   45 1
    48   21   46 1
    49   21   47 1
    50   22   48 1
    51   22   49 1
    52   22   50 1
    53   23   51 1
    54   23   52 1
    55   25   53 1
    56   27   54 1
    57   27   55 1
    58   27   56 1
@<TRIPOS>PROPERTY_DATA
  Total_Score	| 11.8563
  Crash		| -2.0852
  Polar		| 8.0319
  FragIndex	| 1
  FragRMSD	| 0.324

