@<TRIPOS>MOLECULE
BindingDB_28438
 49 51 0 0 0
SMALL
NO_CHARGES


@<TRIPOS>ATOM
1    O       -25.9547   -4.8965   37.6751  O     
2    O       -22.8823   -4.6447   37.4780  O     
3    O       -23.7663   -1.9891   37.8761  O     
4    N       -29.5190   -5.9475   41.1231  N     
5    N       -26.8135   -2.7224   37.2514  N     
6    N       -26.4412   -7.0020   39.9795  N     
7    N       -28.3694   -1.3118   36.5097  N     
8    N       -27.9162   -3.1969   39.4194  N     
9    N       -29.9617   -2.0774   39.7289  N     
10   N       -30.8526   -0.6469   38.1197  N     
11   C       -24.9171   -5.4495   38.5113  C     
12   C       -23.7898   -4.3871   38.5560  C     
13   C       -24.5660   -3.0805   38.3322  C     
14   C       -25.6291   -3.5447   37.3169  C     
15   C       -25.5263   -5.8081   39.9056  C     
16   C       -27.7776   -2.6269   38.1918  C     
17   C       -27.1879   -1.8990   36.2342  C     
18   C       -27.2746   -7.0433   41.2366  C     
19   C       -28.7497   -1.7520   37.7142  C     
20   C       -27.2567   -7.2615   38.7576  C     
21   C       -28.2293   -5.9532   41.4328  C     
22   C       -29.8752   -1.4771   38.5103  C     
23   C       -29.0039   -2.9216   40.1881  C     
24   C       -26.4523   -1.6078   34.9878  C     
25   O       -27.8084   -4.8968   41.8900  O     
26   N       -30.1678   -6.8964   40.6009  N     
27   H       -22.0475   -4.1751   37.6709  H     
28   H       -22.8715   -2.3393   37.6871  H     
29   H       -30.0165   -5.1348   41.3165  H     
30   H       -25.8181   -7.8110   40.0510  H     
31   H       -30.8069   -0.2094   37.2522  H     
32   H       -31.5944   -0.4550   38.7187  H     
33   H       -24.5389   -6.3699   38.0581  H     
34   H       -23.2391   -4.3812   39.5026  H     
35   H       -25.0435   -2.7735   39.2684  H     
36   H       -25.1532   -3.5996   36.3334  H     
37   H       -26.0539   -4.9162   40.2549  H     
38   H       -24.6984   -5.9889   40.6056  H     
39   H       -27.8085   -7.9936   41.2937  H     
40   H       -26.5863   -7.0586   42.0908  H     
41   H       -27.8905   -6.4026   38.5220  H     
42   H       -27.8839   -8.1433   38.8919  H     
43   H       -26.6134   -7.4776   37.9047  H     
44   H       -29.1020   -3.3352   41.1110  H     
45   H       -25.4457   -1.2445   35.2269  H     
46   H       -26.9752   -0.8434   34.4030  H     
47   H       -26.3745   -2.5145   34.3852  H     
48   H       -31.0832   -6.7879   40.4210  H     
49   H       -29.7459   -7.6998   40.3742  H     
@<TRIPOS>BOND
     1    1   11 1
     2    1   14 1
     3   12    2 1
     4   13    3 1
     5    4   21 am
     6    4   26 1
     7   14    5 1
     8    5   16 1
     9    5   17 1
    10    6   15 1
    11    6   18 1
    12    6   20 1
    13    7   17 2
    14    7   19 1
    15    8   16 1
    16    8   23 2
    17    9   22 2
    18    9   23 1
    19   10   22 1
    20   11   12 1
    21   11   15 1
    22   12   13 1
    23   13   14 1
    24   16   19 2
    25   17   24 1
    26   18   21 1
    27   19   22 1
    28   21   25 2
    29    2   27 1
    30    3   28 1
    31    4   29 1
    32    6   30 1
    33   10   31 1
    34   10   32 1
    35   11   33 1
    36   12   34 1
    37   13   35 1
    38   14   36 1
    39   15   37 1
    40   15   38 1
    41   18   39 1
    42   18   40 1
    43   20   41 1
    44   20   42 1
    45   20   43 1
    46   23   44 1
    47   24   45 1
    48   24   46 1
    49   24   47 1
    50   26   48 1
    51   26   49 1
@<TRIPOS>PROPERTY_DATA
  Total_Score	| 9.8768
  Crash		| -1.8017
  Polar		| 7.5565
  FragIndex	| 1
  FragRMSD	| 0.500

