@<TRIPOS>MOLECULE
BindingDB_28437
 49 51 0 0 0
SMALL
NO_CHARGES


@<TRIPOS>ATOM
1    O       -26.1332   -4.9228   38.2283  O     
2    O       -22.8331   -4.8238   37.4623  O     
3    O       -23.9049   -2.3939   36.9771  O     
4    C       -29.0111   -7.2480   42.4505  C     
5    N       -27.0071   -2.9019   37.2831  N     
6    N       -26.2424   -6.8047   40.4939  N     
7    N       -28.2604   -1.1311   36.7590  N     
8    N       -28.6260   -3.9232   38.8398  N     
9    N       -30.5427   -2.6204   39.2471  N     
10   N       -30.9047   -0.5882   38.1736  N     
11   C       -24.8954   -5.5143   38.6172  C     
12   C       -23.8133   -4.4173   38.4306  C     
13   C       -24.6042   -3.1849   37.9464  C     
14   C       -25.8877   -3.8056   37.3541  C     
15   C       -24.9739   -6.1234   40.0534  C     
16   C       -28.1665   -2.9893   37.9611  C     
17   C       -27.1024   -1.7782   36.5293  C     
18   C       -27.1918   -5.8719   41.2021  C     
19   C       -28.9254   -1.8610   37.6670  C     
20   C       -26.8521   -7.6805   39.4544  C     
21   C       -28.6804   -6.2917   41.3993  C     
22   C       -30.1463   -1.6823   38.3394  C     
23   C       -29.8154   -3.7530   39.4734  C     
24   N       -28.0928   -7.7922   43.2350  N     
25   O       -30.2001   -7.5058   42.6099  O     
26   N       -28.3536   -8.5903   44.1861  N     
27   H       -22.0242   -4.3080   37.6608  H     
28   H       -22.9792   -2.3495   37.2944  H     
29   H       -25.9451   -7.4541   41.2213  H     
30   H       -30.6335    0.1076   37.5537  H     
31   H       -31.6941   -0.4736   38.7211  H     
32   H       -24.7032   -6.3328   37.9208  H     
33   H       -23.2846   -4.1827   39.3613  H     
34   H       -24.8551   -2.5445   38.8035  H     
35   H       -25.6995   -4.1888   36.3470  H     
36   H       -24.7117   -5.3565   40.7861  H     
37   H       -24.1820   -6.8693   40.1164  H     
38   H       -26.3748   -1.4328   35.8946  H     
39   H       -26.7755   -5.6644   42.1980  H     
40   H       -27.1934   -4.9088   40.6919  H     
41   H       -27.3256   -7.1088   38.6570  H     
42   H       -27.6024   -8.3138   39.9204  H     
43   H       -26.0888   -8.3406   39.0197  H     
44   H       -29.0332   -6.7263   40.4596  H     
45   H       -29.2791   -5.3682   41.5808  H     
46   H       -30.1212   -4.4636   40.1497  H     
47   H       -27.1653   -7.5630   43.1005  H     
48   H       -27.6539   -8.9447   44.7132  H     
49   H       -29.2452   -8.8151   44.3864  H     
@<TRIPOS>BOND
     1    1   11 1
     2    1   14 1
     3   12    2 1
     4   13    3 1
     5    4   21 1
     6    4   24 am
     7    4   25 2
     8   14    5 1
     9    5   16 1
    10    5   17 1
    11    6   15 1
    12    6   18 1
    13    6   20 1
    14    7   17 2
    15    7   19 1
    16    8   16 1
    17    8   23 2
    18    9   22 2
    19    9   23 1
    20   10   22 1
    21   11   12 1
    22   11   15 1
    23   12   13 1
    24   13   14 1
    25   16   19 2
    26   18   21 1
    27   19   22 1
    28   24   26 1
    29    2   27 1
    30    3   28 1
    31    6   29 1
    32   10   30 1
    33   10   31 1
    34   11   32 1
    35   12   33 1
    36   13   34 1
    37   14   35 1
    38   15   36 1
    39   15   37 1
    40   17   38 1
    41   18   39 1
    42   18   40 1
    43   20   41 1
    44   20   42 1
    45   20   43 1
    46   21   44 1
    47   21   45 1
    48   23   46 1
    49   24   47 1
    50   26   48 1
    51   26   49 1
@<TRIPOS>PROPERTY_DATA
  Total_Score	| 8.6761
  Crash		| -2.3523
  Polar		| 6.2306
  FragIndex	| 1
  FragRMSD	| 0.950

