@<TRIPOS>MOLECULE
BindingDB_28432
 50 52 0 0 0
SMALL
NO_CHARGES


@<TRIPOS>ATOM
1    O       -25.9442   -4.8827   37.6422  O     
2    O       -22.8905   -4.6537   37.3090  O     
3    O       -23.7919   -1.9533   37.5515  O     
4    C       -29.7092   -6.6814   41.6577  C     
5    N       -26.8440   -2.7241   37.1917  N     
6    N       -26.4483   -6.6868   40.2198  N     
7    N       -28.3836   -1.2337   36.5793  N     
8    N       -27.9722   -3.4268   39.2693  N     
9    N       -30.0251   -2.3461   39.6759  N     
10   N       -30.8832   -0.7222   38.2347  N     
11   C       -24.8980   -5.3784   38.5048  C     
12   C       -23.7555   -4.3313   38.4106  C     
13   C       -24.5364   -3.0269   38.1385  C     
14   C       -25.6575   -3.5426   37.2133  C     
15   C       -25.4402   -5.5884   39.9517  C     
16   C       -27.8225   -2.7220   38.1183  C     
17   C       -27.2003   -1.7989   36.2612  C     
18   C       -27.1959   -6.4155   41.5088  C     
19   C       -28.7874   -1.7992   37.7244  C     
20   C       -27.3003   -7.0661   39.0504  C     
21   C       -28.4171   -7.3035   41.9081  C     
22   C       -29.9244   -1.6119   38.5341  C     
23   C       -29.0715   -3.2434   40.0448  C     
24   C       -26.4404   -1.3939   35.0645  C     
25   N       -30.4929   -7.0355   40.6628  N     
26   O       -30.1175   -5.8074   42.4074  O     
27   H       -22.0252   -4.2689   37.5196  H     
28   H       -22.8439   -2.2359   37.5438  H     
29   H       -25.8925   -7.5254   40.4048  H     
30   H       -30.8114   -0.1804   37.4312  H     
31   H       -31.6329   -0.5917   38.8374  H     
32   H       -24.5477   -6.3437   38.1288  H     
33   H       -23.1592   -4.2603   39.3270  H     
34   H       -24.9652   -2.6549   39.0736  H     
35   H       -25.2455   -3.6248   36.2093  H     
36   H       -25.8382   -4.6257   40.2904  H     
37   H       -24.5761   -5.8042   40.5949  H     
38   H       -26.4539   -6.5319   42.3036  H     
39   H       -27.5165   -5.3671   41.5534  H     
40   H       -27.9425   -6.2363   38.7375  H     
41   H       -27.9198   -7.9292   39.2856  H     
42   H       -26.6777   -7.3888   38.2137  H     
43   H       -28.3627   -7.5247   42.9752  H     
44   H       -28.3401   -8.2651   41.4037  H     
45   H       -29.1769   -3.7719   40.9115  H     
46   H       -25.4533   -1.0391   35.3596  H     
47   H       -26.9551   -0.5850   34.5398  H     
48   H       -26.3291   -2.2411   34.3875  H     
49   H       -31.3574   -6.6067   40.5400  H     
50   H       -30.2032   -7.7157   40.0423  H     
@<TRIPOS>BOND
     1    1   11 1
     2    1   14 1
     3   12    2 1
     4   13    3 1
     5    4   21 1
     6    4   25 am
     7    4   26 2
     8   14    5 1
     9    5   16 1
    10    5   17 1
    11    6   15 1
    12    6   18 1
    13    6   20 1
    14    7   17 2
    15    7   19 1
    16    8   16 1
    17    8   23 2
    18    9   22 2
    19    9   23 1
    20   10   22 1
    21   11   12 1
    22   11   15 1
    23   12   13 1
    24   13   14 1
    25   16   19 2
    26   17   24 1
    27   18   21 1
    28   19   22 1
    29    2   27 1
    30    3   28 1
    31    6   29 1
    32   10   30 1
    33   10   31 1
    34   11   32 1
    35   12   33 1
    36   13   34 1
    37   14   35 1
    38   15   36 1
    39   15   37 1
    40   18   38 1
    41   18   39 1
    42   20   40 1
    43   20   41 1
    44   20   42 1
    45   21   43 1
    46   21   44 1
    47   23   45 1
    48   24   46 1
    49   24   47 1
    50   24   48 1
    51   25   49 1
    52   25   50 1
@<TRIPOS>PROPERTY_DATA
  Total_Score	| 11.2629
  Crash		| -1.1872
  Polar		| 8.0043
  FragIndex	| 1
  FragRMSD	| 0.265

