@<TRIPOS>MOLECULE
BindingDB_28421
 50 52 0 0 0
SMALL
NO_CHARGES


@<TRIPOS>ATOM
1    O       -26.0144   -4.8882   37.6171  O     
2    O       -22.9347   -4.6343   37.2854  O     
3    O       -23.8223   -2.0304   37.2959  O     
4    O       -29.7552   -6.8520   41.7443  O     
5    N       -26.9172   -2.7273   37.1266  N     
6    N       -26.4585   -6.6876   40.2024  N     
7    N       -28.4186   -1.1848   36.5455  N     
8    N       -28.1355   -3.5143   39.1345  N     
9    N       -30.1641   -2.3913   39.5387  N     
10   N       -30.9158   -0.6635   38.1578  N     
11   N       -30.2507   -6.7762   40.4781  N     
12   C       -24.9573   -5.3516   38.4690  C     
13   C       -23.8188   -4.2935   38.3546  C     
14   C       -24.5904   -3.0035   38.0178  C     
15   C       -25.7363   -3.5532   37.1453  C     
16   C       -25.4903   -5.5557   39.9203  C     
17   C       -27.9226   -2.7567   38.0235  C     
18   C       -27.2403   -1.7609   36.2263  C     
19   C       -27.2891   -6.3717   41.4232  C     
20   C       -28.8534   -1.7912   37.6528  C     
21   C       -27.2489   -7.1389   39.0119  C     
22   C       -28.4117   -7.3782   41.8322  C     
23   C       -30.0033   -1.6033   38.4442  C     
24   C       -29.2521   -3.3389   39.8873  C     
25   C       -26.4431   -1.3320   35.0623  C     
26   H       -22.0611   -4.2746   37.5433  H     
27   H       -22.8813   -2.2140   37.5096  H     
28   H       -25.8744   -7.4889   40.4672  H     
29   H       -30.7912   -0.0877   37.3852  H     
30   H       -31.6811   -0.5315   38.7477  H     
31   H       -29.7027   -6.1136   39.9241  H     
32   H       -31.2261   -6.4568   40.5049  H     
33   H       -30.2181   -7.6970   40.0375  H     
34   H       -24.5963   -6.3162   38.1054  H     
35   H       -23.2474   -4.1993   39.2810  H     
36   H       -24.9723   -2.5491   38.9458  H     
37   H       -25.3654   -3.6747   36.1258  H     
38   H       -25.9186   -4.5950   40.2444  H     
39   H       -24.6208   -5.7358   40.5623  H     
40   H       -26.6033   -6.2873   42.2791  H     
41   H       -27.7475   -5.3791   41.3022  H     
42   H       -26.5817   -7.4736   38.2204  H     
43   H       -27.8900   -6.3342   38.6536  H     
44   H       -27.8690   -8.0047   39.2605  H     
45   H       -28.2758   -7.6488   42.8825  H     
46   H       -28.3247   -8.3142   41.2724  H     
47   H       -29.4070   -3.9067   40.7197  H     
48   H       -25.4497   -1.0262   35.3884  H     
49   H       -26.9173   -0.4885   34.5623  H     
50   H       -26.3497   -2.1524   34.3507  H     
@<TRIPOS>BOND
     1    1   12 1
     2    1   15 1
     3   13    2 1
     4   14    3 1
     5    4   11 1
     6    4   22 1
     7   15    5 1
     8    5   17 1
     9    5   18 1
    10    6   16 1
    11    6   19 1
    12    6   21 1
    13    7   18 2
    14    7   20 1
    15    8   17 2
    16    8   24 1
    17    9   23 1
    18    9   24 2
    19   10   23 1
    20   12   13 1
    21   12   16 1
    22   13   14 1
    23   14   15 1
    24   17   20 1
    25   18   25 1
    26   19   22 1
    27   20   23 2
    28    2   26 1
    29    3   27 1
    30    6   28 1
    31   10   29 1
    32   10   30 1
    33   11   31 1
    34   11   32 1
    35   11   33 1
    36   12   34 1
    37   13   35 1
    38   14   36 1
    39   15   37 1
    40   16   38 1
    41   16   39 1
    42   19   40 1
    43   19   41 1
    44   21   42 1
    45   21   43 1
    46   21   44 1
    47   22   45 1
    48   22   46 1
    49   24   47 1
    50   25   48 1
    51   25   49 1
    52   25   50 1
@<TRIPOS>PROPERTY_DATA
  Total_Score	| 11.8977
  Crash		| -1.3670
  Polar		| 8.2033
  FragIndex	| 1
  FragRMSD	| 0.259

