@<TRIPOS>MOLECULE
BindingDB_28443
 49 51 0 0 0
SMALL
NO_CHARGES


@<TRIPOS>ATOM
1    O       -26.0798   -4.9652   37.7306  O     
2    O       -22.9065   -4.6894   37.3216  O     
3    O       -23.8775   -2.1517   37.1518  O     
4    N       -26.1272   -7.6379   44.0485  N     
5    N       -26.9663   -2.8294   37.1269  N     
6    N       -26.0788   -7.0139   40.2305  N     
7    N       -28.4147   -1.2368   36.5689  N     
8    N       -28.2191   -3.6533   39.0874  N     
9    N       -30.2266   -2.4877   39.5097  N     
10   N       -30.9176   -0.6946   38.1702  N     
11   C       -24.9435   -5.4183   38.4935  C     
12   C       -23.8405   -4.3343   38.3514  C     
13   C       -24.6286   -3.0750   37.9500  C     
14   C       -25.8044   -3.6813   37.1556  C     
15   C       -25.3913   -5.6978   39.9604  C     
16   C       -27.9844   -2.8619   38.0078  C     
17   C       -27.2477   -1.8315   36.2457  C     
18   C       -26.6205   -7.1181   41.6336  C     
19   C       -28.8835   -1.8612   37.6549  C     
20   C       -27.1208   -7.3869   39.2235  C     
21   C       -25.5466   -7.4160   42.7158  C     
22   C       -30.0339   -1.6685   38.4393  C     
23   C       -29.3405   -3.4707   39.8355  C     
24   C       -26.4331   -1.3913   35.0970  C     
25   H       -22.0532   -4.2926   37.5862  H     
26   H       -22.9319   -2.3111   37.3665  H     
27   H       -26.8406   -6.9312   44.2357  H     
28   H       -25.3896   -7.5598   44.7561  H     
29   H       -26.5531   -8.5676   44.1094  H     
30   H       -25.3567   -7.7335   40.1491  H     
31   H       -30.7744   -0.1071   37.4108  H     
32   H       -31.6810   -0.5524   38.7553  H     
33   H       -24.5796   -6.3577   38.0670  H     
34   H       -23.2871   -4.1681   39.2839  H     
35   H       -24.9919   -2.5632   38.8507  H     
36   H       -25.4732   -3.8828   36.1305  H     
37   H       -26.0207   -4.8671   40.2964  H     
38   H       -24.4830   -5.6843   40.5691  H     
39   H       -27.1495   -6.1936   41.9006  H     
40   H       -27.3480   -7.9339   41.6969  H     
41   H       -27.8962   -6.6205   39.1517  H     
42   H       -27.5882   -8.3318   39.4835  H     
43   H       -26.6693   -7.5318   38.2411  H     
44   H       -24.8588   -6.5750   42.8011  H     
45   H       -24.9791   -8.3114   42.4399  H     
46   H       -29.5158   -4.0705   40.6445  H     
47   H       -25.4529   -1.0665   35.4378  H     
48   H       -26.9165   -0.5605   34.5827  H     
49   H       -26.3120   -2.2132   34.3882  H     
@<TRIPOS>BOND
     1    1   11 1
     2    1   14 1
     3   12    2 1
     4   13    3 1
     5    4   21 1
     6   14    5 1
     7    5   16 1
     8    5   17 1
     9    6   15 1
    10    6   18 1
    11    6   20 1
    12    7   17 2
    13    7   19 1
    14    8   16 1
    15    8   23 2
    16    9   22 2
    17    9   23 1
    18   10   22 1
    19   11   12 1
    20   11   15 1
    21   12   13 1
    22   13   14 1
    23   16   19 2
    24   17   24 1
    25   18   21 1
    26   19   22 1
    27    2   25 1
    28    3   26 1
    29    4   27 1
    30    4   28 1
    31    4   29 1
    32    6   30 1
    33   10   31 1
    34   10   32 1
    35   11   33 1
    36   12   34 1
    37   13   35 1
    38   14   36 1
    39   15   37 1
    40   15   38 1
    41   18   39 1
    42   18   40 1
    43   20   41 1
    44   20   42 1
    45   20   43 1
    46   21   44 1
    47   21   45 1
    48   23   46 1
    49   24   47 1
    50   24   48 1
    51   24   49 1
@<TRIPOS>PROPERTY_DATA
  Total_Score	| 10.7807
  Crash		| -1.7912
  Polar		| 7.2950
  FragIndex	| 1
  FragRMSD	| 0.688

