@<TRIPOS>MOLECULE
BindingDB_50053083
 39 40 0 0 0
SMALL
NO_CHARGES


@<TRIPOS>ATOM
1    C         2.0653    0.7259   26.6987  C     
2    C         0.9065   -0.3034   26.4942  C     
3    N         1.8339    0.2927   24.3201  N     
4    C        -0.1808   -0.3744   27.5335  C     
5    C         2.8404    0.6516   25.3383  C     
6    C         0.5631   -0.0121   24.9958  C     
7    C         0.0709   -0.8964   28.8592  C     
8    C         3.9636   -0.3152   25.3216  C     
9    C         1.5751    2.1612   27.0770  C     
10   C         2.6124    3.2134   27.1607  C     
11   C         1.3586   -1.3342   29.2926  C     
12   C        -1.4215    0.0600   27.2072  C     
13   O         4.8333   -0.3187   26.3533  O     
14   O         2.2245    4.4937   27.3709  O     
15   O         4.4814   -0.7310   24.1470  O     
16   O         3.9297    2.9180   27.2745  O     
17   C         1.6152   -1.8142   30.5978  C     
18   C        -0.9761   -1.0695   29.8205  C     
19   C        -0.7489   -1.5428   31.1222  C     
20   C         0.5458   -1.9025   31.5142  C     
21   C         2.9818   -2.2280   30.9844  C     
22   H         2.7126    0.4015   27.5147  H     
23   H         1.3552   -1.2999   26.4621  H     
24   H         1.6940    1.0787   23.6779  H     
25   H         2.1264   -0.5219   23.7811  H     
26   H         3.2646    1.6298   25.0712  H     
27   H         0.0775   -0.8669   24.5119  H     
28   H        -0.0722    0.8723   24.8631  H     
29   H         0.8111    2.5003   26.3588  H     
30   H         1.0956    2.1221   28.0630  H     
31   H         2.1509   -1.3148   28.6442  H     
32   H        -2.1386    0.1529   27.8932  H     
33   H        -1.6551    0.3562   26.2897  H     
34   H        -1.9537   -0.8763   29.5899  H     
35   H        -1.5242   -1.6420   31.7747  H     
36   H         0.6979   -2.2460   32.4774  H     
37   H         3.3179   -3.0361   30.3325  H     
38   H         3.0274   -2.5827   32.0220  H     
39   H         3.6571   -1.3765   30.8841  H     
@<TRIPOS>BOND
     1    1    2 1
     2    1    5 1
     3    1    9 1
     4    2    4 1
     5    2    6 1
     6    3    5 1
     7    3    6 1
     8    4    7 1
     9    4   12 2
    10    5    8 1
    11    7   11 2
    12    7   18 1
    13    8   13 2
    14    8   15 1
    15    9   10 1
    16   10   14 2
    17   10   16 1
    18   11   17 1
    19   17   20 2
    20   17   21 1
    21   18   19 2
    22   19   20 1
    23    1   22 1
    24    2   23 1
    25    3   24 1
    26    3   25 1
    27    5   26 1
    28    6   27 1
    29    6   28 1
    30    9   29 1
    31    9   30 1
    32   11   31 1
    33   12   32 1
    34   12   33 1
    35   18   34 1
    36   19   35 1
    37   20   36 1
    38   21   37 1
    39   21   38 1
    40   21   39 1
@<TRIPOS>PROPERTY_DATA
  Total_Score	| 15.3470
  Crash		| -0.8759
  Polar		| 11.7231
  FragIndex	| 1
  FragRMSD	| 0.842

