@<TRIPOS>MOLECULE
BindingDB_50053068
 43 44 0 0 0
SMALL
NO_CHARGES


@<TRIPOS>ATOM
1    C         2.0889    0.7066   26.7159  C     
2    C         0.9004   -0.2937   26.5099  C     
3    N         1.8121    0.2761   24.3384  N     
4    C         2.8353    0.6636   25.3362  C     
5    C        -0.1562   -0.3442   27.5727  C     
6    C         0.5415    0.0261   25.0249  C     
7    C         3.9860   -0.2707   25.2702  C     
8    C         1.6274    2.1494   27.1196  C     
9    C         0.1067   -0.9000   28.8796  C     
10   C         2.6751    3.1906   27.1386  C     
11   C         0.8793   -2.6291   32.7571  C     
12   C         0.6259   -2.0770   31.4940  C     
13   C        -1.3973    0.1026   27.2589  C     
14   O         4.4925   -0.6051   24.0572  O     
15   O         2.3111    4.4620   27.4028  O     
16   C        -0.9005   -1.0374   29.8836  C     
17   C         1.3880   -1.3984   29.2607  C     
18   C         1.6490   -1.9608   30.5268  C     
19   C        -0.6621   -1.6145   31.1466  C     
20   C         0.3074   -3.7928   33.1223  C     
21   O         4.8944   -0.2611   26.2665  O     
22   O         3.9829    2.8720   27.3247  O     
23   C         1.7531   -1.9112   33.6920  C     
24   H         2.7405    0.3462   27.5159  H     
25   H         1.3191   -1.3055   26.4564  H     
26   H         1.6936    1.0398   23.6652  H     
27   H         2.0788   -0.5688   23.8289  H     
28   H         3.2112    1.6524   25.0570  H     
29   H         0.0062   -0.7956   24.5483  H     
30   H        -0.0455    0.9396   24.9185  H     
31   H         0.8398    2.4954   26.4428  H     
32   H         1.2086    2.1217   28.1278  H     
33   H        -2.1399    0.1115   27.9115  H     
34   H        -1.6301    0.4339   26.3539  H     
35   H        -1.8551   -0.7207   29.7131  H     
36   H         2.1717   -1.3883   28.6057  H     
37   H         2.5927   -2.3083   30.7277  H     
38   H        -1.4372   -1.6834   31.8144  H     
39   H         0.4714   -4.1920   34.0192  H     
40   H        -0.2818   -4.2917   32.4996  H     
41   H         2.7423   -1.7637   33.2519  H     
42   H         1.8926   -2.4324   34.6435  H     
43   H         1.3232   -0.9352   33.9167  H     
@<TRIPOS>BOND
     1    1    2 1
     2    1    4 1
     3    1    8 1
     4    2    5 1
     5    2    6 1
     6    3    4 1
     7    3    6 1
     8    4    7 1
     9    5    9 1
    10    5   13 2
    11    7   14 2
    12    7   21 1
    13    8   10 1
    14    9   16 1
    15    9   17 2
    16   10   15 2
    17   10   22 1
    18   11   12 1
    19   11   20 2
    20   11   23 1
    21   12   18 2
    22   12   19 1
    23   16   19 2
    24   17   18 1
    25    1   24 1
    26    2   25 1
    27    3   26 1
    28    3   27 1
    29    4   28 1
    30    6   29 1
    31    6   30 1
    32    8   31 1
    33    8   32 1
    34   13   33 1
    35   13   34 1
    36   16   35 1
    37   17   36 1
    38   18   37 1
    39   19   38 1
    40   20   39 1
    41   20   40 1
    42   23   41 1
    43   23   42 1
    44   23   43 1
@<TRIPOS>PROPERTY_DATA
  Total_Score	| 15.8793
  Crash		| -0.9393
  Polar		| 11.6932
  FragIndex	| 1
  FragRMSD	| 0.170

