@<TRIPOS>MOLECULE
BindingDB_50053081
 43 44 0 0 0
SMALL
NO_CHARGES


@<TRIPOS>ATOM
1    C         2.0302    0.6068   26.6901  C     
2    C         0.5185    0.5081   26.4427  C     
3    N         1.7767    0.3284   24.3283  N     
4    C         2.7884    0.6858   25.3333  C     
5    C        -0.3347   -0.2313   27.4388  C     
6    C         0.5407   -0.0982   25.0042  C     
7    C         3.9894   -0.1918   25.2824  C     
8    C         2.4939    1.6371   27.7709  C     
9    C         0.0382   -0.7735   28.7376  C     
10   C         2.9417    2.9713   27.3070  C     
11   C         0.5631   -2.7492   32.5877  C     
12   C         0.4035   -2.0738   31.3527  C     
13   C        -1.6374   -0.3168   27.0607  C     
14   O         4.5045   -0.5852   24.1003  O     
15   O         2.1129    4.0330   27.2017  O     
16   C         1.2951   -1.3385   29.1601  C     
17   C        -0.9574   -0.7783   29.7608  C     
18   C        -0.8022   -1.4261   30.9978  C     
19   C         1.4567   -1.9654   30.4154  C     
20   C        -0.0941   -3.9008   32.8568  C     
21   O         4.8372   -0.2397   26.3378  O     
22   O         4.2185    3.1343   26.8993  O     
23   C         1.4750   -2.2219   33.6091  C     
24   H         2.2168   -0.4022   27.0180  H     
25   H         0.1205    1.5249   26.3608  H     
26   H         1.5893    1.1549   23.7580  H     
27   H         2.1071   -0.4218   23.7192  H     
28   H         3.1112    1.7035   25.1154  H     
29   H         0.5428   -1.1901   25.0462  H     
30   H        -0.3206    0.2246   24.4124  H     
31   H         1.6919    1.7996   28.4955  H     
32   H         3.3261    1.1838   28.3194  H     
33   H        -2.2924   -0.8788   27.5495  H     
34   H        -1.9893    0.1444   26.2541  H     
35   H         2.1689   -1.3396   28.6129  H     
36   H        -1.8530   -0.3023   29.6206  H     
37   H        -1.5841   -1.3845   31.6532  H     
38   H         2.3699   -2.3846   30.6125  H     
39   H         0.0339   -4.3793   33.7173  H     
40   H        -0.6770   -4.3417   32.1851  H     
41   H         2.5111   -2.3818   33.3042  H     
42   H         1.3472   -2.6894   34.5915  H     
43   H         1.3052   -1.1504   33.7395  H     
@<TRIPOS>BOND
     1    1    2 1
     2    1    4 1
     3    1    8 1
     4    2    5 1
     5    2    6 1
     6    3    4 1
     7    3    6 1
     8    4    7 1
     9    5    9 1
    10    5   13 2
    11    7   14 2
    12    7   21 1
    13    8   10 1
    14    9   16 2
    15    9   17 1
    16   10   15 2
    17   10   22 1
    18   11   12 1
    19   11   20 2
    20   11   23 1
    21   12   18 1
    22   12   19 2
    23   16   19 1
    24   17   18 2
    25    1   24 1
    26    2   25 1
    27    3   26 1
    28    3   27 1
    29    4   28 1
    30    6   29 1
    31    6   30 1
    32    8   31 1
    33    8   32 1
    34   13   33 1
    35   13   34 1
    36   16   35 1
    37   17   36 1
    38   18   37 1
    39   19   38 1
    40   20   39 1
    41   20   40 1
    42   23   41 1
    43   23   42 1
    44   23   43 1
@<TRIPOS>PROPERTY_DATA
  Total_Score	| 13.6224
  Crash		| -1.5074
  Polar		| 10.6309
  FragIndex	| 1
  FragRMSD	| 0.499

