@<TRIPOS>MOLECULE
BindingDB_50053088
 39 40 0 0 0
SMALL
NO_CHARGES


@<TRIPOS>ATOM
1    C         2.0791    0.7198   26.6878  C     
2    C         0.9237   -0.3155   26.4841  C     
3    N         1.8329    0.2643   24.3139  N     
4    C         2.8409    0.6624   25.3198  C     
5    C        -0.1324   -0.3871   27.5430  C     
6    C         0.5663   -0.0215   24.9936  C     
7    C         3.9985   -0.2701   25.2705  C     
8    C         1.5785    2.1537   27.0653  C     
9    C         0.1345   -0.9531   28.8404  C     
10   C         2.6202    3.1898   27.2179  C     
11   C        -1.3634    0.0883   27.2439  C     
12   O         4.8816   -0.2744   26.2933  O     
13   O         2.2513    4.4749   27.4467  O     
14   C         1.4382   -1.4015   29.2240  C     
15   C        -0.8697   -1.1581   29.8284  C     
16   O         4.5515   -0.5626   24.0698  O     
17   O         3.9396    2.8933   27.2407  O     
18   C         1.7137   -1.9410   30.4924  C     
19   C        -0.6072   -1.6984   31.0997  C     
20   C         0.6979   -2.0844   31.4611  C     
21   C         1.0207   -2.6033   32.8122  C     
22   H         2.7343    0.3908   27.5004  H     
23   H         1.3721   -1.3186   26.4428  H     
24   H         1.6953    1.0392   23.6569  H     
25   H         2.1220   -0.5623   23.7867  H     
26   H         3.2222    1.6481   25.0408  H     
27   H         0.0583   -0.8670   24.5299  H     
28   H        -0.0477    0.8685   24.8789  H     
29   H         0.8662    2.5116   26.3158  H     
30   H         1.0509    2.1095   28.0243  H     
31   H        -2.0947    0.1353   27.9082  H     
32   H        -1.5995    0.4228   26.3438  H     
33   H         2.2246   -1.3592   28.5791  H     
34   H        -1.8517   -0.9240   29.6426  H     
35   H         2.6738   -2.2316   30.7108  H     
36   H        -1.3803   -1.7979   31.7649  H     
37   H         1.5007   -3.5803   32.7326  H     
38   H         0.1263   -2.7099   33.4298  H     
39   H         1.7022   -1.9093   33.3093  H     
@<TRIPOS>BOND
     1    1    2 1
     2    1    4 1
     3    1    8 1
     4    2    5 1
     5    2    6 1
     6    3    4 1
     7    3    6 1
     8    4    7 1
     9    5    9 1
    10    5   11 2
    11    7   12 2
    12    7   16 1
    13    8   10 1
    14    9   14 2
    15    9   15 1
    16   10   13 2
    17   10   17 1
    18   14   18 1
    19   15   19 2
    20   18   20 2
    21   19   20 1
    22   20   21 1
    23    1   22 1
    24    2   23 1
    25    3   24 1
    26    3   25 1
    27    4   26 1
    28    6   27 1
    29    6   28 1
    30    8   29 1
    31    8   30 1
    32   11   31 1
    33   11   32 1
    34   14   33 1
    35   15   34 1
    36   18   35 1
    37   19   36 1
    38   21   37 1
    39   21   38 1
    40   21   39 1
@<TRIPOS>PROPERTY_DATA
  Total_Score	| 15.0356
  Crash		| -0.8377
  Polar		| 11.6382
  FragIndex	| 1
  FragRMSD	| 0.844

