@<TRIPOS>MOLECULE
BindingDB_50053082
 48 49 0 0 0
SMALL
NO_CHARGES


@<TRIPOS>ATOM
1    C         2.2607    0.8822   26.5337  C     
2    C         1.2364   -0.2995   26.5251  C     
3    N         1.7966    0.3215   24.2470  N     
4    C         2.9055    0.7487   25.1172  C     
5    C         0.2854   -0.4267   27.6696  C     
6    C         0.7035   -0.2290   25.0633  C     
7    C         4.0178   -0.2411   25.0791  C     
8    C         1.6243    2.2853   26.8174  C     
9    C         0.7351   -0.9536   28.8956  C     
10   C         2.5780    3.3879   27.0423  C     
11   C        -0.9978   -0.0213   27.5695  C     
12   O         4.9049   -0.3062   26.0953  O     
13   O         3.9020    3.1981   27.2260  O     
14   C         2.0645   -0.7479   29.3270  C     
15   C        -0.1177   -1.6814   29.7716  C     
16   O         4.5219   -0.6491   23.8994  O     
17   O         2.0974    4.6354   27.2140  O     
18   C         0.3697   -2.2315   30.9740  C     
19   C         2.5595   -1.3137   30.5095  C     
20   C         1.7216   -2.0740   31.3555  C     
21   C         2.2167   -2.6951   32.6190  C     
22   C         3.7561   -2.7678   32.8575  C     
23   C         4.5372   -3.5322   31.7530  C     
24   C         6.0495   -3.6364   32.0297  C     
25   H         3.0308    0.7268   27.2840  H     
26   H         1.8275   -1.2262   26.5505  H     
27   H         1.4601    1.1447   23.7360  H     
28   H         2.1036   -0.3861   23.5808  H     
29   H         3.2969    1.7045   24.7682  H     
30   H         0.4241   -1.2213   24.7040  H     
31   H        -0.1547    0.4385   24.9540  H     
32   H         0.9611    2.5697   25.9938  H     
33   H         1.0296    2.2282   27.7241  H     
34   H        -1.6290   -0.0654   28.3390  H     
35   H        -1.3624    0.3737   26.7414  H     
36   H         2.7104   -0.1604   28.8131  H     
37   H        -1.0983   -1.8396   29.5339  H     
38   H        -0.2767   -2.7675   31.5720  H     
39   H         3.5086   -1.0811   30.7692  H     
40   H         1.7822   -2.1215   33.4510  H     
41   H         1.8195   -3.7178   32.6781  H     
42   H         4.1501   -1.7541   32.9539  H     
43   H         3.9269   -3.2607   33.8191  H     
44   H         4.1224   -4.5391   31.6626  H     
45   H         4.4173   -3.0366   30.7852  H     
46   H         6.4960   -2.6394   31.9714  H     
47   H         6.5165   -4.2684   31.2634  H     
48   H         6.2373   -4.0561   33.0209  H     
@<TRIPOS>BOND
     1    1    2 1
     2    1    4 1
     3    1    8 1
     4    2    5 1
     5    2    6 1
     6    3    4 1
     7    3    6 1
     8    4    7 1
     9    5    9 1
    10    5   11 2
    11    7   12 2
    12    7   16 1
    13    8   10 1
    14    9   14 2
    15    9   15 1
    16   10   13 2
    17   10   17 1
    18   14   19 1
    19   15   18 2
    20   18   20 1
    21   19   20 2
    22   20   21 1
    23   21   22 1
    24   22   23 1
    25   23   24 1
    26    1   25 1
    27    2   26 1
    28    3   27 1
    29    3   28 1
    30    4   29 1
    31    6   30 1
    32    6   31 1
    33    8   32 1
    34    8   33 1
    35   11   34 1
    36   11   35 1
    37   14   36 1
    38   15   37 1
    39   18   38 1
    40   19   39 1
    41   21   40 1
    42   21   41 1
    43   22   42 1
    44   22   43 1
    45   23   44 1
    46   23   45 1
    47   24   46 1
    48   24   47 1
    49   24   48 1
@<TRIPOS>PROPERTY_DATA
  Total_Score	| 16.3699
  Crash		| -1.9779
  Polar		| 11.4690
  FragIndex	| 1
  FragRMSD	| 1.223

