@<TRIPOS>MOLECULE
BindingDB_50053061
 36 37 0 0 0
SMALL
NO_CHARGES


@<TRIPOS>ATOM
1    C         2.0934    0.7206   26.7227  C     
2    C         0.9316   -0.3107   26.5338  C     
3    N         1.7972    0.2888   24.3477  N     
4    C         2.8203    0.6918   25.3345  C     
5    C        -0.1024   -0.4100   27.6126  C     
6    C         0.5463   -0.0115   25.0525  C     
7    C         3.9752   -0.2352   25.2675  C     
8    C         1.6248    2.1543   27.1537  C     
9    C         0.2387   -0.8770   28.9327  C     
10   C         2.6603    3.2038   27.1823  C     
11   C        -1.3893   -0.1087   27.2898  C     
12   O         4.8881   -0.2649   26.2639  O     
13   O         2.2825    4.4917   27.3512  O     
14   C        -0.6727   -0.8644   30.0361  C     
15   C         1.5282   -1.4169   29.2350  C     
16   O         4.4752   -0.6064   24.0715  O     
17   C         0.9113   -1.9654   31.5343  C     
18   O         3.9899    2.9464   27.0713  O     
19   C        -0.3635   -1.4227   31.2910  C     
20   C         1.8653   -1.9359   30.5036  C     
21   Cl        1.3092   -2.6126   33.0436  Cl    
22   H         2.7780    0.3733   27.5050  H     
23   H         1.3796   -1.3088   26.4591  H     
24   H         1.6397    1.0583   23.6928  H     
25   H         2.0803   -0.5403   23.8239  H     
26   H         3.1805    1.6801   25.0437  H     
27   H         0.0407   -0.8613   24.5759  H     
28   H        -0.0910    0.8726   24.9611  H     
29   H         0.8124    2.4918   26.4943  H     
30   H         1.2233    2.0957   28.1716  H     
31   H        -2.1400   -0.2404   27.9107  H     
32   H        -1.6659    0.2123   26.3977  H     
33   H        -1.5981   -0.4432   29.9645  H     
34   H         2.2737   -1.4676   28.5380  H     
35   H        -1.0461   -1.3950   32.0528  H     
36   H         2.8128   -2.2937   30.6668  H     
@<TRIPOS>BOND
     1    1    2 1
     2    1    4 1
     3    1    8 1
     4    2    5 1
     5    2    6 1
     6    3    4 1
     7    3    6 1
     8    4    7 1
     9    5    9 1
    10    5   11 2
    11    7   12 2
    12    7   16 1
    13    8   10 1
    14    9   14 2
    15    9   15 1
    16   10   13 2
    17   10   18 1
    18   14   19 1
    19   15   20 2
    20   17   19 2
    21   17   20 1
    22   17   21 1
    23    1   22 1
    24    2   23 1
    25    3   24 1
    26    3   25 1
    27    4   26 1
    28    6   27 1
    29    6   28 1
    30    8   29 1
    31    8   30 1
    32   11   31 1
    33   11   32 1
    34   14   33 1
    35   15   34 1
    36   19   35 1
    37   20   36 1
@<TRIPOS>PROPERTY_DATA
  Total_Score	| 14.9853
  Crash		| -0.8521
  Polar		| 12.2340
  FragIndex	| 1
  FragRMSD	| 0.843

