@<TRIPOS>MOLECULE
BindingDB_50053059
 45 46 0 0 0
SMALL
NO_CHARGES


@<TRIPOS>ATOM
1    C         2.0612    0.7256   26.7024  C     
2    C         0.8787   -0.2714   26.4865  C     
3    N         1.8286    0.2915   24.3278  N     
4    C         2.8411    0.6412   25.3441  C     
5    C        -0.1857   -0.3186   27.5438  C     
6    C         0.5482    0.0127   24.9916  C     
7    C         3.9600   -0.3370   25.3306  C     
8    C         1.5792    2.1743   27.0722  C     
9    C         0.0827   -0.8266   28.8692  C     
10   C         2.6323    3.2065   27.1270  C     
11   C        -1.4454    0.0348   27.1908  C     
12   O         4.8576   -0.3161   26.3367  O     
13   O         2.2613    4.5023   27.3304  O     
14   C        -0.8922   -0.8827   29.9143  C     
15   C         1.3505   -1.3698   29.2280  C     
16   O         4.4697   -0.7434   24.1484  O     
17   O         3.9484    2.9032   27.1936  O     
18   C         1.5930   -2.0185   30.4524  C     
19   C        -0.6683   -1.5441   31.1385  C     
20   C         0.5774   -2.1452   31.4171  C     
21   C         0.7977   -2.9193   32.6679  C     
22   C         1.4401   -2.0973   33.8205  C     
23   C         2.9805   -2.1733   33.8859  C     
24   H         2.6973    0.3879   27.5246  H     
25   H         1.2934   -1.2847   26.4428  H     
26   H         1.7068    1.0774   23.6879  H     
27   H         2.1069   -0.5303   23.7891  H     
28   H         3.2657    1.6060   25.0697  H     
29   H         0.0508   -0.8416   24.5207  H     
30   H        -0.0767    0.9011   24.8522  H     
31   H         0.8248    2.5054   26.3434  H     
32   H         1.1028    2.1571   28.0641  H     
33   H        -2.2183   -0.0289   27.7966  H     
34   H        -1.6818    0.3454   26.2839  H     
35   H        -1.8120   -0.4572   29.8140  H     
36   H         2.1345   -1.3714   28.5826  H     
37   H         2.5132   -2.4389   30.6148  H     
38   H        -1.4301   -1.5926   31.8216  H     
39   H        -0.1620   -3.3057   33.0257  H     
40   H         1.4159   -3.7972   32.4528  H     
41   H         1.1406   -1.0542   33.7349  H     
42   H         1.0527   -2.4755   34.7688  H     
43   H         3.3109   -3.2159   33.9314  H     
44   H         3.3277   -1.6611   34.7895  H     
45   H         3.4307   -1.6905   33.0172  H     
@<TRIPOS>BOND
     1    1    2 1
     2    1    4 1
     3    1    8 1
     4    2    5 1
     5    2    6 1
     6    3    4 1
     7    3    6 1
     8    4    7 1
     9    5    9 1
    10    5   11 2
    11    7   12 2
    12    7   16 1
    13    8   10 1
    14    9   14 2
    15    9   15 1
    16   10   13 2
    17   10   17 1
    18   14   19 1
    19   15   18 2
    20   18   20 1
    21   19   20 2
    22   20   21 1
    23   21   22 1
    24   22   23 1
    25    1   24 1
    26    2   25 1
    27    3   26 1
    28    3   27 1
    29    4   28 1
    30    6   29 1
    31    6   30 1
    32    8   31 1
    33    8   32 1
    34   11   33 1
    35   11   34 1
    36   14   35 1
    37   15   36 1
    38   18   37 1
    39   19   38 1
    40   21   39 1
    41   21   40 1
    42   22   41 1
    43   22   42 1
    44   23   43 1
    45   23   44 1
    46   23   45 1
@<TRIPOS>PROPERTY_DATA
  Total_Score	| 16.2739
  Crash		| -0.8039
  Polar		| 11.7836
  FragIndex	| 1
  FragRMSD	| 0.838

