@<TRIPOS>MOLECULE
BindingDB_50053069
 36 37 0 0 0
SMALL
NO_CHARGES


@<TRIPOS>ATOM
1    C         2.0298    0.4967   26.6657  C     
2    C         0.5148    0.5355   26.3839  C     
3    N         1.7870    0.2695   24.2885  N     
4    C         2.7821    0.6295   25.3077  C     
5    C        -0.4674   -0.0807   27.3468  C     
6    C         0.5275   -0.0909   24.9525  C     
7    C         4.0148   -0.1945   25.2310  C     
8    C         2.5157    1.5146   27.7581  C     
9    C         2.9399    2.8478   27.2801  C     
10   C        -0.2309   -0.6554   28.6670  C     
11   C        -1.7416   -0.0537   26.8770  C     
12   O         4.5785   -0.4504   24.0325  O     
13   O         2.1162    3.9131   27.3315  O     
14   O         4.8661   -0.2111   26.2809  O     
15   O         4.2202    3.0520   26.8960  O     
16   C        -1.2828   -0.6347   29.6408  C     
17   C         0.9733   -1.2719   29.1526  C     
18   C         1.0422   -1.9623   30.3809  C     
19   C        -1.2312   -1.3253   30.8651  C     
20   C        -0.0707   -2.0199   31.2218  C     
21   H         2.1805   -0.5514   26.9586  H     
22   H         0.2278    1.5854   26.2623  H     
23   H         1.6319    1.0810   23.6868  H     
24   H         2.1052   -0.5128   23.7150  H     
25   H         3.0680    1.6620   25.1027  H     
26   H         0.4793   -1.1793   25.0127  H     
27   H        -0.3035    0.2628   24.3372  H     
28   H         1.7314    1.6912   28.4944  H     
29   H         3.3529    1.0566   28.2900  H     
30   H        -2.4703   -0.5814   27.2885  H     
31   H        -1.9979    0.4424   26.0567  H     
32   H        -2.1344   -0.0973   29.4824  H     
33   H         1.8761   -1.2201   28.6838  H     
34   H         1.9188   -2.4086   30.6681  H     
35   H        -2.0407   -1.3203   31.4962  H     
36   H        -0.0223   -2.5234   32.1075  H     
@<TRIPOS>BOND
     1    1    2 1
     2    1    4 1
     3    1    8 1
     4    2    5 1
     5    2    6 1
     6    3    4 1
     7    3    6 1
     8    4    7 1
     9    5   10 1
    10    5   11 2
    11    7   12 2
    12    7   14 1
    13    8    9 1
    14    9   13 2
    15    9   15 1
    16   10   16 2
    17   10   17 1
    18   16   19 1
    19   17   18 2
    20   18   20 1
    21   19   20 2
    22    1   21 1
    23    2   22 1
    24    3   23 1
    25    3   24 1
    26    4   25 1
    27    6   26 1
    28    6   27 1
    29    8   28 1
    30    8   29 1
    31   11   30 1
    32   11   31 1
    33   16   32 1
    34   17   33 1
    35   18   34 1
    36   19   35 1
    37   20   36 1
@<TRIPOS>PROPERTY_DATA
  Total_Score	| 12.5307
  Crash		| -1.4599
  Polar		| 10.4647
  FragIndex	| 1
  FragRMSD	| 0.553

