@<TRIPOS>MOLECULE
BindingDB_50053089
 42 43 0 0 0
SMALL
NO_CHARGES


@<TRIPOS>ATOM
1    C         2.1077    0.6726   26.7108  C     
2    C         0.9276   -0.3363   26.4865  C     
3    N         1.8275    0.3171   24.3238  N     
4    C         2.8423    0.6865   25.3279  C     
5    C        -0.1445   -0.3976   27.5451  C     
6    C         0.5740    0.0084   25.0075  C     
7    C         4.0169   -0.2201   25.2648  C     
8    C         1.6414    2.0708   27.2523  C     
9    C         0.1167   -0.9473   28.8580  C     
10   C         2.6448    3.1495   27.2407  C     
11   C        -1.3727    0.0907   27.2359  C     
12   O         4.8716   -0.2946   26.3087  O     
13   O         2.2505    4.4408   27.2762  O     
14   C         1.4038   -1.4181   29.2522  C     
15   C        -0.8922   -1.1363   29.8595  C     
16   O         4.5029   -0.6822   24.0921  O     
17   O         3.9729    2.8802   27.1857  O     
18   C         1.6715   -1.9854   30.5104  C     
19   C        -0.6349   -1.6944   31.1278  C     
20   C         0.6556   -2.1276   31.4747  C     
21   C         0.9399   -2.7686   32.7879  C     
22   C         1.8520   -1.9044   33.6897  C     
23   H         2.7986    0.2852   27.4604  H     
24   H         1.3520   -1.3439   26.4218  H     
25   H         1.6804    1.1044   23.6892  H     
26   H         2.1203   -0.4922   23.7783  H     
27   H         3.2048    1.6863   25.0839  H     
28   H         0.0677   -0.8170   24.5038  H     
29   H        -0.0313    0.9094   24.9090  H     
30   H         0.7569    2.4166   26.7055  H     
31   H         1.3437    1.9479   28.3008  H     
32   H        -2.0958    0.2074   27.8938  H     
33   H        -1.6199    0.3836   26.3337  H     
34   H         2.1853   -1.4148   28.6084  H     
35   H        -1.8657   -0.9099   29.6969  H     
36   H         2.6213   -2.3119   30.7136  H     
37   H        -1.4154   -1.8287   31.7792  H     
38   H         0.0091   -2.9584   33.3278  H     
39   H         1.4050   -3.7416   32.6124  H     
40   H         2.8085   -1.7029   33.2008  H     
41   H         2.0438   -2.4416   34.6201  H     
42   H         1.3602   -0.9586   33.9184  H     
@<TRIPOS>BOND
     1    1    2 1
     2    1    4 1
     3    1    8 1
     4    2    5 1
     5    2    6 1
     6    3    4 1
     7    3    6 1
     8    4    7 1
     9    5    9 1
    10    5   11 2
    11    7   12 2
    12    7   16 1
    13    8   10 1
    14    9   14 2
    15    9   15 1
    16   10   13 2
    17   10   17 1
    18   14   18 1
    19   15   19 2
    20   18   20 2
    21   19   20 1
    22   20   21 1
    23   21   22 1
    24    1   23 1
    25    2   24 1
    26    3   25 1
    27    3   26 1
    28    4   27 1
    29    6   28 1
    30    6   29 1
    31    8   30 1
    32    8   31 1
    33   11   32 1
    34   11   33 1
    35   14   34 1
    36   15   35 1
    37   18   36 1
    38   19   37 1
    39   21   38 1
    40   21   39 1
    41   22   40 1
    42   22   41 1
    43   22   42 1
@<TRIPOS>PROPERTY_DATA
  Total_Score	| 15.6908
  Crash		| -0.7816
  Polar		| 11.6453
  FragIndex	| 1
  FragRMSD	| 0.851

