@<TRIPOS>MOLECULE
BindingDB_50053067
 36 37 0 0 0
SMALL
NO_CHARGES


@<TRIPOS>ATOM
1    C         2.0497    0.7699   26.6810  C     
2    C         0.8905   -0.2572   26.4864  C     
3    N         1.8608    0.2812   24.3177  N     
4    C         2.8672    0.6274   25.3468  C     
5    C        -0.2005   -0.3161   27.5014  C     
6    C         0.5798    0.0082   24.9807  C     
7    C         3.9698   -0.3711   25.3200  C     
8    C         1.5527    2.2357   26.9116  C     
9    C         2.6057    3.2761   27.0290  C     
10   C         0.0442   -0.8201   28.8326  C     
11   C        -1.4660    0.0112   27.1128  C     
12   O         4.4793   -0.6974   24.1081  O     
13   O         2.2266    4.5333   27.3467  O     
14   O         4.8813   -0.3476   26.3244  O     
15   O         3.9303    2.9752   27.1013  O     
16   C        -0.9741   -0.8503   29.8401  C     
17   C         1.3069   -1.3816   29.2271  C     
18   C         1.5200   -1.9506   30.5014  C     
19   C        -0.7844   -1.4845   31.0939  C     
20   C         0.4734   -2.0298   31.4314  C     
21   H         2.6856    0.5005   27.5404  H     
22   H         1.3468   -1.2581   26.4738  H     
23   H         1.7331    1.0730   23.6724  H     
24   H         2.1393   -0.5561   23.7941  H     
25   H         3.3352    1.5805   25.0521  H     
26   H         0.0879   -0.8527   24.5071  H     
27   H        -0.0436    0.8907   24.8437  H     
28   H         0.8747    2.5361   26.0927  H     
29   H         0.9892    2.2575   27.8618  H     
30   H        -2.2564   -0.1667   27.6884  H     
31   H        -1.6781    0.4006   26.2395  H     
32   H        -1.8974   -0.4073   29.6790  H     
33   H         2.1201   -1.3643   28.5952  H     
34   H         2.4386   -2.3602   30.7332  H     
35   H        -1.5485   -1.5321   31.7700  H     
36   H         0.6252   -2.4659   32.3595  H     
@<TRIPOS>BOND
     1    1    2 1
     2    1    4 1
     3    1    8 1
     4    2    5 1
     5    2    6 1
     6    3    4 1
     7    3    6 1
     8    4    7 1
     9    5   10 1
    10    5   11 2
    11    7   12 2
    12    7   14 1
    13    8    9 1
    14    9   13 2
    15    9   15 1
    16   10   16 2
    17   10   17 1
    18   16   19 1
    19   17   18 2
    20   18   20 1
    21   19   20 2
    22    1   21 1
    23    2   22 1
    24    3   23 1
    25    3   24 1
    26    4   25 1
    27    6   26 1
    28    6   27 1
    29    8   28 1
    30    8   29 1
    31   11   30 1
    32   11   31 1
    33   16   32 1
    34   17   33 1
    35   18   34 1
    36   19   35 1
    37   20   36 1
@<TRIPOS>PROPERTY_DATA
  Total_Score	| 14.7694
  Crash		| -0.7143
  Polar		| 11.7240
  FragIndex	| 1
  FragRMSD	| 0.094

