@<TRIPOS>MOLECULE
BindingDB_50053062
 42 43 0 0 0
SMALL
NO_CHARGES


@<TRIPOS>ATOM
1    C         2.0636    0.8139   26.6175  C     
2    C         0.9409   -0.2611   26.4438  C     
3    C        -0.0972   -0.3794   27.5142  C     
4    N         1.8249    0.2738   24.2663  N     
5    C         2.8410    0.6789   25.2653  C     
6    C         0.2281   -0.9715   28.7954  C     
7    C         0.5646   -0.0074   24.9539  C     
8    C         3.9608   -0.2883   25.2989  C     
9    C         1.5676    2.2766   26.8860  C     
10   C         2.6827    3.2301   27.0812  C     
11   C        -0.7557   -1.4101   29.7420  C     
12   C         1.5738   -1.2319   29.1934  C     
13   C        -1.3646    0.0051   27.1969  C     
14   O         4.8234   -0.2638   26.3377  O     
15   O         2.4317    4.4966   27.4931  O     
16   C        -0.4415   -2.0566   30.9550  C     
17   C         1.9290   -1.7792   30.4466  C     
18   C         0.9060   -2.1854   31.3211  C     
19   O         4.4989   -0.7084   24.1329  O     
20   O         3.9778    2.8507   26.9690  O     
21   C         3.3553   -1.9343   30.8120  C     
22   C        -1.5274   -2.6202   31.7968  C     
23   H         2.6996    0.5492   27.4590  H     
24   H         1.4159   -1.2502   26.4047  H     
25   H         1.6670    1.0356   23.6037  H     
26   H         2.1061   -0.5596   23.7540  H     
27   H         3.2597    1.6324   24.9419  H     
28   H         0.0721   -0.8712   24.5014  H     
29   H        -0.0641    0.8769   24.8224  H     
30   H         0.9508    2.6397   26.0628  H     
31   H         0.9488    2.2806   27.7863  H     
32   H        -1.7519   -1.3139   29.5610  H     
33   H         2.3502   -1.0537   28.5585  H     
34   H        -2.1447   -0.0940   27.8004  H     
35   H        -1.6012    0.3839   26.3241  H     
36   H         1.1412   -2.6271   32.2081  H     
37   H         3.8484   -2.5992   30.1024  H     
38   H         3.4855   -2.3509   31.8137  H     
39   H         3.8444   -0.9588   30.7809  H     
40   H        -2.2434   -1.8350   32.0464  H     
41   H        -1.1636   -3.0712   32.7264  H     
42   H        -2.0432   -3.3978   31.2322  H     
@<TRIPOS>BOND
     1    1    2 1
     2    1    5 1
     3    1    9 1
     4    2    3 1
     5    2    7 1
     6    3    6 1
     7    3   13 2
     8    4    5 1
     9    4    7 1
    10    5    8 1
    11    6   11 1
    12    6   12 2
    13    8   14 2
    14    8   19 1
    15    9   10 1
    16   10   15 2
    17   10   20 1
    18   11   16 2
    19   12   17 1
    20   16   18 1
    21   16   22 1
    22   17   18 2
    23   17   21 1
    24    1   23 1
    25    2   24 1
    26    4   25 1
    27    4   26 1
    28    5   27 1
    29    7   28 1
    30    7   29 1
    31    9   30 1
    32    9   31 1
    33   11   32 1
    34   12   33 1
    35   13   34 1
    36   13   35 1
    37   18   36 1
    38   21   37 1
    39   21   38 1
    40   21   39 1
    41   22   40 1
    42   22   41 1
    43   22   42 1
@<TRIPOS>PROPERTY_DATA
  Total_Score	| 15.1928
  Crash		| -0.6945
  Polar		| 11.4518
  FragIndex	| 1
  FragRMSD	| 0.842

