@<TRIPOS>MOLECULE
BindingDB_50002369
 29 29 0 0 0
SMALL
NO_CHARGES


@<TRIPOS>ATOM
1    C         2.0863    0.7553   26.6492  C     
2    C         0.9352   -0.2786   26.4663  C     
3    C         2.8516    0.6378   25.2934  C     
4    C         1.5937    2.2157   26.9533  C     
5    C         0.5634   -0.0425   24.9802  C     
6    C        -0.1136   -0.2939   27.5117  C     
7    C         3.9644   -0.3450   25.3122  C     
8    C         2.6487    3.2357   27.1193  C     
9    C         0.3098   -0.5668   28.8894  C     
10   C        -1.4227   -0.1034   27.2549  C     
11   O         4.8637   -0.3105   26.3157  O     
12   O         2.2751    4.5177   27.3427  O     
13   N         1.8240    0.2741   24.2916  N     
14   O         4.4526   -0.8146   24.1406  O     
15   O         3.9567    2.9281   27.2133  O     
16   H         2.7177    0.4453   27.4877  H     
17   H         1.3860   -1.2800   26.4951  H     
18   H         3.2874    1.5976   24.9913  H     
19   H         0.9274    2.5532   26.1552  H     
20   H         1.0183    2.2122   27.8853  H     
21   H         0.1020   -0.9264   24.5359  H     
22   H        -0.1085    0.8075   24.8557  H     
23   H         0.8447   -1.5190   28.9390  H     
24   H        -0.5212   -0.6184   29.5997  H     
25   H         0.9811    0.2209   29.2395  H     
26   H        -2.1001   -0.1275   27.9826  H     
27   H        -1.7620    0.0611   26.3409  H     
28   H         1.6752    1.0620   23.6612  H     
29   H         2.1152   -0.5333   23.7428  H     
@<TRIPOS>BOND
     1    1    2 1
     2    1    3 1
     3    1    4 1
     4    2    5 1
     5    2    6 1
     6    3    7 1
     7    3   13 1
     8    4    8 1
     9    5   13 1
    10    6    9 1
    11    6   10 2
    12    7   11 2
    13    7   14 1
    14    8   12 2
    15    8   15 1
    16    1   16 1
    17    2   17 1
    18    3   18 1
    19    4   19 1
    20    4   20 1
    21    5   21 1
    22    5   22 1
    23    9   23 1
    24    9   24 1
    25    9   25 1
    26   10   26 1
    27   10   27 1
    28   13   28 1
    29   13   29 1
@<TRIPOS>PROPERTY_DATA
  Total_Score	| 14.3491
  Crash		| -0.2418
  Polar		| 11.7560
  FragIndex	| 1
  FragRMSD	| 0.836

