@<TRIPOS>MOLECULE
BindingDB_50252103
 41 41 0 0 0
SMALL
NO_CHARGES


@<TRIPOS>ATOM
1    N         1.7725    0.2961   24.3903  N     
2    C         2.8465    0.6843   25.3340  C     
3    C         2.1665    0.7297   26.7468  C     
4    C         1.0405   -0.3405   26.6032  C     
5    C         0.5633   -0.0609   25.1517  C     
6    C         3.9903   -0.2626   25.2575  C     
7    O         4.8835   -0.3025   26.2679  O     
8    O         4.4835   -0.6479   24.0572  O     
9    C        -1.2607   -0.4109   27.5435  C     
10   C         0.0821   -0.4579   27.7322  C     
11   C         0.6833   -0.7304   29.0529  C     
12   C         1.6404    2.1445   27.1841  C     
13   C         2.6601    3.2098   27.1614  C     
14   O         3.9553    2.9299   27.4432  O     
15   O         2.2931    4.5063   27.0501  O     
16   C        -2.1991   -0.6343   28.4940  C     
17   C        -2.6694   -1.8695   28.7581  C     
18   C        -3.6088   -2.1936   29.8345  C     
19   C        -2.9105   -2.3696   31.2090  C     
20   C        -4.7403   -1.2342   29.9118  C     
21   O        -6.0162   -1.6796   29.8219  O     
22   O        -4.5352    0.1010   30.0074  O     
23   H         1.5599    1.0732   23.7588  H     
24   H         2.0570   -0.5052   23.8224  H     
25   H         3.2323    1.6619   25.0352  H     
26   H         2.8761    0.4072   27.5210  H     
27   H         1.5380   -1.3178   26.5489  H     
28   H        -0.1258    0.7893   25.1006  H     
29   H         0.0763   -0.9352   24.7110  H     
30   H        -1.6226   -0.2586   26.6358  H     
31   H         1.2942   -1.6284   29.0003  H     
32   H        -0.0404   -0.8969   29.8495  H     
33   H         1.3147    0.1007   29.3672  H     
34   H         0.7686    2.4569   26.5864  H     
35   H         1.2949    2.0788   28.2265  H     
36   H        -2.4835    0.1304   29.0571  H     
37   H        -2.3443   -2.6258   28.2012  H     
38   H        -4.0482   -3.1718   29.6004  H     
39   H        -2.1232   -3.1207   31.1350  H     
40   H        -3.6289   -2.7022   31.9641  H     
41   H        -2.4672   -1.4353   31.5482  H     
@<TRIPOS>BOND
     1    1    2 1
     2    1    5 1
     3    2    3 1
     4    2    6 1
     5    3    4 1
     6    3   12 1
     7    4    5 1
     8    4   10 1
     9    6    7 2
    10    6    8 1
    11    9   10 2
    12    9   16 1
    13   10   11 1
    14   12   13 1
    15   13   14 2
    16   13   15 1
    17   16   17 2
    18   17   18 1
    19   18   19 1
    20   18   20 1
    21   20   21 1
    22   20   22 2
    23    1   23 1
    24    1   24 1
    25    2   25 1
    26    3   26 1
    27    4   27 1
    28    5   28 1
    29    5   29 1
    30    9   30 1
    31   11   31 1
    32   11   32 1
    33   11   33 1
    34   12   34 1
    35   12   35 1
    36   16   36 1
    37   17   37 1
    38   18   38 1
    39   19   39 1
    40   19   40 1
    41   19   41 1
@<TRIPOS>PROPERTY_DATA
  Total_Score	| 15.3473
  Crash		| -1.4314
  Polar		| 12.9710
  FragIndex	| 1
  FragRMSD	| 1.212

