@<TRIPOS>MOLECULE
BindingDB_50053060
 48 49 0 0 0
SMALL
NO_CHARGES


@<TRIPOS>ATOM
1    C         2.2200    0.7169   26.7057  C     
2    C         1.0893   -0.3688   26.5953  C     
3    N         1.7975    0.2871   24.3641  N     
4    C         2.8679    0.7147   25.2829  C     
5    C         0.1227   -0.4986   27.7418  C     
6    C         0.6082   -0.1022   25.1364  C     
7    C         4.0560   -0.1727   25.1521  C     
8    C         1.6999    2.1121   27.1988  C     
9    C         0.5559   -0.9641   29.0456  C     
10   C         2.6301    3.2544   27.0734  C     
11   C         1.9289   -2.4975   33.0244  C     
12   C         1.4811   -1.9725   31.6681  C     
13   C        -1.1808   -0.2042   27.5050  C     
14   O         4.5389   -0.4575   23.9239  O     
15   O         2.1388    4.5027   27.1969  O     
16   C        -0.3286   -1.2462   30.1345  C     
17   C         1.9193   -1.2228   29.3604  C     
18   C         2.3686   -1.6932   30.6025  C     
19   C         0.1173   -1.7286   31.3828  C     
20   O         4.9640   -0.2619   26.1522  O     
21   O         3.9765    3.0910   27.1579  O     
22   C         3.4043   -3.0392   33.0565  C     
23   C         1.8674   -1.3759   34.1140  C     
24   C         0.9982   -3.6775   33.4552  C     
25   H         2.9778    0.4120   27.4205  H     
26   H         1.5666   -1.3479   26.5159  H     
27   H         1.5566    1.0742   23.7634  H     
28   H         2.0891   -0.4984   23.7823  H     
29   H         3.1798    1.7149   24.9743  H     
30   H         0.1474   -0.9865   24.6858  H     
31   H        -0.0846    0.7411   25.0655  H     
32   H         0.7612    2.3771   26.6896  H     
33   H         1.4843    2.0184   28.2768  H     
34   H        -1.8874   -0.2664   28.1899  H     
35   H        -1.5069    0.0998   26.6314  H     
36   H        -1.3365   -1.1004   30.0633  H     
37   H         2.6523   -1.0999   28.6826  H     
38   H         3.3739   -1.8372   30.7076  H     
39   H        -0.5907   -1.9000   32.0959  H     
40   H         3.5383   -3.8483   32.3350  H     
41   H         3.6587   -3.4350   34.0442  H     
42   H         4.1183   -2.2420   32.8198  H     
43   H         2.5818   -0.5818   33.8967  H     
44   H         2.1122   -1.7713   35.1011  H     
45   H         0.8779   -0.9300   34.1826  H     
46   H        -0.0316   -3.3480   33.5799  H     
47   H         1.3102   -4.1008   34.4121  H     
48   H         1.0160   -4.4696   32.7034  H     
@<TRIPOS>BOND
     1    1    2 1
     2    1    4 1
     3    1    8 1
     4    2    5 1
     5    2    6 1
     6    3    4 1
     7    3    6 1
     8    4    7 1
     9    5    9 1
    10    5   13 2
    11    7   14 2
    12    7   20 1
    13    8   10 1
    14    9   16 1
    15    9   17 2
    16   10   15 2
    17   10   21 1
    18   11   12 1
    19   11   22 1
    20   11   23 1
    21   11   24 1
    22   12   18 2
    23   12   19 1
    24   16   19 2
    25   17   18 1
    26    1   25 1
    27    2   26 1
    28    3   27 1
    29    3   28 1
    30    4   29 1
    31    6   30 1
    32    6   31 1
    33    8   32 1
    34    8   33 1
    35   13   34 1
    36   13   35 1
    37   16   36 1
    38   17   37 1
    39   18   38 1
    40   19   39 1
    41   22   40 1
    42   22   41 1
    43   22   42 1
    44   23   43 1
    45   23   44 1
    46   23   45 1
    47   24   46 1
    48   24   47 1
    49   24   48 1
@<TRIPOS>PROPERTY_DATA
  Total_Score	| 15.9431
  Crash		| -2.0853
  Polar		| 11.5578
  FragIndex	| 1
  FragRMSD	| 0.289

