@<TRIPOS>MOLECULE
BindingDB_50240399
 31 31 0 0 0
SMALL
NO_CHARGES


@<TRIPOS>ATOM
1    C         2.8828    0.6597   25.3434  C     
2    C         2.1757    0.7180   26.7420  C     
3    C         1.0548   -0.3540   26.5748  C     
4    C         0.6131   -0.1390   25.1134  C     
5    N         1.8188    0.2822   24.3831  N     
6    C        -0.0813   -0.5120   27.6503  C     
7    C         0.5087   -0.7300   29.0722  C     
8    C        -1.2226    0.5436   27.6696  C     
9    C         4.0179   -0.2962   25.2676  C     
10   O         4.9332   -0.3111   26.2655  O     
11   O         4.5053   -0.6338   24.0561  O     
12   C         1.6785    2.1539   27.1139  C     
13   C         2.6952    3.2240   27.1023  C     
14   O         4.0230    2.9712   27.0872  O     
15   O         2.2942    4.5080   27.2515  O     
16   H         3.2729    1.6342   25.0457  H     
17   H         2.8488    0.3963   27.5431  H     
18   H         1.5792   -1.3203   26.5833  H     
19   H         0.1984   -1.0489   24.6724  H     
20   H        -0.1286    0.6579   25.0337  H     
21   H         1.5898    1.0933   23.8068  H     
22   H         2.1165   -0.4829   23.7732  H     
23   H        -0.5931   -1.4431   27.4018  H     
24   H         1.1516   -1.6147   29.0828  H     
25   H        -0.2845   -0.8854   29.8047  H     
26   H         1.1074    0.1391   29.3857  H     
27   H        -0.8494    1.5370   27.8923  H     
28   H        -1.9637    0.2860   28.4341  H     
29   H        -1.7463    0.5624   26.7147  H     
30   H         0.8715    2.4473   26.4421  H     
31   H         1.2889    2.1297   28.1358  H     
@<TRIPOS>BOND
     1    1    2 1
     2    1    5 1
     3    1    9 1
     4    2    3 1
     5    2   12 1
     6    3    4 1
     7    3    6 1
     8    4    5 1
     9    6    7 1
    10    6    8 1
    11    9   10 1
    12    9   11 2
    13   12   13 1
    14   13   14 1
    15   13   15 2
    16    1   16 1
    17    2   17 1
    18    3   18 1
    19    4   19 1
    20    4   20 1
    21    5   21 1
    22    5   22 1
    23    6   23 1
    24    7   24 1
    25    7   25 1
    26    7   26 1
    27    8   27 1
    28    8   28 1
    29    8   29 1
    30   12   30 1
    31   12   31 1
@<TRIPOS>PROPERTY_DATA
  Total_Score	| 13.5188
  Crash		| -1.1485
  Polar		| 11.7596
  FragIndex	| 1
  FragRMSD	| 0.199

