@<TRIPOS>MOLECULE
BindingDB_50053070
 46 47 0 0 0
SMALL
NO_CHARGES


@<TRIPOS>ATOM
1    C         2.0787    0.6839   26.7594  C     
2    C         0.8811   -0.2924   26.5480  C     
3    N         1.8118    0.2670   24.3746  N     
4    C         2.8333    0.6336   25.3803  C     
5    C        -0.1788   -0.3680   27.6119  C     
6    C         0.5342    0.0528   25.0669  C     
7    C         3.9919   -0.2841   25.2845  C     
8    C         1.6161    2.1121   27.2222  C     
9    C         0.1136   -0.8852   28.9248  C     
10   C         2.6595    3.1678   27.2679  C     
11   C         0.9505   -2.7038   32.7553  C     
12   C         0.6665   -2.1511   31.4824  C     
13   C        -1.4563   -0.0386   27.2533  C     
14   O         4.4795   -0.5973   24.0642  O     
15   O         3.9903    2.8792   27.1797  O     
16   C        -0.8650   -0.9862   29.9693  C     
17   C         1.4030   -1.3954   29.2606  C     
18   C         1.6673   -2.0048   30.5063  C     
19   C        -0.6190   -1.6484   31.1870  C     
20   C         0.3497   -3.8524   33.1347  C     
21   O         4.9005   -0.2931   26.2796  O     
22   O         2.3177    4.4611   27.1793  O     
23   C         1.8086   -1.9001   33.6461  C     
24   C         2.6146   -2.6236   34.7589  C     
25   H         2.7291    0.2890   27.5533  H     
26   H         1.2955   -1.3037   26.4821  H     
27   H         1.6965    1.0125   23.6791  H     
28   H         2.0747   -0.5976   23.8881  H     
29   H         3.2127    1.6342   25.1324  H     
30   H        -0.0257   -0.7661   24.5806  H     
31   H        -0.0486    0.9773   24.9776  H     
32   H         0.7651    2.4842   26.6146  H     
33   H         1.2285    2.0397   28.2602  H     
34   H        -2.2302   -0.2017   27.8756  H     
35   H        -1.6765    0.2891   26.3397  H     
36   H        -1.8214   -0.5904   29.8491  H     
37   H         2.1732   -1.3423   28.6006  H     
38   H         2.6077   -2.3545   30.6820  H     
39   H        -1.3969   -1.7256   31.8428  H     
40   H         0.4610   -4.1994   34.0539  H     
41   H        -0.2709   -4.3363   32.5235  H     
42   H         2.5555   -1.3763   33.0319  H     
43   H         1.1740   -1.1479   34.1133  H     
44   H         1.9481   -3.0771   35.4834  H     
45   H         3.2184   -1.8901   35.2875  H     
46   H         3.2711   -3.3841   34.3200  H     
@<TRIPOS>BOND
     1    1    2 1
     2    1    4 1
     3    1    8 1
     4    2    5 1
     5    2    6 1
     6    3    4 1
     7    3    6 1
     8    4    7 1
     9    5    9 1
    10    5   13 2
    11    7   14 2
    12    7   21 1
    13    8   10 1
    14    9   16 1
    15    9   17 2
    16   10   15 2
    17   10   22 1
    18   11   12 1
    19   11   20 2
    20   11   23 1
    21   12   18 2
    22   12   19 1
    23   16   19 2
    24   17   18 1
    25   23   24 1
    26    1   25 1
    27    2   26 1
    28    3   27 1
    29    3   28 1
    30    4   29 1
    31    6   30 1
    32    6   31 1
    33    8   32 1
    34    8   33 1
    35   13   34 1
    36   13   35 1
    37   16   36 1
    38   17   37 1
    39   18   38 1
    40   19   39 1
    41   20   40 1
    42   20   41 1
    43   23   42 1
    44   23   43 1
    45   24   44 1
    46   24   45 1
    47   24   46 1
@<TRIPOS>PROPERTY_DATA
  Total_Score	| 16.2668
  Crash		| -0.9817
  Polar		| 11.5736
  FragIndex	| 1
  FragRMSD	| 0.862

