@<TRIPOS>MOLECULE
BindingDB_50355634
 42 44 0 0 0
SMALL
NO_CHARGES


@<TRIPOS>ATOM
1    C        19.4484   30.1075   64.4781  C     
2    C        20.6017   30.9106   64.6534  C     
3    C        21.3227   31.3487   63.5245  C     
4    C        20.9048   30.9851   62.2170  C     
5    C        19.7830   30.1246   62.0270  C     
6    C        19.0562   29.7140   63.1677  C     
7    S        19.2914   29.6795   60.3984  S     
8    C        17.8552   28.5710   60.5096  C     
9    C        17.3793   28.2410   59.1373  C     
10   C        17.4102   26.9150   58.6601  C     
11   C        16.9524   26.5989   57.3624  C     
12   C        16.4940   27.6308   56.5104  C     
13   C        16.4341   28.9542   56.9912  C     
14   C        16.8661   29.2550   58.2926  C     
15   C        21.6257   31.5166   61.1328  C     
16   O        22.2516   30.6692   60.2863  O     
17   O        21.1960   32.6603   60.5537  O     
18   Cl       16.9448   24.9648   56.8987  Cl    
19   Cl       15.9663   27.3174   54.9216  Cl    
20   C        18.7267   29.7676   65.5149  C     
21   C        18.0368   29.4732   66.4461  C     
22   C        17.2495   29.1773   67.4444  C     
23   C        17.7472   28.4664   68.5640  C     
24   C        16.8932   28.1822   69.6505  C     
25   C        15.5461   28.5782   69.6165  C     
26   C        15.0458   29.2879   68.5048  C     
27   C        15.8950   29.5778   67.4179  C     
28   N        13.7602   29.6835   68.5010  N     
29   H        20.9104   31.2047   65.5841  H     
30   H        22.1550   31.9442   63.6554  H     
31   H        18.2298   29.1274   63.0527  H     
32   H        18.1664   27.6798   61.0623  H     
33   H        17.0505   29.0645   61.0567  H     
34   H        17.7632   26.1659   59.2602  H     
35   H        16.0861   29.7068   56.3871  H     
36   H        16.8237   30.2265   58.6172  H     
37   H        18.7265   28.1624   68.6054  H     
38   H        17.2587   27.6963   70.4669  H     
39   H        14.9429   28.3704   70.4126  H     
40   H        15.5176   30.0893   66.6136  H     
41   H        13.4006   30.1858   67.7535  H     
42   H        13.1936   29.4830   69.2633  H     
@<TRIPOS>BOND
     1    1    2 2
     2    1    6 1
     3    1   20 1
     4    2    3 1
     5    3    4 2
     6    4    5 1
     7    4   15 1
     8    5    6 2
     9    5    7 1
    10    7    8 1
    11    8    9 1
    12    9   10 2
    13    9   14 1
    14   10   11 1
    15   11   12 2
    16   11   18 1
    17   12   13 1
    18   12   19 1
    19   13   14 2
    20   15   16 2
    21   15   17 1
    22   20   21 3
    23   21   22 1
    24   22   23 2
    25   22   27 1
    26   23   24 1
    27   24   25 2
    28   25   26 1
    29   26   27 2
    30   26   28 1
    31    2   29 1
    32    3   30 1
    33    6   31 1
    34    8   32 1
    35    8   33 1
    36   10   34 1
    37   13   35 1
    38   14   36 1
    39   23   37 1
    40   24   38 1
    41   25   39 1
    42   27   40 1
    43   28   41 1
    44   28   42 1
@<TRIPOS>PROPERTY_DATA
  Total_Score	| 12.0333
  Crash		| -0.8985
  Polar		| 5.5073
  FragIndex	| 1
  FragRMSD	| 0.921

