@<TRIPOS>MOLECULE
BindingDB_50355636
 25 26 0 0 0
SMALL
NO_CHARGES


@<TRIPOS>ATOM
1    Cl       17.0445   25.0750   56.9214  Cl    
2    Cl       16.0016   27.4146   54.9588  Cl    
3    S        19.8173   28.4054   60.5805  S     
4    S        20.7465   31.0970   63.7063  S     
5    O        21.2188   32.6222   60.9041  O     
6    O        22.1004   30.6334   60.1064  O     
7    C        20.1209   29.3122   62.0385  C     
8    C        20.7578   30.5661   62.0699  C     
9    C        17.5161   28.3775   59.1284  C     
10   C        21.3333   31.2795   61.0083  C     
11   C        19.6834   28.8559   63.2971  C     
12   C        17.0288   26.7067   57.3884  C     
13   C        18.0345   28.7187   60.4786  C     
14   C        16.5700   27.7308   56.5264  C     
15   C        17.4889   27.0355   58.6813  C     
16   C        19.9501   29.7219   64.3573  C     
17   C        17.0399   29.3859   58.2593  C     
18   C        16.5782   29.0673   56.9703  C     
19   H        19.1958   27.9684   63.4291  H     
20   H        17.5153   28.1190   61.2296  H     
21   H        17.8514   29.7718   60.7078  H     
22   H        17.8169   26.2907   59.3032  H     
23   H        19.7094   29.5734   65.3385  H     
24   H        17.0382   30.3658   58.5532  H     
25   H        16.2529   29.8187   56.3564  H     
@<TRIPOS>BOND
     1    1   12 1
     2    2   14 1
     3    3    7 1
     4    3   13 1
     5    4    8 1
     6    4   16 1
     7    5   10 2
     8    6   10 1
     9    7    8 2
    10    7   11 1
    11    8   10 1
    12    9   13 1
    13    9   15 1
    14    9   17 2
    15   11   16 2
    16   12   14 1
    17   12   15 2
    18   14   18 2
    19   17   18 1
    20   11   19 1
    21   13   20 1
    22   13   21 1
    23   15   22 1
    24   16   23 1
    25   17   24 1
    26   18   25 1
@<TRIPOS>PROPERTY_DATA
  Total_Score	| 7.8757
  Crash		| -0.9728
  Polar		| 3.5738
  FragIndex	| 1
  FragRMSD	| 0.158

