@<TRIPOS>MOLECULE
BindingDB_50355652
 28 29 0 0 0
SMALL
NO_CHARGES


@<TRIPOS>ATOM
1    C        19.8731   29.5293   64.4768  C     
2    C        20.4865   30.7924   64.4746  C     
3    C        20.9130   31.3642   63.2630  C     
4    C        20.7430   30.6778   62.0382  C     
5    C        20.1025   29.4064   62.0420  C     
6    C        19.6772   28.8437   63.2658  C     
7    S        19.7947   28.5012   60.5760  S     
8    C        18.0031   28.7638   60.4914  C     
9    C        17.4840   28.4098   59.1445  C     
10   C        17.4708   27.0654   58.7035  C     
11   C        17.0146   26.7256   57.4121  C     
12   C        16.5447   27.7405   56.5452  C     
13   C        16.5379   29.0789   56.9835  C     
14   C        16.9957   29.4084   58.2711  C     
15   C        21.2517   31.2630   60.8582  C     
16   O        21.1075   32.5809   60.5912  O     
17   O        22.1684   30.5884   60.1336  O     
18   Cl       17.0511   25.0925   56.9510  Cl    
19   Cl       15.9812   27.4108   54.9786  Cl    
20   H        19.5657   29.1112   65.3581  H     
21   H        20.6323   31.2907   65.3553  H     
22   H        21.3775   32.2756   63.2882  H     
23   H        19.2180   27.9300   63.2850  H     
24   H        17.5067   28.1488   61.2458  H     
25   H        17.7952   29.8111   60.7237  H     
26   H        17.8070   26.3272   59.3288  H     
27   H        16.2045   29.8239   56.3660  H     
28   H        16.9828   30.3895   58.5608  H     
@<TRIPOS>BOND
     1    1    2 2
     2    1    6 1
     3    2    3 1
     4    3    4 2
     5    4    5 1
     6    4   15 1
     7    5    6 2
     8    5    7 1
     9    7    8 1
    10    8    9 1
    11    9   10 2
    12    9   14 1
    13   10   11 1
    14   11   12 2
    15   11   18 1
    16   12   13 1
    17   12   19 1
    18   13   14 2
    19   15   16 2
    20   15   17 1
    21    1   20 1
    22    2   21 1
    23    3   22 1
    24    6   23 1
    25    8   24 1
    26    8   25 1
    27   10   26 1
    28   13   27 1
    29   14   28 1
@<TRIPOS>PROPERTY_DATA
  Total_Score	| 9.7913
  Crash		| -0.8950
  Polar		| 4.4802
  FragIndex	| 1
  FragRMSD	| 0.078

