@<TRIPOS>MOLECULE
BindingDB_50355653
 25 26 0 0 0
SMALL
NO_CHARGES


@<TRIPOS>ATOM
1    S        20.7292   31.1363   63.6026  S     
2    C        20.6849   30.5731   61.9780  C     
3    C        20.0773   29.3076   62.0005  C     
4    C        19.6938   28.8721   63.2834  C     
5    C        19.9796   29.7671   64.3138  C     
6    C        21.2129   31.2596   60.8763  C     
7    O        21.1209   32.6031   60.7771  O     
8    O        22.1753   30.6451   60.1623  O     
9    S        19.7591   28.3560   60.5783  S     
10   C        18.0111   28.8027   60.3928  C     
11   C        17.4976   28.3856   59.0637  C     
12   C        17.4406   27.0176   58.6972  C     
13   C        17.0065   26.6350   57.4113  C     
14   C        16.5996   27.6158   56.4874  C     
15   C        16.6371   28.9750   56.8413  C     
16   C        17.0659   29.3545   58.1254  C     
17   Cl       16.9849   25.0016   56.9707  Cl    
18   H        19.2293   27.9802   63.4527  H     
19   H        19.7808   29.6347   65.3065  H     
20   H        17.4221   28.3218   61.1802  H     
21   H        17.9197   29.8839   60.5164  H     
22   H        17.7327   26.2997   59.3649  H     
23   H        16.2828   27.3481   55.5506  H     
24   H        16.3563   29.6853   56.1631  H     
25   H        17.0945   30.3499   58.3576  H     
@<TRIPOS>BOND
     1    1    2 1
     2    1    5 1
     3    2    3 2
     4    2    6 1
     5    3    4 1
     6    3    9 1
     7    4    5 2
     8    6    7 2
     9    6    8 1
    10    9   10 1
    11   10   11 1
    12   11   12 2
    13   11   16 1
    14   12   13 1
    15   13   14 2
    16   13   17 1
    17   14   15 1
    18   15   16 2
    19    4   18 1
    20    5   19 1
    21   10   20 1
    22   10   21 1
    23   12   22 1
    24   14   23 1
    25   15   24 1
    26   16   25 1
@<TRIPOS>PROPERTY_DATA
  Total_Score	| 7.4525
  Crash		| -1.0354
  Polar		| 3.9107
  FragIndex	| 1
  FragRMSD	| 0.156

