@<TRIPOS>MOLECULE
BindingDB_50355640
 25 26 0 0 0
SMALL
NO_CHARGES


@<TRIPOS>ATOM
1    S        21.0082   31.1156   63.6862  S     
2    C        20.8326   30.5437   62.0735  C     
3    C        20.1301   29.3235   62.1384  C     
4    C        19.7857   28.9368   63.4477  C     
5    C        20.1972   29.8113   64.4511  C     
6    C        21.3662   31.2137   60.9650  C     
7    O        21.2877   32.5585   60.8414  O     
8    O        22.1414   30.5477   60.0886  O     
9    S        19.6444   28.2922   60.8203  S     
10   C        18.7585   29.4702   59.7623  C     
11   C        17.9331   28.8433   58.6939  C     
12   C        16.7631   29.4979   58.2346  C     
13   C        16.0386   29.0031   57.1348  C     
14   C        16.4616   27.8291   56.4834  C     
15   C        17.6080   27.1520   56.9405  C     
16   C        18.3525   27.6704   58.0168  C     
17   Cl       15.6271   27.2693   55.1219  Cl    
18   H        19.2727   28.0800   63.6610  H     
19   H        20.0423   29.7018   65.4547  H     
20   H        18.1360   30.1025   60.3998  H     
21   H        19.4930   30.1067   59.2701  H     
22   H        16.4480   30.3658   58.6739  H     
23   H        15.2193   29.5154   56.7962  H     
24   H        17.9299   26.3040   56.4668  H     
25   H        19.2176   27.1950   58.2876  H     
@<TRIPOS>BOND
     1    1    2 1
     2    1    5 1
     3    2    3 2
     4    2    6 1
     5    3    4 1
     6    3    9 1
     7    4    5 2
     8    6    7 2
     9    6    8 1
    10    9   10 1
    11   10   11 1
    12   11   12 2
    13   11   16 1
    14   12   13 1
    15   13   14 2
    16   14   15 1
    17   14   17 1
    18   15   16 2
    19    4   18 1
    20    5   19 1
    21   10   20 1
    22   10   21 1
    23   12   22 1
    24   13   23 1
    25   15   24 1
    26   16   25 1
@<TRIPOS>PROPERTY_DATA
  Total_Score	| 6.8117
  Crash		| -1.1467
  Polar		| 3.6691
  FragIndex	| 1
  FragRMSD	| 0.580

