@<TRIPOS>MOLECULE
BindingDB_50355644
 28 29 0 0 0
SMALL
NO_CHARGES


@<TRIPOS>ATOM
1    C        19.5810   29.8713   64.4362  C     
2    C        20.3291   31.0575   64.3975  C     
3    C        20.8895   31.4969   63.1874  C     
4    C        20.7262   30.7472   62.0006  C     
5    C        20.0015   29.5227   62.0481  C     
6    C        19.4391   29.0950   63.2724  C     
7    S        19.7251   28.5411   60.6248  S     
8    C        17.9362   28.8006   60.4726  C     
9    C        17.4536   28.4192   59.1190  C     
10   C        17.4546   27.0673   58.7015  C     
11   C        17.0272   26.7031   57.4069  C     
12   C        16.5719   27.7004   56.5127  C     
13   C        16.5498   29.0460   56.9272  C     
14   C        16.9783   29.3996   58.2183  C     
15   C        21.2811   31.2588   60.8093  C     
16   O        21.1550   32.5632   60.4762  O     
17   O        22.2069   30.5409   60.1432  O     
18   Cl       17.0798   25.0627   56.9742  Cl    
19   Cl       16.0389   27.3407   54.9419  Cl    
20   Br       18.7213   29.3848   66.0123  Br    
21   H        20.4518   31.6137   65.2444  H     
22   H        21.4208   32.3718   63.1826  H     
23   H        18.8967   28.2298   63.3187  H     
24   H        17.4151   28.2024   61.2237  H     
25   H        17.7215   29.8524   60.6757  H     
26   H        17.7794   26.3413   59.3469  H     
27   H        16.2248   29.7786   56.2906  H     
28   H        16.9503   30.3846   58.4922  H     
@<TRIPOS>BOND
     1    1    2 2
     2    1    6 1
     3    1   20 1
     4    2    3 1
     5    3    4 2
     6    4    5 1
     7    4   15 1
     8    5    6 2
     9    5    7 1
    10    7    8 1
    11    8    9 1
    12    9   10 2
    13    9   14 1
    14   10   11 1
    15   11   12 2
    16   11   18 1
    17   12   13 1
    18   12   19 1
    19   13   14 2
    20   15   16 2
    21   15   17 1
    22    2   21 1
    23    3   22 1
    24    6   23 1
    25    8   24 1
    26    8   25 1
    27   10   26 1
    28   13   27 1
    29   14   28 1
@<TRIPOS>PROPERTY_DATA
  Total_Score	| 8.8019
  Crash		| -1.5968
  Polar		| 4.6184
  FragIndex	| 1
  FragRMSD	| 0.193

