@<TRIPOS>MOLECULE
BindingDB_50355641
 50 52 0 0 0
SMALL
NO_CHARGES


@<TRIPOS>ATOM
1    C        19.8666   29.9926   64.7396  C     
2    C        20.6289   31.1681   64.5923  C     
3    C        21.0934   31.5499   63.3233  C     
4    C        20.8606   30.7368   62.1878  C     
5    C        20.1136   29.5337   62.3379  C     
6    C        19.6136   29.1825   63.6128  C     
7    S        19.7443   28.4526   60.9955  S     
8    C        18.0780   29.0597   60.6280  C     
9    C        17.5052   28.6421   59.3143  C     
10   C        17.5618   27.3128   58.8279  C     
11   C        17.0803   26.9818   57.5387  C     
12   C        16.4963   27.9826   56.7288  C     
13   C        16.3988   29.2961   57.2198  C     
14   C        16.8839   29.6193   58.4989  C     
15   C        21.3623   31.1752   60.9452  C     
16   O        21.0443   32.4002   60.4688  O     
17   O        22.2354   30.4188   60.2429  O     
18   Cl       17.2551   25.3837   56.9967  Cl    
19   Cl       15.8799   27.6640   55.1808  Cl    
20   C        19.3503   29.6706   65.8880  C     
21   C        18.8564   29.3883   66.9386  C     
22   C        18.3277   29.0919   68.0860  C     
23   C        19.1632   28.9682   69.2123  C     
24   C        18.6079   28.6425   70.4583  C     
25   C        17.2210   28.4542   70.5900  C     
26   C        16.3589   28.5968   69.4737  C     
27   C        16.9342   28.8999   68.2186  C     
28   N        14.9924   28.4567   69.5012  N     
29   C        14.0577   29.2747   69.9750  C     
30   C        12.6613   28.8925   69.8868  C     
31   O        14.3134   30.3644   70.4730  O     
32   N        12.4232   27.6390   70.6124  N     
33   H        20.8343   31.7700   65.3948  H     
34   H        21.6263   32.4240   63.2452  H     
35   H        19.0430   28.3338   63.7119  H     
36   H        17.4022   28.7338   61.4233  H     
37   H        18.1159   30.1522   60.6478  H     
38   H        17.9609   26.5773   59.4159  H     
39   H        15.9878   30.0297   56.6395  H     
40   H        16.7995   30.5888   58.8185  H     
41   H        20.1770   29.1016   69.1383  H     
42   H        19.2172   28.5461   71.2738  H     
43   H        16.8604   28.1871   71.5044  H     
44   H        16.3277   28.9818   67.3938  H     
45   H        14.6486   27.6530   69.0756  H     
46   H        12.0137   29.6646   70.3064  H     
47   H        12.3637   28.7488   68.8453  H     
48   H        13.0110   26.9044   70.2145  H     
49   H        11.4409   27.3664   70.5248  H     
50   H        12.6536   27.7574   71.6015  H     
@<TRIPOS>BOND
     1    1    2 2
     2    1    6 1
     3    1   20 1
     4    2    3 1
     5    3    4 2
     6    4    5 1
     7    4   15 1
     8    5    6 2
     9    5    7 1
    10    7    8 1
    11    8    9 1
    12    9   10 2
    13    9   14 1
    14   10   11 1
    15   11   12 2
    16   11   18 1
    17   12   13 1
    18   12   19 1
    19   13   14 2
    20   15   16 2
    21   15   17 1
    22   20   21 3
    23   21   22 1
    24   22   23 2
    25   22   27 1
    26   23   24 1
    27   24   25 2
    28   25   26 1
    29   26   27 2
    30   26   28 1
    31   28   29 am
    32   29   30 1
    33   29   31 2
    34   30   32 1
    35    2   33 1
    36    3   34 1
    37    6   35 1
    38    8   36 1
    39    8   37 1
    40   10   38 1
    41   13   39 1
    42   14   40 1
    43   23   41 1
    44   24   42 1
    45   25   43 1
    46   27   44 1
    47   28   45 1
    48   30   46 1
    49   30   47 1
    50   32   48 1
    51   32   49 1
    52   32   50 1
@<TRIPOS>PROPERTY_DATA
  Total_Score	| 11.3495
  Crash		| -2.7830
  Polar		| 6.9716
  FragIndex	| 1
  FragRMSD	| 0.366

