@<TRIPOS>MOLECULE
BindingDB_50355650
 37 38 0 0 0
SMALL
NO_CHARGES


@<TRIPOS>ATOM
1    C        19.6209   29.8126   64.4992  C     
2    C        20.3452   31.0192   64.4278  C     
3    C        20.8624   31.4710   63.2021  C     
4    C        20.6970   30.7159   62.0263  C     
5    C        19.9978   29.4812   62.1020  C     
6    C        19.4601   29.0381   63.3337  C     
7    S        19.7170   28.4971   60.6812  S     
8    C        17.9370   28.7987   60.5147  C     
9    C        17.4651   28.4053   59.1572  C     
10   C        17.4716   27.0526   58.7428  C     
11   C        17.0355   26.6841   57.4505  C     
12   C        16.5490   27.6770   56.5636  C     
13   C        16.5541   29.0274   56.9655  C     
14   C        17.0042   29.3845   58.2460  C     
15   C        21.2303   31.2286   60.8253  C     
16   O        22.2038   30.5533   60.1903  O     
17   O        21.0298   32.5038   60.4362  O     
18   Cl       17.0662   25.0397   57.0298  Cl    
19   Cl       15.9891   27.3162   55.0043  Cl    
20   C        19.1198   29.4530   65.6521  C     
21   C        18.6971   29.1735   66.7361  C     
22   C        18.2830   28.8781   68.0056  C     
23   C        17.1382   27.8438   68.0963  C     
24   O        15.8694   28.4057   67.7331  O     
25   H        20.4831   31.6076   65.2584  H     
26   H        21.3804   32.3585   63.1867  H     
27   H        18.9453   28.1504   63.3811  H     
28   H        17.3908   28.2321   61.2621  H     
29   H        17.7339   29.8515   60.6982  H     
30   H        17.7947   26.3315   59.3966  H     
31   H        16.2125   29.7559   56.3323  H     
32   H        16.9768   30.3725   58.5146  H     
33   H        19.1559   28.4813   68.5354  H     
34   H        17.9606   29.7986   68.4984  H     
35   H        17.3486   26.9779   67.4658  H     
36   H        17.0694   27.4920   69.1331  H     
37   H        15.1981   27.7533   68.0535  H     
@<TRIPOS>BOND
     1    1    2 2
     2    1    6 1
     3    1   20 1
     4    2    3 1
     5    3    4 2
     6    4    5 1
     7    4   15 1
     8    5    6 2
     9    5    7 1
    10    7    8 1
    11    8    9 1
    12    9   10 2
    13    9   14 1
    14   10   11 1
    15   11   12 2
    16   11   18 1
    17   12   13 1
    18   12   19 1
    19   13   14 2
    20   15   16 2
    21   15   17 1
    22   20   21 3
    23   21   22 1
    24   22   23 1
    25   23   24 1
    26    2   25 1
    27    3   26 1
    28    6   27 1
    29    8   28 1
    30    8   29 1
    31   10   30 1
    32   13   31 1
    33   14   32 1
    34   22   33 1
    35   22   34 1
    36   23   35 1
    37   23   36 1
    38   24   37 1
@<TRIPOS>PROPERTY_DATA
  Total_Score	| 11.6406
  Crash		| -1.4037
  Polar		| 5.3865
  FragIndex	| 1
  FragRMSD	| 0.764

