@<TRIPOS>MOLECULE
BindingDB_50355654
 36 37 0 0 0
SMALL
NO_CHARGES


@<TRIPOS>ATOM
1    O        24.8671   33.3692   61.7019  O     
2    S        24.0398   32.4333   60.7090  S     
3    O        23.2873   33.4784   59.7743  O     
4    C        19.6632   29.2802   64.5204  C     
5    C        20.3976   30.4530   64.7794  C     
6    C        20.9983   31.1432   63.7183  C     
7    C        20.8972   30.6903   62.3734  C     
8    C        20.0629   29.5589   62.1109  C     
9    C        19.4834   28.8465   63.1923  C     
10   S        19.8078   28.8933   60.5088  S     
11   C        17.9916   28.7241   60.5310  C     
12   C        17.4971   28.3663   59.1729  C     
13   C        17.4983   27.0291   58.6985  C     
14   C        17.0413   26.7105   57.3920  C     
15   C        16.5850   27.7435   56.5315  C     
16   C        16.6057   29.0749   56.9854  C     
17   C        17.0492   29.3805   58.2884  C     
18   C        21.6686   31.3432   61.4121  C     
19   O        21.1536   31.7405   60.3683  O     
20   N        22.9481   31.5844   61.6620  N     
21   Cl       17.0607   25.0821   56.8953  Cl    
22   Cl       15.9886   27.4403   54.9705  Cl    
23   C        25.2085   31.4134   59.7963  C     
24   H        19.2586   28.7574   65.3042  H     
25   H        20.5203   30.7813   65.7403  H     
26   H        21.5196   31.9918   63.9496  H     
27   H        18.9479   27.9880   63.0064  H     
28   H        17.6807   27.9738   61.2743  H     
29   H        17.5475   29.6799   60.8450  H     
30   H        17.8209   26.2683   59.3130  H     
31   H        16.3013   29.8377   56.3710  H     
32   H        17.0587   30.3595   58.5833  H     
33   H        23.3112   31.2402   62.4900  H     
34   H        25.8473   32.0376   59.1619  H     
35   H        24.6680   30.7013   59.1709  H     
36   H        25.8403   30.8628   60.4997  H     
@<TRIPOS>BOND
     1    1    2 2
     2    2    3 2
     3    2   20 1
     4    2   23 1
     5    4    5 2
     6    4    9 1
     7    5    6 1
     8    6    7 2
     9    7    8 1
    10    7   18 1
    11    8    9 2
    12    8   10 1
    13   10   11 1
    14   11   12 1
    15   12   13 2
    16   12   17 1
    17   13   14 1
    18   14   15 2
    19   14   21 1
    20   15   16 1
    21   15   22 1
    22   16   17 2
    23   18   19 2
    24   18   20 am
    25    4   24 1
    26    5   25 1
    27    6   26 1
    28    9   27 1
    29   11   28 1
    30   11   29 1
    31   13   30 1
    32   16   31 1
    33   17   32 1
    34   20   33 1
    35   23   34 1
    36   23   35 1
    37   23   36 1
@<TRIPOS>PROPERTY_DATA
  Total_Score	| 6.4406
  Crash		| -1.4677
  Polar		| 1.4324
  FragIndex	| 1
  FragRMSD	| 0.360

