@<TRIPOS>MOLECULE
BindingDB_50355633
 40 42 0 0 0
SMALL
NO_CHARGES


@<TRIPOS>ATOM
1    C        19.8415   29.6558   64.5044  C     
2    C        20.5011   30.9011   64.4480  C     
3    C        20.9658   31.3993   63.2198  C     
4    C        20.7766   30.6773   62.0210  C     
5    C        20.1118   29.4205   62.0739  C     
6    C        19.6628   28.9049   63.3121  C     
7    S        19.7481   28.5130   60.6201  S     
8    C        17.9438   28.7780   60.5403  C     
9    C        17.4663   28.4325   59.1714  C     
10   C        17.4602   27.0853   58.7449  C     
11   C        17.0128   26.7404   57.4547  C     
12   C        16.5557   27.7431   56.5741  C     
13   C        16.5512   29.0860   56.9968  C     
14   C        17.0027   29.4285   58.2864  C     
15   C        21.2547   31.2285   60.8151  C     
16   O        22.3458   30.6805   60.2264  O     
17   O        20.9522   32.4948   60.4451  O     
18   Cl       17.0700   25.1018   57.0085  Cl    
19   Cl       15.9845   27.3879   55.0136  Cl    
20   C        19.3064   29.2715   65.6291  C     
21   C        18.7725   28.9648   66.6527  C     
22   C        18.1717   28.6719   67.7682  C     
23   C        16.8589   28.1554   67.7371  C     
24   C        16.1615   27.9123   68.9396  C     
25   C        16.7768   28.1754   70.1789  C     
26   C        18.0792   28.7122   70.2189  C     
27   C        18.7822   28.9574   69.0152  C     
28   Cl       18.7891   29.0943   71.7110  Cl    
29   H        20.6407   31.4640   65.2956  H     
30   H        21.4492   32.3005   63.2151  H     
31   H        19.1796   27.9984   63.3454  H     
32   H        17.4700   28.1280   61.2984  H     
33   H        17.7015   29.8222   60.8043  H     
34   H        17.7927   26.3516   59.3803  H     
35   H        16.2403   29.8322   56.3653  H     
36   H        17.0134   30.4161   58.5661  H     
37   H        16.3886   27.9526   66.8509  H     
38   H        15.2067   27.5457   68.9110  H     
39   H        16.2498   28.0214   71.0465  H     
40   H        19.7242   29.3593   69.0587  H     
@<TRIPOS>BOND
     1    1    2 2
     2    1    6 1
     3    1   20 1
     4    2    3 1
     5    3    4 2
     6    4    5 1
     7    4   15 1
     8    5    6 2
     9    5    7 1
    10    7    8 1
    11    8    9 1
    12    9   10 2
    13    9   14 1
    14   10   11 1
    15   11   12 2
    16   11   18 1
    17   12   13 1
    18   12   19 1
    19   13   14 2
    20   15   16 2
    21   15   17 1
    22   20   21 3
    23   21   22 1
    24   22   23 2
    25   22   27 1
    26   23   24 1
    27   24   25 2
    28   25   26 1
    29   26   27 2
    30   26   28 1
    31    2   29 1
    32    3   30 1
    33    6   31 1
    34    8   32 1
    35    8   33 1
    36   10   34 1
    37   13   35 1
    38   14   36 1
    39   23   37 1
    40   24   38 1
    41   25   39 1
    42   27   40 1
@<TRIPOS>PROPERTY_DATA
  Total_Score	| 11.4154
  Crash		| -1.8566
  Polar		| 4.6809
  FragIndex	| 1
  FragRMSD	| 0.754

