@<TRIPOS>MOLECULE
BindingDB_16636
 33 35 0 0 0
SMALL
NO_CHARGES


@<TRIPOS>ATOM
1    C        17.1791   -6.6798   16.4000  C     
2    C        16.2909   -5.6867   18.7422  C     
3    C        17.1429   -6.7540   18.7507  C     
4    C        17.5939   -7.2420   17.5797  C     
5    N        16.3892   -5.6521   16.4590  N     
6    N        15.9807   -5.1294   17.5670  N     
7    O        15.7118   -5.3128   19.7461  O     
8    C        16.9863   -6.3325   13.6102  C     
9    C        17.8319   -5.3978   12.9883  C     
10   C        15.7311   -5.3078   12.1730  C     
11   C        17.0146   -4.7711   12.0479  C     
12   C        17.2483   -3.7749   11.0887  C     
13   C        14.6605   -4.8962   11.3694  C     
14   S        17.3808   -7.4438   14.8768  S     
15   O        18.6539   -8.1533   14.2804  O     
16   O        16.2859   -8.5978   14.7827  O     
17   C        14.8871   -3.8873   10.4194  C     
18   C        16.1778   -3.3334   10.2756  C     
19   O        15.7293   -6.2488   13.1291  O     
20   C        19.2514   -4.9938   13.2305  C     
21   C        20.2742   -5.9761   13.8459  C     
22   Cl       16.4161   -2.1371    9.1157  Cl    
23   H        17.4340   -7.1592   19.6095  H     
24   H        18.2230   -8.0153   17.5726  H     
25   H        15.3652   -4.3816   17.5324  H     
26   H        18.1861   -3.3838   10.9762  H     
27   H        13.7260   -5.2953   11.4998  H     
28   H        14.1114   -3.5548    9.8469  H     
29   H        19.6596   -4.6609   12.2851  H     
30   H        19.2475   -4.1170   13.8695  H     
31   H        19.9699   -6.3315   14.8259  H     
32   H        21.2363   -5.4607   13.9540  H     
33   H        20.4480   -6.8633   13.2324  H     
@<TRIPOS>BOND
     1    1    4 1
     2    1    5 2
     3    1   14 1
     4    2    3 1
     5    2    6 1
     6    2    7 2
     7    3    4 2
     8    5    6 1
     9    8    9 2
    10    8   14 1
    11    8   19 1
    12    9   11 1
    13    9   20 1
    14   10   11 2
    15   10   13 1
    16   10   19 1
    17   11   12 1
    18   12   18 2
    19   13   17 2
    20   14   15 2
    21   14   16 2
    22   17   18 1
    23   18   22 1
    24   20   21 1
    25    3   23 1
    26    4   24 1
    27    6   25 1
    28   12   26 1
    29   13   27 1
    30   17   28 1
    31   20   29 1
    32   20   30 1
    33   21   31 1
    34   21   32 1
    35   21   33 1
@<TRIPOS>PROPERTY_DATA
  Total_Score	| 8.5379
  Crash		| -1.6271
  Polar		| 2.8029
  FragIndex	| 1
  FragRMSD	| 0.433

