@<TRIPOS>MOLECULE
BindingDB_16631
 27 29 0 0 0
SMALL
NO_CHARGES


@<TRIPOS>ATOM
1    C        17.3751   -6.8597   16.2087  C     
2    C        15.9611   -6.3281   18.4335  C     
3    C        17.2670   -6.7135   18.5590  C     
4    C        17.9793   -6.9778   17.4392  C     
5    N        16.1194   -6.5490   16.1653  N     
6    N        15.4173   -6.3019   17.2193  N     
7    O        15.2862   -6.0041   19.3992  O     
8    C        17.5108   -6.1812   13.4726  C     
9    C        18.1567   -5.1477   12.7972  C     
10   C        16.0752   -5.3870   12.0371  C     
11   C        17.2453   -4.6453   11.8760  C     
12   C        17.3236   -3.6173   10.9246  C     
13   C        14.9413   -5.1233   11.2511  C     
14   S        18.1736   -7.1716   14.7315  S     
15   O        19.7436   -6.9527   14.8354  O     
16   O        17.9002   -8.6862   14.3355  O     
17   C        14.9945   -4.0816   10.3028  C     
18   C        16.1855   -3.3384   10.1331  C     
19   Cl       16.2444   -2.0985    8.9864  Cl    
20   Cl       13.5522   -6.0542   11.4669  Cl    
21   O        16.2469   -6.3147   13.0035  O     
22   H        17.6785   -6.8416   19.4540  H     
23   H        18.9206   -7.2846   17.5205  H     
24   H        14.4776   -6.0907   17.1143  H     
25   H        19.1139   -4.8193   12.9522  H     
26   H        18.1839   -3.0750   10.8125  H     
27   H        14.1657   -3.8559    9.7421  H     
@<TRIPOS>BOND
     1    1    4 1
     2    1    5 2
     3    1   14 1
     4    2    3 1
     5    2    6 1
     6    2    7 2
     7    3    4 2
     8    5    6 1
     9    8    9 2
    10    8   14 1
    11    8   21 1
    12    9   11 1
    13   10   11 2
    14   10   13 1
    15   10   21 1
    16   11   12 1
    17   12   18 2
    18   13   17 2
    19   13   20 1
    20   14   15 2
    21   14   16 2
    22   17   18 1
    23   18   19 1
    24    3   22 1
    25    4   23 1
    26    6   24 1
    27    9   25 1
    28   12   26 1
    29   17   27 1
@<TRIPOS>PROPERTY_DATA
  Total_Score	| 6.9903
  Crash		| -1.2220
  Polar		| 2.8608
  FragIndex	| 1
  FragRMSD	| 0.546

