@<TRIPOS>MOLECULE
BindingDB_16456
 27 29 0 0 0
SMALL
NO_CHARGES


@<TRIPOS>ATOM
1    C        15.8925   -6.2770   18.4754  C     
2    C        17.1740   -6.7470   18.6144  C     
3    C        17.9223   -6.9380   17.5057  C     
4    C        17.3888   -6.6501   16.2708  C     
5    O        15.1563   -6.0744   19.4287  O     
6    N        15.4392   -6.0283   17.2509  N     
7    N        16.1704   -6.2054   16.2166  N     
8    S        18.2474   -6.8546   14.8120  S     
9    O        19.7069   -6.2672   15.0236  O     
10   O        18.4188   -8.3995   14.4839  O     
11   C        17.4381   -6.0683   13.4989  C     
12   C        15.8031   -5.4136   12.2198  C     
13   C        16.9569   -4.7807   11.7569  C     
14   C        14.5596   -5.2010   11.6079  C     
15   C        14.5039   -4.3440   10.4901  C     
16   C        15.6733   -3.7131   10.0068  C     
17   C        16.9153   -3.9219   10.6455  C     
18   C        17.9966   -5.1921   12.5753  C     
19   O        16.1067   -6.1943   13.2759  O     
20   H        17.5525   -6.9511   19.5126  H     
21   H        18.8554   -7.2865   17.5823  H     
22   H        14.5307   -5.7081   17.1313  H     
23   H        13.7180   -5.6595   11.9658  H     
24   H        13.6074   -4.1862   10.0326  H     
25   H        15.6210   -3.1007    9.1895  H     
26   H        17.7695   -3.4753   10.3007  H     
27   H        18.9760   -4.8990   12.5100  H     
@<TRIPOS>BOND
     1    1    2 1
     2    1    5 2
     3    1    6 1
     4    2    3 2
     5    3    4 1
     6    4    7 2
     7    4    8 1
     8    6    7 1
     9    8    9 2
    10    8   10 2
    11    8   11 1
    12   11   18 2
    13   11   19 1
    14   12   13 2
    15   12   14 1
    16   12   19 1
    17   13   17 1
    18   13   18 1
    19   14   15 2
    20   15   16 1
    21   16   17 2
    22    2   20 1
    23    3   21 1
    24    6   22 1
    25   14   23 1
    26   15   24 1
    27   16   25 1
    28   17   26 1
    29   18   27 1
@<TRIPOS>PROPERTY_DATA
  Total_Score	| 6.3117
  Crash		| -0.9891
  Polar		| 2.4766
  FragIndex	| 1
  FragRMSD	| 0.705

