@<TRIPOS>MOLECULE
BindingDB_16632
 30 32 0 0 0
SMALL
NO_CHARGES


@<TRIPOS>ATOM
1    C        17.3684   -7.0238   16.4049  C     
2    C        15.8166   -6.3572   18.5014  C     
3    C        17.1225   -6.6956   18.7243  C     
4    C        17.8959   -7.0398   17.6755  C     
5    N        16.1185   -6.7172   16.2616  N     
6    N        15.3476   -6.4156   17.2536  N     
7    O        15.0968   -5.9600   19.4015  O     
8    C        17.7272   -6.3154   13.6879  C     
9    C        18.3526   -5.2798   12.9817  C     
10   C        16.2577   -5.5836   12.2512  C     
11   C        17.4095   -4.8179   12.0654  C     
12   C        17.4350   -3.7956   11.0958  C     
13   C        15.0996   -5.3639   11.4916  C     
14   S        18.3374   -7.2546   15.0175  S     
15   O        19.8155   -6.8257   15.4163  O     
16   O        18.3738   -8.8000   14.6415  O     
17   C        15.1187   -4.3416   10.5202  C     
18   C        16.2806   -3.5613   10.3206  C     
19   O        16.4624   -6.4861   13.2327  O     
20   C        19.7183   -4.7611   13.1916  C     
21   Cl       13.7426   -4.0585    9.5880  Cl    
22   H        17.5014   -6.6920   19.6434  H     
23   H        18.8439   -7.2959   17.8291  H     
24   H        14.4175   -6.2019   17.0795  H     
25   H        18.2715   -3.2285   10.9496  H     
26   H        14.2689   -5.9414   11.6469  H     
27   H        16.2916   -2.8248    9.6118  H     
28   H        19.8025   -4.3646   14.2032  H     
29   H        19.9626   -3.9636   12.4902  H     
30   H        20.4423   -5.5670   13.0622  H     
@<TRIPOS>BOND
     1    1    4 1
     2    1    5 2
     3    1   14 1
     4    2    3 1
     5    2    6 1
     6    2    7 2
     7    3    4 2
     8    5    6 1
     9    8    9 2
    10    8   14 1
    11    8   19 1
    12    9   11 1
    13    9   20 1
    14   10   11 2
    15   10   13 1
    16   10   19 1
    17   11   12 1
    18   12   18 2
    19   13   17 2
    20   14   15 2
    21   14   16 2
    22   17   18 1
    23   17   21 1
    24    3   22 1
    25    4   23 1
    26    6   24 1
    27   12   25 1
    28   13   26 1
    29   18   27 1
    30   20   28 1
    31   20   29 1
    32   20   30 1
@<TRIPOS>PROPERTY_DATA
  Total_Score	| 6.5050
  Crash		| -2.1071
  Polar		| 2.5333
  FragIndex	| 1
  FragRMSD	| 0.731

