@<TRIPOS>MOLECULE
BindingDB_16637
 36 38 0 0 0
SMALL
NO_CHARGES


@<TRIPOS>ATOM
1    C        16.8612   -7.2327   16.4531  C     
2    C        16.3115   -6.6491   19.0267  C     
3    C        17.6157   -6.6878   18.6129  C     
4    C        17.8916   -6.9804   17.3246  C     
5    N        15.6475   -7.1851   16.9019  N     
6    N        15.3578   -6.9004   18.1302  N     
7    O        16.0120   -6.4274   20.1895  O     
8    C        16.7903   -6.6171   13.6301  C     
9    C        17.5855   -5.5859   13.0919  C     
10   C        15.5394   -5.6177   12.1575  C     
11   C        16.7710   -4.9571   12.1280  C     
12   C        16.9215   -3.8789   11.2224  C     
13   C        14.4530   -5.2474   11.3519  C     
14   S        17.1115   -7.8027   14.8638  S     
15   O        18.4692   -8.6136   14.7140  O     
16   O        16.0240   -8.9403   14.6470  O     
17   C        14.6078   -4.1644   10.4691  C     
18   C        15.8424   -3.4846   10.3979  C     
19   O        15.5676   -6.6113   13.0586  O     
20   C        18.9685   -5.2672   13.5852  C     
21   C        19.8810   -6.5290   13.7309  C     
22   Cl       16.0178   -2.1875    9.3249  Cl    
23   C        19.7366   -4.1692   12.8095  C     
24   H        18.3543   -6.5082   19.2523  H     
25   H        18.8373   -7.0198   17.0204  H     
26   H        14.4292   -6.9163   18.4094  H     
27   H        17.7982   -3.3722   11.1444  H     
28   H        13.5697   -5.7541   11.4136  H     
29   H        13.8208   -3.8761    9.8815  H     
30   H        18.8269   -4.8493   14.5881  H     
31   H        20.0243   -6.7728   14.7849  H     
32   H        20.8760   -6.3837   13.3071  H     
33   H        19.4433   -7.3946   13.2345  H     
34   H        20.0124   -4.5190   11.8137  H     
35   H        20.6476   -3.9206   13.3498  H     
36   H        19.1504   -3.2579   12.7263  H     
@<TRIPOS>BOND
     1    1    4 1
     2    1    5 2
     3    1   14 1
     4    2    3 1
     5    2    6 1
     6    2    7 2
     7    3    4 2
     8    5    6 1
     9    8    9 2
    10    8   14 1
    11    8   19 1
    12    9   11 1
    13    9   20 1
    14   10   11 2
    15   10   13 1
    16   10   19 1
    17   11   12 1
    18   12   18 2
    19   13   17 2
    20   14   15 2
    21   14   16 2
    22   17   18 1
    23   18   22 1
    24   20   21 1
    25   20   23 1
    26    3   24 1
    27    4   25 1
    28    6   26 1
    29   12   27 1
    30   13   28 1
    31   17   29 1
    32   20   30 1
    33   21   31 1
    34   21   32 1
    35   21   33 1
    36   23   34 1
    37   23   35 1
    38   23   36 1
@<TRIPOS>PROPERTY_DATA
  Total_Score	| 7.2443
  Crash		| -2.9991
  Polar		| 1.8811
  FragIndex	| 1
  FragRMSD	| 0.690

