@<TRIPOS>MOLECULE
BindingDB_16630
 31 33 0 0 0
SMALL
NO_CHARGES


@<TRIPOS>ATOM
1    C        17.3534   -6.7682   16.3354  C     
2    C        15.9061   -6.2493   18.5402  C     
3    C        17.2055   -6.6598   18.6787  C     
4    C        17.9255   -6.9378   17.5720  C     
5    N        16.1193   -6.3815   16.2709  N     
6    N        15.3993   -6.1456   17.3137  N     
7    O        15.1950   -5.9744   19.4946  O     
8    C        17.4189   -6.2563   13.5415  C     
9    C        18.0391   -5.4835   12.5662  C     
10   C        15.8320   -5.5721   12.2152  C     
11   C        17.0289   -5.0507   11.7229  C     
12   C        17.0502   -4.2564   10.5653  C     
13   C        14.6073   -5.3104   11.5863  C     
14   S        18.2089   -7.0238   14.8822  S     
15   O        19.7138   -6.5327   15.0259  O     
16   O        18.2495   -8.5875   14.6055  O     
17   C        14.6114   -4.5118   10.4253  C     
18   C        15.8222   -3.9657    9.9266  C     
19   O        16.0816   -6.3054   13.3196  O     
20   O        15.8294   -3.1751    8.8190  O     
21   C        15.9659   -1.7896    9.1625  C     
22   H        17.6214   -6.7444   19.5809  H     
23   H        18.8675   -7.2371   17.6591  H     
24   H        14.4735   -5.8952   17.1893  H     
25   H        19.0330   -5.2684   12.4980  H     
26   H        17.9321   -3.8990   10.1894  H     
27   H        13.7393   -5.6929   11.9612  H     
28   H        13.7241   -4.3259    9.9418  H     
29   H        15.1043   -1.4345    9.7341  H     
30   H        16.0182   -1.2203    8.2279  H     
31   H        16.8858   -1.5877    9.7278  H     
@<TRIPOS>BOND
     1    1    4 1
     2    1    5 2
     3    1   14 1
     4    2    3 1
     5    2    6 1
     6    2    7 2
     7    3    4 2
     8    5    6 1
     9    8    9 2
    10    8   14 1
    11    8   19 1
    12    9   11 1
    13   10   11 2
    14   10   13 1
    15   10   19 1
    16   11   12 1
    17   12   18 2
    18   13   17 2
    19   14   15 2
    20   14   16 2
    21   17   18 1
    22   18   20 1
    23   20   21 1
    24    3   22 1
    25    4   23 1
    26    6   24 1
    27    9   25 1
    28   12   26 1
    29   13   27 1
    30   17   28 1
    31   21   29 1
    32   21   30 1
    33   21   31 1
@<TRIPOS>PROPERTY_DATA
  Total_Score	| 8.2302
  Crash		| -1.0119
  Polar		| 2.2468
  FragIndex	| 1
  FragRMSD	| 0.686

