@<TRIPOS>MOLECULE
BindingDB_16315
 30 32 0 0 0
SMALL
NO_CHARGES


@<TRIPOS>ATOM
1    C        14.7996   -5.0610   11.3997  C     
2    C        14.8463   -3.9957   10.4779  C     
3    C        16.0509   -3.2825   10.2758  C     
4    C        17.2100   -3.6201   11.0089  C     
5    C        17.1465   -4.6848   11.9299  C     
6    C        15.9654   -5.3942   12.1109  C     
7    C        18.0509   -5.2423   12.7761  C     
8    C        17.3994   -6.2432   13.3944  C     
9    Cl       16.1065   -2.0189    9.1528  Cl    
10   O        16.1146   -6.3865   13.0204  O     
11   C        19.4034   -4.7391   12.9611  C     
12   C        17.2771   -6.8091   16.1390  C     
13   C        17.9302   -6.9423   17.3403  C     
14   C        17.2841   -6.6370   18.4871  C     
15   C        15.9854   -6.2024   18.4266  C     
16   O        15.3482   -5.9052   19.4251  O     
17   N        15.4031   -6.1187   17.2309  N     
18   N        16.0435   -6.4118   16.1495  N     
19   S        17.9542   -7.2800   14.6419  S     
20   O        17.3080   -8.7053   14.3501  O     
21   O        19.5264   -7.5231   14.7154  O     
22   H        13.9360   -5.5878   11.5477  H     
23   H        14.0024   -3.7452    9.9552  H     
24   H        18.0826   -3.1031   10.8734  H     
25   H        19.9236   -4.7136   12.0046  H     
26   H        19.9926   -5.3417   13.6481  H     
27   H        19.3704   -3.7270   13.3584  H     
28   H        18.8601   -7.2879   17.3764  H     
29   H        17.7408   -6.7478   19.3620  H     
30   H        14.4724   -5.8562   17.1655  H     
@<TRIPOS>BOND
     1    1    2 1
     2    1    6 2
     3    2    3 2
     4    3    4 1
     5    3    9 1
     6    4    5 2
     7    5    6 1
     8    5    7 1
     9    6   10 1
    10    7    8 2
    11    7   11 1
    12    8   10 1
    13    8   19 1
    14   12   13 1
    15   12   18 2
    16   12   19 1
    17   13   14 2
    18   14   15 1
    19   15   16 2
    20   15   17 1
    21   17   18 1
    22   19   20 2
    23   19   21 2
    24    1   22 1
    25    2   23 1
    26    4   24 1
    27   11   25 1
    28   11   26 1
    29   11   27 1
    30   13   28 1
    31   14   29 1
    32   17   30 1
@<TRIPOS>PROPERTY_DATA
  Total_Score	| 8.2160
  Crash		| -1.1744
  Polar		| 3.0477
  FragIndex	| 1
  FragRMSD	| 0.386

