@<TRIPOS>MOLECULE
BindingDB_16629
 30 32 0 0 0
SMALL
NO_CHARGES


@<TRIPOS>ATOM
1    C        17.3840   -6.7365   16.3531  C     
2    C        15.9692   -6.1284   18.5726  C     
3    C        16.6812   -7.2947   18.5284  C     
4    C        17.3897   -7.6011   17.4187  C     
5    N        16.6978   -5.6383   16.4516  N     
6    N        16.0157   -5.3205   17.5090  N     
7    O        15.2789   -5.8396   19.5416  O     
8    C        17.5089   -6.1731   13.5920  C     
9    C        18.0501   -5.1278   12.8222  C     
10   C        15.9514   -5.5851   12.1739  C     
11   C        17.0512   -4.7592   11.9217  C     
12   C        16.9811   -3.7873   10.8989  C     
13   C        14.7639   -5.4806   11.4307  C     
14   S        18.2263   -7.0584   14.9022  S     
15   O        19.7594   -6.6883   15.1061  O     
16   O        18.1757   -8.6067   14.5350  O     
17   C        14.6892   -4.5111   10.4102  C     
18   C        15.7946   -3.6684   10.1451  C     
19   O        16.2416   -6.4290   13.1833  O     
20   C        19.3975   -4.5385   12.9574  C     
21   H        16.6821   -7.9157   19.3071  H     
22   H        17.9085   -8.4459   17.3866  H     
23   H        15.5252   -4.4806   17.5275  H     
24   H        17.7781   -3.1831   10.6944  H     
25   H        13.9749   -6.0979   11.6238  H     
26   H        13.8365   -4.4285    9.8519  H     
27   H        15.7341   -2.9794    9.3942  H     
28   H        19.5396   -4.1708   13.9756  H     
29   H        19.5375   -3.7001   12.2718  H     
30   H        20.1623   -5.2859   12.7409  H     
@<TRIPOS>BOND
     1    1    4 1
     2    1    5 2
     3    1   14 1
     4    2    3 1
     5    2    6 1
     6    2    7 2
     7    3    4 2
     8    5    6 1
     9    8    9 2
    10    8   14 1
    11    8   19 1
    12    9   11 1
    13    9   20 1
    14   10   11 2
    15   10   13 1
    16   10   19 1
    17   11   12 1
    18   12   18 2
    19   13   17 2
    20   14   15 2
    21   14   16 2
    22   17   18 1
    23    3   21 1
    24    4   22 1
    25    6   23 1
    26   12   24 1
    27   13   25 1
    28   17   26 1
    29   18   27 1
    30   20   28 1
    31   20   29 1
    32   20   30 1
@<TRIPOS>PROPERTY_DATA
  Total_Score	| 7.8522
  Crash		| -0.6558
  Polar		| 1.8918
  FragIndex	| 1
  FragRMSD	| 0.676

