@<TRIPOS>MOLECULE
BindingDB_16457
 27 29 0 0 0
SMALL
NO_CHARGES


@<TRIPOS>ATOM
1    C        15.8755   -6.3514   18.4239  C     
2    C        17.1957   -6.6924   18.5208  C     
3    C        17.8855   -6.9897   17.3960  C     
4    C        17.2403   -6.9645   16.1834  C     
5    O        15.2316   -5.9744   19.3948  O     
6    N        15.2930   -6.4107   17.2235  N     
7    N        15.9748   -6.6914   16.1615  N     
8    S        18.0260   -7.1930   14.6880  S     
9    O        19.5927   -6.9564   14.7939  O     
10   O        17.7888   -8.6936   14.2240  O     
11   C        17.3131   -6.1680   13.4859  C     
12   C        15.8217   -5.2615   12.1647  C     
13   C        17.0479   -4.6656   11.8677  C     
14   C        14.6532   -4.8820   11.4832  C     
15   C        14.7453   -3.8723   10.5016  C     
16   C        15.9898   -3.2728   10.2012  C     
17   C        17.1590   -3.6743   10.8797  C     
18   C        17.9921   -5.2411   12.7013  C     
19   O        15.9961   -6.1740   13.1497  O     
20   Cl       16.0892   -2.0622    9.0225  Cl    
21   H        17.6423   -6.7445   19.4069  H     
22   H        18.8409   -7.2557   17.4653  H     
23   H        14.3492   -6.1940   17.1350  H     
24   H        13.7524   -5.3076   11.7143  H     
25   H        13.9012   -3.5722   10.0097  H     
26   H        18.0663   -3.2534   10.6676  H     
27   H        18.9903   -5.0284   12.7248  H     
@<TRIPOS>BOND
     1    1    2 1
     2    1    5 2
     3    1    6 1
     4    2    3 2
     5    3    4 1
     6    4    7 2
     7    4    8 1
     8    6    7 1
     9    8    9 2
    10    8   10 2
    11    8   11 1
    12   11   18 2
    13   11   19 1
    14   12   13 2
    15   12   14 1
    16   12   19 1
    17   13   17 1
    18   13   18 1
    19   14   15 2
    20   15   16 1
    21   16   17 2
    22   16   20 1
    23    2   21 1
    24    3   22 1
    25    6   23 1
    26   14   24 1
    27   15   25 1
    28   17   26 1
    29   18   27 1
@<TRIPOS>PROPERTY_DATA
  Total_Score	| 7.6748
  Crash		| -0.3741
  Polar		| 2.9884
  FragIndex	| 1
  FragRMSD	| 0.506

