@<TRIPOS>MOLECULE
BindingDB_16633
 30 32 0 0 0
SMALL
NO_CHARGES


@<TRIPOS>ATOM
1    C        17.2737   -6.9222   16.1839  C     
2    C        15.8741   -6.3049   18.3983  C     
3    C        17.1863   -6.6803   18.5182  C     
4    C        17.8934   -6.9702   17.4073  C     
5    N        16.0136   -6.6288   16.1324  N     
6    N        15.3169   -6.3360   17.1845  N     
7    O        15.2232   -5.9063   19.3533  O     
8    C        17.4566   -6.1771   13.4711  C     
9    C        18.0936   -5.1144   12.8196  C     
10   C        16.0457   -5.4570   11.9794  C     
11   C        17.1850   -4.6582   11.8616  C     
12   C        17.2400   -3.6554   10.8754  C     
13   C        14.9349   -5.2848   11.1340  C     
14   S        18.0960   -7.1985   14.7173  S     
15   O        19.6649   -7.0015   14.8600  O     
16   O        17.8741   -8.7079   14.2729  O     
17   C        14.9813   -4.2737   10.1528  C     
18   C        16.1247   -3.4516   10.0316  C     
19   O        16.2193   -6.3697   12.9555  O     
20   C        19.4589   -4.6218   13.0882  C     
21   F        16.1580   -2.5178    9.1205  F     
22   H        17.6189   -6.7535   19.4112  H     
23   H        18.8498   -7.2307   17.4832  H     
24   H        14.3784   -6.1076   17.0835  H     
25   H        18.0707   -3.0763   10.7795  H     
26   H        14.1299   -5.9064   11.2183  H     
27   H        14.1954   -4.1618    9.5060  H     
28   H        19.5235   -4.2956   14.1271  H     
29   H        19.7225   -3.7852   12.4413  H     
30   H        20.1824   -5.4215   12.9229  H     
@<TRIPOS>BOND
     1    1    4 1
     2    1    5 2
     3    1   14 1
     4    2    3 1
     5    2    6 1
     6    2    7 2
     7    3    4 2
     8    5    6 1
     9    8    9 2
    10    8   14 1
    11    8   19 1
    12    9   11 1
    13    9   20 1
    14   10   11 2
    15   10   13 1
    16   10   19 1
    17   11   12 1
    18   12   18 2
    19   13   17 2
    20   14   15 2
    21   14   16 2
    22   17   18 1
    23   18   21 1
    24    3   22 1
    25    4   23 1
    26    6   24 1
    27   12   25 1
    28   13   26 1
    29   17   27 1
    30   20   28 1
    31   20   29 1
    32   20   30 1
@<TRIPOS>PROPERTY_DATA
  Total_Score	| 7.9875
  Crash		| -0.5373
  Polar		| 2.2400
  FragIndex	| 1
  FragRMSD	| 0.560

