@<TRIPOS>MOLECULE
BindingDB_16635
 33 35 0 0 0
SMALL
NO_CHARGES


@<TRIPOS>ATOM
1    C        17.2850   -6.9568   16.2460  C     
2    C        15.9694   -6.3013   18.4995  C     
3    C        17.2841   -6.6717   18.5806  C     
4    C        17.9467   -6.9912   17.4469  C     
5    N        16.0276   -6.6485   16.2399  N     
6    N        15.3720   -6.3423   17.3072  N     
7    O        15.3357   -5.9288   19.4745  O     
8    C        17.4239   -6.3369   13.5271  C     
9    C        18.0968   -5.2699   12.9230  C     
10   C        16.0135   -5.4630   12.1098  C     
11   C        17.1932   -4.7234   12.0163  C     
12   C        17.2822   -3.6459   11.1165  C     
13   C        14.8944   -5.1661   11.3197  C     
14   S        17.9928   -7.4117   14.7649  S     
15   O        19.5786   -7.5039   14.8249  O     
16   O        17.3985   -8.8477   14.4190  O     
17   C        14.9767   -4.0868   10.4150  C     
18   C        16.1638   -3.3156   10.3134  C     
19   O        16.1667   -6.4360   13.0296  O     
20   C        19.4697   -4.8150   13.2295  C     
21   C        16.2602   -2.1590    9.4042  C     
22   H        17.7355   -6.7400   19.4638  H     
23   H        18.8952   -7.2902   17.5002  H     
24   H        14.4259   -6.1352   17.2309  H     
25   H        18.1488   -3.1082   11.0483  H     
26   H        14.0399   -5.7198   11.3999  H     
27   H        14.1645   -3.8697    9.8342  H     
28   H        19.5407   -4.5586   14.2883  H     
29   H        19.7484   -3.9343   12.6460  H     
30   H        20.1852   -5.6080   13.0091  H     
31   H        16.4653   -1.2548    9.9826  H     
32   H        15.3401   -2.0002    8.8376  H     
33   H        17.0757   -2.3171    8.6944  H     
@<TRIPOS>BOND
     1    1    4 1
     2    1    5 2
     3    1   14 1
     4    2    3 1
     5    2    6 1
     6    2    7 2
     7    3    4 2
     8    5    6 1
     9    8    9 2
    10    8   14 1
    11    8   19 1
    12    9   11 1
    13    9   20 1
    14   10   11 2
    15   10   13 1
    16   10   19 1
    17   11   12 1
    18   12   18 2
    19   13   17 2
    20   14   15 2
    21   14   16 2
    22   17   18 1
    23   18   21 1
    24    3   22 1
    25    4   23 1
    26    6   24 1
    27   12   25 1
    28   13   26 1
    29   17   27 1
    30   20   28 1
    31   20   29 1
    32   20   30 1
    33   21   31 1
    34   21   32 1
    35   21   33 1
@<TRIPOS>PROPERTY_DATA
  Total_Score	| 8.9020
  Crash		| -0.8384
  Polar		| 2.0172
  FragIndex	| 1
  FragRMSD	| 0.442

