@<TRIPOS>MOLECULE
BindingDB_16634
 33 35 0 0 0
SMALL
NO_CHARGES


@<TRIPOS>ATOM
1    C        17.3074   -6.9973   16.2648  C     
2    C        15.9530   -6.2453   18.4694  C     
3    C        17.2707   -6.5973   18.5848  C     
4    C        17.9492   -6.9742   17.4789  C     
5    N        16.0551   -6.6745   16.2234  N     
6    N        15.3809   -6.3205   17.2674  N     
7    O        15.2960   -5.8685   19.4277  O     
8    C        17.4541   -6.4382   13.5314  C     
9    C        18.0555   -5.3340   12.9150  C     
10   C        15.9754   -5.6505   12.1368  C     
11   C        17.1072   -4.8456   12.0168  C     
12   C        17.1167   -3.7689   11.1112  C     
13   C        14.8209   -5.4090   11.3800  C     
14   S        18.0730   -7.4421   14.8047  S     
15   O        19.6580   -7.3897   14.9099  O     
16   O        17.6561   -8.9415   14.4795  O     
17   C        14.8251   -4.3295   10.4749  C     
18   C        15.9700   -3.5005   10.3191  C     
19   O        16.1967   -6.6111   13.0568  O     
20   C        19.3982   -4.7848   13.2029  C     
21   C        15.9356   -2.3829    9.3369  C     
22   F        15.6903   -2.8794    8.0805  F     
23   F        14.9394   -1.4945    9.6681  F     
24   F        17.1080   -1.6679    9.2540  F     
25   H        17.7245   -6.5836   19.4698  H     
26   H        18.9039   -7.2357   17.5534  H     
27   H        14.4415   -6.1021   17.1665  H     
28   H        17.9541   -3.1923   11.0316  H     
29   H        13.9978   -6.0060   11.4844  H     
30   H        13.9848   -4.1577    9.9196  H     
31   H        19.4620   -4.5195   14.2592  H     
32   H        19.6080   -3.8930   12.6127  H     
33   H        20.1611   -5.5305   12.9766  H     
@<TRIPOS>BOND
     1    1    4 1
     2    1    5 2
     3    1   14 1
     4    2    3 1
     5    2    6 1
     6    2    7 2
     7    3    4 2
     8    5    6 1
     9    8    9 2
    10    8   14 1
    11    8   19 1
    12    9   11 1
    13    9   20 1
    14   10   11 2
    15   10   13 1
    16   10   19 1
    17   11   12 1
    18   12   18 2
    19   13   17 2
    20   14   15 2
    21   14   16 2
    22   17   18 1
    23   18   21 1
    24   21   22 1
    25   21   23 1
    26   21   24 1
    27    3   25 1
    28    4   26 1
    29    6   27 1
    30   12   28 1
    31   13   29 1
    32   17   30 1
    33   20   31 1
    34   20   32 1
    35   20   33 1
@<TRIPOS>PROPERTY_DATA
  Total_Score	| 8.8089
  Crash		| -1.0682
  Polar		| 2.1301
  FragIndex	| 1
  FragRMSD	| 0.512

