@<TRIPOS>MOLECULE
BindingDB_15783
 41 43 0 0 0
SMALL
NO_CHARGES


@<TRIPOS>ATOM
1    C        67.8247   46.1896    9.1124  C     
2    C        67.8122   44.7867    9.0272  C     
3    C        67.0342   44.1785    8.0276  C     
4    C        67.0623   46.9891    8.2203  C     
5    C        66.2927   46.3113    7.2377  C     
6    N        66.3099   44.9524    7.1824  N     
7    N        65.5197   46.9523    6.3383  N     
8    N        67.0874   48.3522    8.2462  N     
9    C        68.0551   49.1666    8.9245  C     
10   C        69.4770   48.9556    8.5127  C     
11   C        71.8646   49.2608    9.0025  C     
12   C        70.5116   49.4427    9.3481  C     
13   C        69.8411   48.2657    7.3207  C     
14   C        71.2041   48.0345    6.9680  C     
15   C        72.2082   48.5727    7.8227  C     
16   C        71.5671   47.2623    5.8094  C     
17   C        70.8178   47.3081    4.5970  C     
18   C        72.7058   46.4012    5.8171  C     
19   C        72.3875   45.7724    3.5476  C     
20   C        71.2002   46.5469    3.4691  C     
21   N        73.0848   45.7064    4.7120  N     
22   O        70.4426   46.6188    2.3297  O     
23   C        69.9742   45.3435    1.8520  C     
24   H        68.4096   46.6152    9.8316  H     
25   H        68.3493   44.2165    9.6889  H     
26   H        67.0119   43.1602    7.9349  H     
27   H        65.0195   46.4427    5.6800  H     
28   H        65.4706   47.9230    6.3142  H     
29   H        66.4787   48.8349    7.6622  H     
30   H        67.8062   50.2107    8.7231  H     
31   H        67.9482   49.0059   10.0023  H     
32   H        72.5994   49.6254    9.6152  H     
33   H        70.2819   49.9211   10.2242  H     
34   H        69.1127   47.9017    6.6940  H     
35   H        73.2046   48.4691    7.5950  H     
36   H        69.9833   47.9075    4.5322  H     
37   H        73.2629   46.2725    6.6708  H     
38   H        72.7102   45.2227    2.7468  H     
39   H        70.7807   44.8268    1.3197  H     
40   H        69.1551   45.5235    1.1516  H     
41   H        69.6052   44.7009    2.6630  H     
@<TRIPOS>BOND
     1    1    2 2
     2    1    4 1
     3    2    3 1
     4    3    6 2
     5    4    5 2
     6    4    8 1
     7    5    6 1
     8    5    7 1
     9    8    9 1
    10    9   10 1
    11   10   12 1
    12   10   13 2
    13   11   12 2
    14   11   15 1
    15   13   14 1
    16   14   15 2
    17   14   16 1
    18   16   17 1
    19   16   18 2
    20   17   20 2
    21   18   21 1
    22   19   20 1
    23   19   21 2
    24   20   22 1
    25   22   23 1
    26    1   24 1
    27    2   25 1
    28    3   26 1
    29    7   27 1
    30    7   28 1
    31    8   29 1
    32    9   30 1
    33    9   31 1
    34   11   32 1
    35   12   33 1
    36   13   34 1
    37   15   35 1
    38   17   36 1
    39   18   37 1
    40   19   38 1
    41   23   39 1
    42   23   40 1
    43   23   41 1
@<TRIPOS>PROPERTY_DATA
  Total_Score	| 7.4499
  Crash		| -1.1936
  Polar		| 4.6001
  FragIndex	| 1
  FragRMSD	| 0.175

