@<TRIPOS>MOLECULE
BindingDB_15786
 56 60 0 0 0
SMALL
NO_CHARGES


@<TRIPOS>ATOM
1    C        73.5816   43.3127    7.5809  C     
2    C        74.4758   43.3914    8.6571  C     
3    C        75.8479   43.5255    8.3920  C     
4    C        74.0365   43.3601    6.2374  C     
5    C        75.4382   43.4790    6.0433  C     
6    N        76.2756   43.5631    7.1096  N     
7    N        76.0289   43.5349    4.8370  N     
8    N        73.2138   43.3076    5.1515  N     
9    C        71.8039   43.5898    5.1133  C     
10   C        71.6335   45.0643    5.0312  C     
11   C        72.1775   47.1392    3.8640  C     
12   C        71.9616   45.7576    3.8405  C     
13   C        71.2735   45.8200    6.1698  C     
14   C        71.3176   47.2301    6.1566  C     
15   C        71.8840   47.8721    5.0336  C     
16   C        70.6530   47.9675    7.1630  C     
17   C        71.3133   48.9438    7.9604  C     
18   C        69.2574   47.7712    7.3365  C     
19   C        70.6008   49.7079    8.9118  C     
20   C        69.2253   49.4836    9.0644  C     
21   C        68.5563   48.5339    8.2869  C     
22   C        67.0465   49.4634    9.5655  C     
23   C        68.2623   50.0675    9.8763  C     
24   N        67.2536   48.5467    8.5984  N     
25   O        71.9603   45.1386    2.6252  O     
26   C        70.6207   44.9629    2.0919  C     
27   C        70.1352   46.0557    1.1980  C     
28   C        69.3470   46.7124   -1.0333  C     
29   C        69.1168   48.0228   -0.5835  C     
30   C        69.3875   48.3603    0.7542  C     
31   C        69.8723   47.3838    1.6490  C     
32   C        69.8584   45.7363   -0.1579  C     
33   H        72.5965   43.2032    7.8177  H     
34   H        74.1335   43.3512    9.6206  H     
35   H        76.5195   43.5938    9.1578  H     
36   H        76.9902   43.6456    4.7778  H     
37   H        75.5067   43.4935    4.0258  H     
38   H        73.6509   43.2618    4.2747  H     
39   H        71.3870   43.1101    4.2286  H     
40   H        71.2658   43.1460    5.9553  H     
41   H        72.5130   47.6381    3.0506  H     
42   H        70.9520   45.3286    7.0091  H     
43   H        71.9841   48.8859    5.0147  H     
44   H        72.3179   49.1045    7.8432  H     
45   H        68.7394   47.0991    6.7672  H     
46   H        71.0788   50.4160    9.4725  H     
47   H        66.1382   49.6953    9.9765  H     
48   H        68.4067   50.8193   10.5538  H     
49   H        66.5625   47.9987    8.1897  H     
50   H        70.6720   44.0172    1.5426  H     
51   H        69.8766   44.7787    2.8746  H     
52   H        69.1225   46.4565   -1.9967  H     
53   H        68.7579   48.7282   -1.2268  H     
54   H        69.2211   49.3119    1.0766  H     
55   H        70.0504   47.6903    2.6391  H     
56   H        70.0191   44.7893   -0.5153  H     
@<TRIPOS>BOND
     1    1    2 2
     2    1    4 1
     3    2    3 1
     4    3    6 2
     5    4    5 2
     6    4    8 1
     7    5    6 1
     8    5    7 1
     9    8    9 1
    10    9   10 1
    11   10   12 1
    12   10   13 2
    13   11   12 2
    14   11   15 1
    15   12   25 1
    16   13   14 1
    17   14   15 2
    18   14   16 1
    19   16   17 1
    20   16   18 2
    21   17   19 2
    22   18   21 1
    23   19   20 1
    24   20   21 2
    25   20   23 1
    26   21   24 1
    27   22   23 2
    28   22   24 1
    29   25   26 1
    30   26   27 1
    31   27   31 1
    32   27   32 2
    33   28   29 2
    34   28   32 1
    35   29   30 1
    36   30   31 2
    37    1   33 1
    38    2   34 1
    39    3   35 1
    40    7   36 1
    41    7   37 1
    42    8   38 1
    43    9   39 1
    44    9   40 1
    45   11   41 1
    46   13   42 1
    47   15   43 1
    48   17   44 1
    49   18   45 1
    50   19   46 1
    51   22   47 1
    52   23   48 1
    53   24   49 1
    54   26   50 1
    55   26   51 1
    56   28   52 1
    57   29   53 1
    58   30   54 1
    59   31   55 1
    60   32   56 1
@<TRIPOS>PROPERTY_DATA
  Total_Score	| 1.3907
  Crash		| -6.7284
  Polar		| 1.9322
  FragIndex	| 1
  FragRMSD	| 1.465

