@<TRIPOS>MOLECULE
BindingDB_15780
 43 45 0 0 0
SMALL
NO_CHARGES


@<TRIPOS>ATOM
1    C        66.0156   45.1129    9.4325  C     
2    C        65.4016   45.3611    8.1917  C     
3    C        65.6145   46.6094    7.5732  C     
4    C        66.8355   46.0931   10.0262  C     
5    C        67.0405   47.3201    9.3587  C     
6    N        65.0470   46.9432    6.4055  N     
7    N        66.4078   47.5324    8.1770  N     
8    C        67.8141   48.4274    9.9669  C     
9    C        68.4727   49.4268    8.9720  C     
10   C        69.8523   49.0422    8.5571  C     
11   C        70.1132   48.2957    7.3778  C     
12   C        70.9424   49.4368    9.3612  C     
13   C        72.2576   49.1291    8.9896  C     
14   C        72.5014   48.4095    7.8081  C     
15   C        71.4360   47.9563    6.9854  C     
16   C        71.7011   47.1745    5.8053  C     
17   C        73.0873   45.5067    4.6267  C     
18   C        72.7399   46.2080    5.7989  C     
19   C        70.9645   47.3453    4.6044  C     
20   C        71.2679   46.6095    3.4375  C     
21   C        72.3604   45.7189    3.4391  C     
22   O        70.5478   46.8768    2.3023  O     
23   C        70.0536   45.7407    1.5797  C     
24   H        65.8546   44.2264    9.9092  H     
25   H        64.7958   44.6570    7.7584  H     
26   H        67.2599   45.9168   10.9379  H     
27   H        65.1752   47.8334    6.0365  H     
28   H        64.5057   46.3002    5.9237  H     
29   H        67.1107   48.9885   10.5881  H     
30   H        68.5887   48.0323   10.6346  H     
31   H        67.8367   49.5804    8.0964  H     
32   H        68.5172   50.3977    9.4785  H     
33   H        69.3223   47.9764    6.8139  H     
34   H        70.7876   49.9546   10.2299  H     
35   H        73.0344   49.4337    9.5804  H     
36   H        73.4752   48.2255    7.5550  H     
37   H        73.8751   44.8501    4.6366  H     
38   H        73.2664   46.0045    6.6534  H     
39   H        70.2152   48.0339    4.5562  H     
40   H        72.6314   45.2259    2.5842  H     
41   H        70.8745   45.1783    1.1278  H     
42   H        69.4148   46.1159    0.7741  H     
43   H        69.4575   45.0782    2.2155  H     
@<TRIPOS>BOND
     1    1    2 2
     2    1    4 1
     3    2    3 1
     4    3    6 1
     5    3    7 2
     6    4    5 2
     7    5    7 1
     8    5    8 1
     9    8    9 1
    10    9   10 1
    11   10   11 1
    12   10   12 2
    13   11   15 2
    14   12   13 1
    15   13   14 2
    16   14   15 1
    17   15   16 1
    18   16   18 1
    19   16   19 2
    20   17   18 2
    21   17   21 1
    22   19   20 1
    23   20   21 2
    24   20   22 1
    25   22   23 1
    26    1   24 1
    27    2   25 1
    28    4   26 1
    29    6   27 1
    30    6   28 1
    31    8   29 1
    32    8   30 1
    33    9   31 1
    34    9   32 1
    35   11   33 1
    36   12   34 1
    37   13   35 1
    38   14   36 1
    39   17   37 1
    40   18   38 1
    41   19   39 1
    42   21   40 1
    43   23   41 1
    44   23   42 1
    45   23   43 1
@<TRIPOS>PROPERTY_DATA
  Total_Score	| 6.9514
  Crash		| -1.2975
  Polar		| 2.7508
  FragIndex	| 1
  FragRMSD	| 0.250

