@<TRIPOS>MOLECULE
BindingDB_15787
 55 59 0 0 0
SMALL
NO_CHARGES


@<TRIPOS>ATOM
1    C        70.6324   46.9538   11.6992  C     
2    C        70.2995   45.7377   12.3205  C     
3    C        71.2728   44.7270   12.4118  C     
4    C        71.9352   47.1801   11.1767  C     
5    C        72.8630   46.1157   11.3049  C     
6    N        72.5066   44.9505   11.9022  N     
7    N        74.1244   46.1873   10.8455  N     
8    N        72.3223   48.3350   10.5681  N     
9    C        71.4997   49.4188   10.1172  C     
10   C        70.7030   49.0595    8.9129  C     
11   C        68.5813   48.8535    7.7397  C     
12   C        69.3006   49.3440    8.8496  C     
13   C        71.3537   48.4042    7.8288  C     
14   C        70.6238   47.9807    6.6911  C     
15   C        69.2193   48.1810    6.6948  C     
16   C        71.1992   47.3133    5.5634  C     
17   C        72.3326   46.4611    5.6867  C     
18   C        70.5686   47.4158    4.2882  C     
19   C        72.7641   45.6535    4.6006  C     
20   C        72.0183   45.6811    3.4048  C     
21   C        70.9365   46.5521    3.2529  C     
22   C        71.0095   45.3702    1.4253  C     
23   C        72.0728   44.9428    2.2248  C     
24   N        70.3440   46.3492    2.0676  N     
25   O        68.6807   50.1980    9.7576  O     
26   C        67.2632   50.0467   10.0293  C     
27   C        66.6598   51.1960   10.7505  C     
28   C        66.6978   53.5442   11.2532  C     
29   C        65.5024   53.4445   11.9886  C     
30   C        64.8764   52.1910   12.0906  C     
31   C        65.4462   51.0601   11.4679  C     
32   N        67.2299   52.4336   10.6721  N     
33   H        69.9171   47.6838   11.6417  H     
34   H        69.3662   45.5881   12.7104  H     
35   H        71.0610   43.8349   12.8561  H     
36   H        74.7218   45.4332   10.9548  H     
37   H        74.4490   47.0056   10.4432  H     
38   H        73.2680   48.4228   10.3652  H     
39   H        70.8670   49.7323   10.9470  H     
40   H        72.1591   50.2597    9.8660  H     
41   H        67.5673   48.9848    7.6696  H     
42   H        72.3694   48.2281    7.8587  H     
43   H        68.6366   47.8205    5.9326  H     
44   H        72.8222   46.3869    6.5818  H     
45   H        69.7882   48.0560    4.1253  H     
46   H        73.5567   45.0066    4.7066  H     
47   H        70.7434   44.9995    0.5123  H     
48   H        72.7414   44.2047    1.9952  H     
49   H        69.5298   46.7852    1.7517  H     
50   H        66.6894   49.9623    9.1023  H     
51   H        67.1542   49.1366   10.6255  H     
52   H        67.1515   54.4546   11.1457  H     
53   H        65.0878   54.2646   12.4458  H     
54   H        64.0074   52.0944   12.6165  H     
55   H        64.9853   50.1472   11.5409  H     
@<TRIPOS>BOND
     1    1    2 2
     2    1    4 1
     3    2    3 1
     4    3    6 2
     5    4    5 2
     6    4    8 1
     7    5    6 1
     8    5    7 1
     9    8    9 1
    10    9   10 1
    11   10   12 1
    12   10   13 2
    13   11   12 2
    14   11   15 1
    15   12   25 1
    16   13   14 1
    17   14   15 2
    18   14   16 1
    19   16   17 1
    20   16   18 2
    21   17   19 2
    22   18   21 1
    23   19   20 1
    24   20   21 2
    25   20   23 1
    26   21   24 1
    27   22   23 2
    28   22   24 1
    29   25   26 1
    30   26   27 1
    31   27   31 1
    32   27   32 2
    33   28   29 2
    34   28   32 1
    35   29   30 1
    36   30   31 2
    37    1   33 1
    38    2   34 1
    39    3   35 1
    40    7   36 1
    41    7   37 1
    42    8   38 1
    43    9   39 1
    44    9   40 1
    45   11   41 1
    46   13   42 1
    47   15   43 1
    48   17   44 1
    49   18   45 1
    50   19   46 1
    51   22   47 1
    52   23   48 1
    53   24   49 1
    54   26   50 1
    55   26   51 1
    56   28   52 1
    57   29   53 1
    58   30   54 1
    59   31   55 1
@<TRIPOS>PROPERTY_DATA
  Total_Score	| 8.5943
  Crash		| -3.2250
  Polar		| 3.1171
  FragIndex	| 1
  FragRMSD	| 0.930

