@<TRIPOS>MOLECULE
BindingDB_15781
 28 29 0 0 0
SMALL
NO_CHARGES


@<TRIPOS>ATOM
1    C        67.7445   46.3236    9.1231  C     
2    C        67.7029   44.9214    9.0549  C     
3    C        66.8891   44.3082    8.0910  C     
4    C        67.0168   47.1276    8.2153  C     
5    C        66.2236   46.4419    7.2502  C     
6    N        66.1869   45.0843    7.2339  N     
7    N        65.4770   47.0212    6.2991  N     
8    N        67.1824   48.4708    8.3761  N     
9    C        68.1823   49.1863    9.1069  C     
10   C        69.6057   49.0137    8.7026  C     
11   C        71.9717   49.0548    9.3606  C     
12   C        70.6135   49.2587    9.6667  C     
13   C        70.0012   48.5904    7.4090  C     
14   C        71.3584   48.3757    7.1056  C     
15   C        72.3432   48.6034    8.0821  C     
16   H        68.3431   46.7547    9.8370  H     
17   H        68.2633   44.3572    9.6986  H     
18   H        66.8342   43.2900    8.0227  H     
19   H        64.9685   46.4647    5.6852  H     
20   H        65.4469   47.9789    6.1984  H     
21   H        66.4854   49.0313    7.9915  H     
22   H        67.9484   50.2481    8.9969  H     
23   H        68.0614   48.9457   10.1678  H     
24   H        72.6876   49.2288   10.0704  H     
25   H        70.3638   49.5699   10.6095  H     
26   H        69.3066   48.4177    6.6798  H     
27   H        71.6296   48.0557    6.1722  H     
28   H        73.3294   48.4436    7.8614  H     
@<TRIPOS>BOND
     1    1    2 2
     2    1    4 1
     3    2    3 1
     4    3    6 2
     5    4    5 2
     6    4    8 1
     7    5    6 1
     8    5    7 1
     9    8    9 1
    10    9   10 1
    11   10   12 1
    12   10   13 2
    13   11   12 2
    14   11   15 1
    15   13   14 1
    16   14   15 2
    17    1   16 1
    18    2   17 1
    19    3   18 1
    20    7   19 1
    21    7   20 1
    22    8   21 1
    23    9   22 1
    24    9   23 1
    25   11   24 1
    26   12   25 1
    27   13   26 1
    28   14   27 1
    29   15   28 1
@<TRIPOS>PROPERTY_DATA
  Total_Score	| 4.4496
  Crash		| -0.6601
  Polar		| 4.7019
  FragIndex	| 1
  FragRMSD	| 0.310

