@<TRIPOS>MOLECULE
BindingDB_15782
 37 39 0 0 0
SMALL
NO_CHARGES


@<TRIPOS>ATOM
1    C        67.6882   46.1741    9.2264  C     
2    C        67.6175   44.7726    9.1417  C     
3    C        66.8905   44.2001    8.0856  C     
4    C        67.0171   47.0110    8.2919  C     
5    C        66.2492   46.3644    7.2886  C     
6    N        66.2350   45.0060    7.2184  N     
7    N        65.5260   46.9972    6.3465  N     
8    N        67.1184   48.3705    8.3091  N     
9    C        68.1311   49.1395    8.9781  C     
10   C        69.5432   48.9091    8.5403  C     
11   C        71.9315   49.0779    9.0580  C     
12   C        70.5880   49.3038    9.4061  C     
13   C        69.8880   48.2939    7.3066  C     
14   C        71.2324   48.0196    6.9521  C     
15   C        72.2479   48.4446    7.8446  C     
16   C        71.5673   47.2908    5.7675  C     
17   C        72.6471   46.3719    5.7544  C     
18   C        70.8505   47.4329    4.5531  C     
19   C        72.2568   45.8750    3.4186  C     
20   C        73.0035   45.6734    4.5883  C     
21   N        71.2116   46.7378    3.4422  N     
22   H        68.2457   46.5765    9.9816  H     
23   H        68.1025   44.1800    9.8213  H     
24   H        66.8452   43.1845    7.9676  H     
25   H        65.0475   46.4692    5.6875  H     
26   H        65.4842   47.9655    6.2958  H     
27   H        66.4844   48.8799    7.7793  H     
28   H        67.9033   50.1916    8.8165  H     
29   H        68.0306   48.9674   10.0510  H     
30   H        72.6817   49.3600    9.6958  H     
31   H        70.3862   49.7385   10.3077  H     
32   H        69.1437   48.0018    6.6760  H     
33   H        73.2352   48.2974    7.6204  H     
34   H        73.1856   46.1922    6.6047  H     
35   H        70.0563   48.0681    4.4775  H     
36   H        72.4943   45.3790    2.5589  H     
37   H        73.7919   45.0243    4.5944  H     
@<TRIPOS>BOND
     1    1    2 2
     2    1    4 1
     3    2    3 1
     4    3    6 2
     5    4    5 2
     6    4    8 1
     7    5    6 1
     8    5    7 1
     9    8    9 1
    10    9   10 1
    11   10   12 1
    12   10   13 2
    13   11   12 2
    14   11   15 1
    15   13   14 1
    16   14   15 2
    17   14   16 1
    18   16   17 1
    19   16   18 2
    20   17   20 2
    21   18   21 1
    22   19   20 1
    23   19   21 2
    24    1   22 1
    25    2   23 1
    26    3   24 1
    27    7   25 1
    28    7   26 1
    29    8   27 1
    30    9   28 1
    31    9   29 1
    32   11   30 1
    33   12   31 1
    34   13   32 1
    35   15   33 1
    36   17   34 1
    37   18   35 1
    38   19   36 1
    39   20   37 1
@<TRIPOS>PROPERTY_DATA
  Total_Score	| 6.4535
  Crash		| -0.7704
  Polar		| 4.6216
  FragIndex	| 1
  FragRMSD	| 1.053

