@<TRIPOS>MOLECULE
BindingDB_15784
 47 49 0 0 0
SMALL
NO_CHARGES


@<TRIPOS>ATOM
1    C        67.7774   46.1569    9.1841  C     
2    C        67.7448   44.7573    9.0819  C     
3    C        66.9808   44.1733    8.0615  C     
4    C        67.0539   46.9788    8.2799  C     
5    C        66.2848   46.3241    7.2834  C     
6    N        66.2916   44.9672    7.2064  N     
7    N        65.5612   46.9817    6.3570  N     
8    N        67.1137   48.3412    8.2999  N     
9    C        68.0890   49.1315    8.9886  C     
10   C        69.4938   48.9552    8.5117  C     
11   C        71.8827   49.3217    8.9036  C     
12   C        70.5430   49.4955    9.2866  C     
13   C        69.8321   48.2514    7.3248  C     
14   C        71.1764   48.0318    6.9371  C     
15   C        72.1943   48.5945    7.7425  C     
16   C        71.4969   47.2463    5.7855  C     
17   C        70.7499   47.3341    4.5831  C     
18   C        72.5813   46.3341    5.7978  C     
19   C        72.2119   45.7102    3.5324  C     
20   C        71.0979   46.5686    3.4477  C     
21   N        72.9017   45.6081    4.6981  N     
22   O        70.4056   46.7343    2.2788  O     
23   C        69.7308   45.5641    1.7627  C     
24   C        70.1880   45.2840    0.3123  C     
25   C        69.5928   46.2673   -0.7171  C     
26   H        68.3428   46.5649    9.9299  H     
27   H        68.2743   44.1747    9.7349  H     
28   H        66.9408   43.1589    7.9600  H     
29   H        65.0634   46.4862    5.6876  H     
30   H        65.5261   47.9519    6.3373  H     
31   H        66.5167   48.8334    7.7104  H     
32   H        67.8170   50.1804    8.8653  H     
33   H        68.0227   48.9156   10.0598  H     
34   H        72.6308   49.7135    9.4808  H     
35   H        70.3377   50.0023   10.1509  H     
36   H        69.0851   47.8644    6.7454  H     
37   H        73.1796   48.4880    7.4861  H     
38   H        69.9526   47.9707    4.5129  H     
39   H        73.1436   46.1963    6.6378  H     
40   H        72.5016   45.1524    2.7265  H     
41   H        69.9255   44.6672    2.3653  H     
42   H        68.6557   45.7365    1.7777  H     
43   H        71.2782   45.3398    0.2665  H     
44   H        69.8904   44.2691    0.0375  H     
45   H        68.5062   46.1789   -0.7329  H     
46   H        69.9745   46.0327   -1.7117  H     
47   H        69.8556   47.2978   -0.4754  H     
@<TRIPOS>BOND
     1    1    2 2
     2    1    4 1
     3    2    3 1
     4    3    6 2
     5    4    5 2
     6    4    8 1
     7    5    6 1
     8    5    7 1
     9    8    9 1
    10    9   10 1
    11   10   12 1
    12   10   13 2
    13   11   12 2
    14   11   15 1
    15   13   14 1
    16   14   15 2
    17   14   16 1
    18   16   17 1
    19   16   18 2
    20   17   20 2
    21   18   21 1
    22   19   20 1
    23   19   21 2
    24   20   22 1
    25   22   23 1
    26   23   24 1
    27   24   25 1
    28    1   26 1
    29    2   27 1
    30    3   28 1
    31    7   29 1
    32    7   30 1
    33    8   31 1
    34    9   32 1
    35    9   33 1
    36   11   34 1
    37   12   35 1
    38   13   36 1
    39   15   37 1
    40   17   38 1
    41   18   39 1
    42   19   40 1
    43   23   41 1
    44   23   42 1
    45   24   43 1
    46   24   44 1
    47   25   45 1
    48   25   46 1
    49   25   47 1
@<TRIPOS>PROPERTY_DATA
  Total_Score	| 7.5711
  Crash		| -2.9356
  Polar		| 4.5093
  FragIndex	| 1
  FragRMSD	| 0.147

