@<TRIPOS>MOLECULE
BindingDB_15785
 42 45 0 0 0
SMALL
NO_CHARGES


@<TRIPOS>ATOM
1    C        67.7721   46.1904    9.1657  C     
2    C        67.7418   44.7866    9.0440  C     
3    C        67.0074   44.2127    8.0025  C     
4    C        67.0157   47.0297    8.2688  C     
5    C        66.2588   46.3653    7.2811  C     
6    N        66.2950   45.0145    7.1716  N     
7    N        65.5027   47.0186    6.3613  N     
8    N        67.1014   48.3685    8.2768  N     
9    C        68.0853   49.1681    8.9258  C     
10   C        69.5046   48.9790    8.4542  C     
11   C        71.8949   49.2286    8.9032  C     
12   C        70.5619   49.4550    9.2680  C     
13   C        69.8324   48.3346    7.2444  C     
14   C        71.1808   48.0680    6.8584  C     
15   C        72.1953   48.5252    7.7215  C     
16   C        71.4658   47.3163    5.6755  C     
17   C        72.5385   46.3796    5.6707  C     
18   C        70.6630   47.4248    4.5051  C     
19   C        72.8135   45.5743    4.5432  C     
20   C        71.9714   45.6829    3.4309  C     
21   C        70.9168   46.5935    3.3971  C     
22   C        70.8456   45.4577    1.5235  C     
23   C        71.9240   44.9594    2.2488  C     
24   N        70.2672   46.4499    2.2256  N     
25   H        68.3174   46.5864    9.9190  H     
26   H        68.2644   44.2119    9.7058  H     
27   H        66.9987   43.2051    7.8670  H     
28   H        65.0179   46.5084    5.6931  H     
29   H        65.4653   47.9873    6.3356  H     
30   H        66.4885   48.8810    7.6776  H     
31   H        67.8270   50.2138    8.7857  H     
32   H        68.0338   48.9589   10.0099  H     
33   H        72.6540   49.5535    9.5093  H     
34   H        70.3601   49.9402   10.1380  H     
35   H        69.0974   47.9970    6.6336  H     
36   H        73.1776   48.3705    7.4865  H     
37   H        73.1146   46.2409    6.4997  H     
38   H        69.8785   48.0779    4.4514  H     
39   H        73.5777   44.8975    4.5592  H     
40   H        70.5358   45.1131    0.6162  H     
41   H        72.5359   44.1881    1.9863  H     
42   H        69.4842   46.9466    1.9391  H     
@<TRIPOS>BOND
     1    1    2 2
     2    1    4 1
     3    2    3 1
     4    3    6 2
     5    4    5 2
     6    4    8 1
     7    5    6 1
     8    5    7 1
     9    8    9 1
    10    9   10 1
    11   10   12 1
    12   10   13 2
    13   11   12 2
    14   11   15 1
    15   13   14 1
    16   14   15 2
    17   14   16 1
    18   16   17 1
    19   16   18 2
    20   17   19 2
    21   18   21 1
    22   19   20 1
    23   20   21 2
    24   20   23 1
    25   21   24 1
    26   22   23 2
    27   22   24 1
    28    1   25 1
    29    2   26 1
    30    3   27 1
    31    7   28 1
    32    7   29 1
    33    8   30 1
    34    9   31 1
    35    9   32 1
    36   11   33 1
    37   12   34 1
    38   13   35 1
    39   15   36 1
    40   17   37 1
    41   18   38 1
    42   19   39 1
    43   22   40 1
    44   23   41 1
    45   24   42 1
@<TRIPOS>PROPERTY_DATA
  Total_Score	| 8.3592
  Crash		| -1.3457
  Polar		| 5.5942
  FragIndex	| 1
  FragRMSD	| 0.212

