@<TRIPOS>MOLECULE
BindingDB_24663
 20 21 0 0 0
SMALL
NO_CHARGES


@<TRIPOS>ATOM
1    C        60.1549   53.7124   17.9938  C     
2    C        57.9845   52.5370   17.9610  C     
3    C        59.3259   52.6237   18.3742  C     
4    C        59.5785   54.7056   17.1552  C     
5    C        58.2329   54.6209   16.7412  C     
6    C        57.4341   53.5376   17.1428  C     
7    O        60.2989   55.7609   16.7107  O     
8    C        61.5162   53.7591   18.4319  C     
9    C        63.4014   53.1242   19.3354  C     
10   C        62.4828   54.7522   18.2525  C     
11   N        62.1199   52.7743   19.1296  N     
12   N        63.6295   54.3209   18.7867  N     
13   H        57.4027   51.7561   18.2744  H     
14   H        59.6913   51.8831   18.9797  H     
15   H        57.8206   55.3498   16.1519  H     
16   H        56.4552   53.4787   16.8501  H     
17   H        60.3928   55.6039   15.7476  H     
18   H        64.0969   52.5546   19.8220  H     
19   H        62.3687   55.6627   17.8048  H     
20   H        64.4817   54.7909   18.7855  H     
@<TRIPOS>BOND
     1    1    3 2
     2    1    4 1
     3    1    8 1
     4    2    3 1
     5    2    6 2
     6    4    5 2
     7    4    7 1
     8    5    6 1
     9    8   10 2
    10    8   11 1
    11    9   11 2
    12    9   12 1
    13   10   12 1
    14    2   13 1
    15    3   14 1
    16    5   15 1
    17    6   16 1
    18    7   17 1
    19    9   18 1
    20   10   19 1
    21   12   20 1
@<TRIPOS>PROPERTY_DATA
  Total_Score	| 3.5021
  Crash		| -0.6049
  Polar		| 2.9648
  FragIndex	| 1
  FragRMSD	| 0.139

