@<TRIPOS>MOLECULE
BindingDB_24656
 19 20 0 0 0
SMALL
NO_CHARGES


@<TRIPOS>ATOM
1    C        60.0857   53.6951   17.9116  C     
2    C        58.1379   54.5864   16.6870  C     
3    C        59.4805   54.6856   17.0902  C     
4    C        59.2891   52.5906   18.3002  C     
5    C        57.9426   52.4856   17.8932  C     
6    C        57.3686   53.4836   17.0843  C     
7    C        61.4459   53.7966   18.3395  C     
8    C        63.3515   53.3368   19.2843  C     
9    C        62.3694   54.8072   18.0508  C     
10   N        62.0965   52.8906   19.1021  N     
11   N        63.5275   54.4985   18.6412  N     
12   H        57.7279   55.3239   16.1089  H     
13   H        59.9994   55.5102   16.7824  H     
14   H        59.6772   51.8533   18.8911  H     
15   H        57.3749   51.6842   18.1807  H     
16   H        56.3932   53.4105   16.7854  H     
17   H        64.0719   52.8623   19.8224  H     
18   H        62.2237   55.6431   17.4872  H     
19   H        64.3539   55.0207   18.6012  H     
@<TRIPOS>BOND
     1    1    3 2
     2    1    4 1
     3    1    7 1
     4    2    3 1
     5    2    6 2
     6    4    5 2
     7    5    6 1
     8    7    9 2
     9    7   10 1
    10    8   10 2
    11    8   11 1
    12    9   11 1
    13    2   12 1
    14    3   13 1
    15    4   14 1
    16    5   15 1
    17    6   16 1
    18    8   17 1
    19    9   18 1
    20   11   19 1
@<TRIPOS>PROPERTY_DATA
  Total_Score	| 3.5463
  Crash		| -0.2667
  Polar		| 2.1309
  FragIndex	| 1
  FragRMSD	| 0.055

