@<TRIPOS>MOLECULE
BindingDB_24683
 19 20 0 0 0
SMALL
NO_CHARGES


@<TRIPOS>ATOM
1    C        60.0483   53.7184   17.8960  C     
2    C        57.9202   52.4764   17.8818  C     
3    C        59.2634   52.5985   18.2755  C     
4    C        59.4258   54.7109   17.0944  C     
5    C        58.0754   54.5974   16.7053  C     
6    C        57.3227   53.4760   17.0936  C     
7    C        61.4059   53.8234   18.3192  C     
8    C        63.3129   53.3327   19.2548  C     
9    C        62.3319   54.8426   18.0556  C     
10   N        62.0561   52.9031   19.0572  N     
11   N        63.4923   54.5076   18.6415  N     
12   F        57.5101   55.5427   16.0005  F     
13   H        57.3727   51.6618   18.1692  H     
14   H        59.6577   51.8555   18.8546  H     
15   H        59.9435   55.5422   16.8040  H     
16   H        56.3428   53.3849   16.8131  H     
17   H        64.0305   52.8317   19.7827  H     
18   H        62.1805   55.6893   17.5112  H     
19   H        64.3231   55.0163   18.6166  H     
@<TRIPOS>BOND
     1    1    3 2
     2    1    4 1
     3    1    7 1
     4    2    3 1
     5    2    6 2
     6    4    5 2
     7    5    6 1
     8    5   12 1
     9    7    9 2
    10    7   10 1
    11    8   10 2
    12    8   11 1
    13    9   11 1
    14    2   13 1
    15    3   14 1
    16    4   15 1
    17    6   16 1
    18    8   17 1
    19    9   18 1
    20   11   19 1
@<TRIPOS>PROPERTY_DATA
  Total_Score	| 3.7718
  Crash		| -0.3102
  Polar		| 2.0871
  FragIndex	| 1
  FragRMSD	| 0.084

