@<TRIPOS>MOLECULE
BindingDB_24664
 21 22 0 0 0
SMALL
NO_CHARGES


@<TRIPOS>ATOM
1    C        60.1302   53.5868   18.1633  C     
2    C        58.4368   53.6088   16.3896  C     
3    C        59.7769   53.7525   16.7964  C     
4    C        59.1253   53.2321   19.1041  C     
5    C        57.7962   53.0623   18.6720  C     
6    C        57.4459   53.2615   17.3206  C     
7    O        59.4055   53.1075   20.4249  O     
8    C        61.4811   53.7226   18.5720  C     
9    C        63.4397   53.2490   19.3808  C     
10   C        62.3402   54.7957   18.3203  C     
11   N        62.1923   52.7784   19.2220  N     
12   N        63.5378   54.4747   18.8312  N     
13   O        60.7480   53.9274   15.8520  O     
14   H        58.1922   53.7147   15.4126  H     
15   H        57.0661   52.8078   19.3472  H     
16   H        56.4739   53.1421   17.0169  H     
17   H        58.8653   52.3389   20.7312  H     
18   H        64.1964   52.7565   19.8480  H     
19   H        62.1154   55.6681   17.8443  H     
20   H        64.3434   55.0281   18.8083  H     
21   H        60.4719   54.7553   15.3727  H     
@<TRIPOS>BOND
     1    1    3 2
     2    1    4 1
     3    1    8 1
     4    2    3 1
     5    2    6 2
     6    3   13 1
     7    4    5 2
     8    4    7 1
     9    5    6 1
    10    8   10 2
    11    8   11 1
    12    9   11 2
    13    9   12 1
    14   10   12 1
    15    2   14 1
    16    5   15 1
    17    6   16 1
    18    7   17 1
    19    9   18 1
    20   10   19 1
    21   12   20 1
    22   13   21 1
@<TRIPOS>PROPERTY_DATA
  Total_Score	| 3.6395
  Crash		| -0.3595
  Polar		| 2.8283
  FragIndex	| 1
  FragRMSD	| 0.627

