@<TRIPOS>MOLECULE
BindingDB_24673
 23 24 0 0 0
SMALL
NO_CHARGES


@<TRIPOS>ATOM
1    C        60.4488   53.7301   18.1404  C     
2    C        58.4030   53.3093   16.8468  C     
3    C        59.7476   53.7180   16.9091  C     
4    C        59.7498   53.3605   19.3138  C     
5    C        58.4061   52.9575   19.2549  C     
6    C        57.7375   52.8911   18.0166  C     
7    C        61.8268   54.0600   18.1831  C     
8    C        63.8855   54.3281   17.5371  C     
9    C        62.5966   54.4870   19.2679  C     
10   N        62.6581   53.9742   17.1290  N     
11   N        63.8518   54.6446   18.8363  N     
12   S        56.1161   52.2682   17.9290  S     
13   C        56.3839   50.7995   18.9534  C     
14   H        57.9281   53.2882   15.9408  H     
15   H        60.2167   53.9867   16.0399  H     
16   H        60.2170   53.3543   20.2235  H     
17   H        57.9279   52.6905   20.1203  H     
18   H        64.7160   54.3608   16.9439  H     
19   H        62.2757   54.6613   20.2228  H     
20   H        64.6161   54.9489   19.3477  H     
21   H        57.1823   50.1876   18.5356  H     
22   H        55.4698   50.2087   18.9890  H     
23   H        56.6509   51.0857   19.9690  H     
@<TRIPOS>BOND
     1    1    3 2
     2    1    4 1
     3    1    7 1
     4    2    3 1
     5    2    6 2
     6    4    5 2
     7    5    6 1
     8    6   12 1
     9    7    9 2
    10    7   10 1
    11    8   10 2
    12    8   11 1
    13    9   11 1
    14   12   13 1
    15    2   14 1
    16    3   15 1
    17    4   16 1
    18    5   17 1
    19    8   18 1
    20    9   19 1
    21   11   20 1
    22   13   21 1
    23   13   22 1
    24   13   23 1
@<TRIPOS>PROPERTY_DATA
  Total_Score	| 1.2585
  Crash		| -1.4198
  Polar		| 0.4391
  FragIndex	| 1
  FragRMSD	| 1.319

