@<TRIPOS>MOLECULE
BindingDB_24672
 19 20 0 0 0
SMALL
NO_CHARGES


@<TRIPOS>ATOM
1    C        60.0424   53.7666   17.8277  C     
2    C        57.9079   52.5242   17.8545  C     
3    C        59.2509   52.6634   18.2491  C     
4    C        59.4176   54.7261   16.9802  C     
5    C        58.0701   54.5869   16.5885  C     
6    C        57.3157   53.4867   17.0234  C     
7    C        61.4037   53.8612   18.2687  C     
8    C        63.2748   53.3371   19.2756  C     
9    C        62.3735   54.8384   18.0131  C     
10   N        62.0096   52.9467   19.0564  N     
11   N        63.5025   54.4881   18.6370  N     
12   F        60.0393   55.7787   16.5254  F     
13   H        57.3601   51.7217   18.1734  H     
14   H        59.6426   51.9396   18.8566  H     
15   H        57.6286   55.2884   15.9860  H     
16   H        56.3395   53.3852   16.7360  H     
17   H        63.9577   52.8300   19.8379  H     
18   H        62.2795   55.6809   17.4487  H     
19   H        64.3433   54.9769   18.6235  H     
@<TRIPOS>BOND
     1    1    3 2
     2    1    4 1
     3    1    7 1
     4    2    3 1
     5    2    6 2
     6    4    5 2
     7    4   12 1
     8    5    6 1
     9    7    9 2
    10    7   10 1
    11    8   10 2
    12    8   11 1
    13    9   11 1
    14    2   13 1
    15    3   14 1
    16    5   15 1
    17    6   16 1
    18    8   17 1
    19    9   18 1
    20   11   19 1
@<TRIPOS>PROPERTY_DATA
  Total_Score	| 3.4182
  Crash		| -0.4303
  Polar		| 2.0684
  FragIndex	| 1
  FragRMSD	| 0.125

