@<TRIPOS>MOLECULE
BindingDB_24671
 19 20 0 0 0
SMALL
NO_CHARGES


@<TRIPOS>ATOM
1    C        60.0950   53.6677   17.9497  C     
2    C        58.1498   54.5509   16.7348  C     
3    C        59.4948   54.6512   17.1287  C     
4    C        59.2931   52.5699   18.3633  C     
5    C        57.9468   52.4675   17.9698  C     
6    C        57.3722   53.4577   17.1544  C     
7    C        61.4572   53.7818   18.3434  C     
8    C        63.3777   53.3431   19.2715  C     
9    C        62.3718   54.7915   18.0226  C     
10   N        62.1182   52.9013   19.1172  N     
11   N        63.5341   54.4925   18.6051  N     
12   F        56.1242   53.3620   16.7897  F     
13   H        57.7392   55.2762   16.1422  H     
14   H        60.0300   55.4598   16.8056  H     
15   H        59.6752   51.8310   18.9562  H     
16   H        57.3873   51.6687   18.2791  H     
17   H        64.1028   52.8724   19.8132  H     
18   H        62.2076   55.6197   17.4488  H     
19   H        64.3499   55.0177   18.5532  H     
@<TRIPOS>BOND
     1    1    3 2
     2    1    4 1
     3    1    7 1
     4    2    3 1
     5    2    6 2
     6    4    5 2
     7    5    6 1
     8    6   12 1
     9    7    9 2
    10    7   10 1
    11    8   10 2
    12    8   11 1
    13    9   11 1
    14    2   13 1
    15    3   14 1
    16    4   15 1
    17    5   16 1
    18    8   17 1
    19    9   18 1
    20   11   19 1
@<TRIPOS>PROPERTY_DATA
  Total_Score	| 3.3200
  Crash		| -0.3911
  Polar		| 2.1072
  FragIndex	| 1
  FragRMSD	| 0.063

