@<TRIPOS>MOLECULE
BindingDB_50336488
 20 20 0 0 0
SMALL
NO_CHARGES


@<TRIPOS>ATOM
1    C        14.7471    2.8203   18.8574  C     
2    C        15.1883    2.0462   17.7613  C     
3    C        15.1425    2.5865   16.4525  C     
4    C        14.5893    3.8662   16.2480  C     
5    C        14.1276    4.6186   17.3447  C     
6    C        14.2138    4.1052   18.6509  C     
7    O        15.5711    1.8598   15.3725  O     
8    C        17.0008    1.7309   15.3093  C     
9    O        15.6855    0.7905   17.9942  O     
10   C        14.8673   -0.2454   17.4132  C     
11   H        14.7964    2.4434   19.8066  H     
12   H        14.5281    4.2584   15.3036  H     
13   H        13.7359    5.5460   17.1883  H     
14   H        13.8844    4.6604   19.4486  H     
15   H        17.4863    2.7050   15.2321  H     
16   H        17.2461    1.1538   14.4191  H     
17   H        17.3914    1.2006   16.1812  H     
18   H        13.8343   -0.1819   17.7651  H     
19   H        15.2685   -1.2156   17.7059  H     
20   H        14.8699   -0.1883   16.3198  H     
@<TRIPOS>BOND
     1    1    2 2
     2    1    6 1
     3    2    3 1
     4    2    9 1
     5    3    4 2
     6    3    7 1
     7    4    5 1
     8    5    6 2
     9    7    8 1
    10    9   10 1
    11    1   11 1
    12    4   12 1
    13    5   13 1
    14    6   14 1
    15    8   15 1
    16    8   16 1
    17    8   17 1
    18   10   18 1
    19   10   19 1
    20   10   20 1
@<TRIPOS>PROPERTY_DATA
  Total_Score	| 4.3587
  Crash		| -0.9037
  Polar		| 1.1889
  FragIndex	| 1
  FragRMSD	| 0.165

