@<TRIPOS>MOLECULE
BindingDB_26189
 14 14 0 0 0
SMALL
NO_CHARGES


@<TRIPOS>ATOM
1    C        14.5951    3.6805   16.2271  C     
2    C        14.1892    4.5140   17.2894  C     
3    C        14.2633    4.0555   18.6177  C     
4    C        14.7514    2.7644   18.8879  C     
5    C        15.1595    1.9275   17.8296  C     
6    C        15.0709    2.3835   16.4996  C     
7    O        14.5519    4.1123   14.9408  O     
8    O        15.6519    0.6937   18.0839  O     
9    H        13.8548    5.4617   17.1000  H     
10   H        13.9690    4.6595   19.3883  H     
11   H        14.8158    2.4346   19.8541  H     
12   H        15.3606    1.7752   15.7320  H     
13   H        14.8713    5.0429   14.9563  H     
14   H        14.8602    0.1119   18.1255  H     
@<TRIPOS>BOND
     1    1    2 1
     2    1    6 2
     3    1    7 1
     4    2    3 2
     5    3    4 1
     6    4    5 2
     7    5    6 1
     8    5    8 1
     9    2    9 1
    10    3   10 1
    11    4   11 1
    12    6   12 1
    13    7   13 1
    14    8   14 1
@<TRIPOS>PROPERTY_DATA
  Total_Score	| 3.1467
  Crash		| -0.3108
  Polar		| 1.1831
  FragIndex	| 1
  FragRMSD	| 0.085

