@<TRIPOS>MOLECULE
BindingDB_26188
 14 14 0 0 0
SMALL
NO_CHARGES


@<TRIPOS>ATOM
1    C        14.6692    2.7668   18.8816  C     
2    C        14.2024    4.0674   18.6077  C     
3    C        14.2102    4.5548   17.2842  C     
4    C        14.6758    3.7386   16.2355  C     
5    C        15.1553    2.4438   16.5134  C     
6    C        15.1544    1.9548   17.8354  C     
7    O        14.5908    2.3090   20.1569  O     
8    O        15.6446    0.7185   18.1100  O     
9    H        13.8339    4.6549   19.3612  H     
10   H        13.8830    5.5017   17.0854  H     
11   H        14.6672    4.0868   15.2738  H     
12   H        15.5004    1.8567   15.7472  H     
13   H        15.4918    2.0387   20.4253  H     
14   H        14.8602    0.1394   18.2041  H     
@<TRIPOS>BOND
     1    1    2 1
     2    1    6 2
     3    1    7 1
     4    2    3 2
     5    3    4 1
     6    4    5 2
     7    5    6 1
     8    6    8 1
     9    2    9 1
    10    3   10 1
    11    4   11 1
    12    5   12 1
    13    7   13 1
    14    8   14 1
@<TRIPOS>PROPERTY_DATA
  Total_Score	| 3.4459
  Crash		| -0.8027
  Polar		| 1.9171
  FragIndex	| 1
  FragRMSD	| 0.082

