@<TRIPOS>MOLECULE
BindingDB_50336489
 24 24 0 0 0
SMALL
NO_CHARGES


@<TRIPOS>ATOM
1    C        15.0641    2.2298   16.5534  C     
2    C        14.7420    3.5722   16.2413  C     
3    C        14.4349    4.4556   17.2979  C     
4    C        14.4287    4.0018   18.6351  C     
5    C        14.7829    2.6760   18.9314  C     
6    C        15.1151    1.7823   17.8943  C     
7    O        14.2251    5.7830   17.0414  O     
8    C        15.4259    6.4292   16.5606  C     
9    O        15.5553    0.5337   18.2508  O     
10   C        15.0690   -0.5440   17.4354  C     
11   O        14.6943    4.0641   14.9545  O     
12   C        15.8079    3.7520   14.0998  C     
13   H        15.2839    1.5804   15.7954  H     
14   H        14.2246    4.6495   19.4013  H     
15   H        14.8300    2.3721   19.9104  H     
16   H        16.2420    6.3391   17.2812  H     
17   H        15.2203    7.4903   16.4417  H     
18   H        15.7428    6.0175   15.5960  H     
19   H        13.9929   -0.4742   17.2394  H     
20   H        15.2678   -1.4928   17.9443  H     
21   H        15.6100   -0.5485   16.4884  H     
22   H        16.7613    4.0286   14.5571  H     
23   H        15.6986    4.3171   13.1712  H     
24   H        15.8148    2.6893   13.8544  H     
@<TRIPOS>BOND
     1    1    2 2
     2    1    6 1
     3    2    3 1
     4    2   11 1
     5    3    4 2
     6    3    7 1
     7    4    5 1
     8    5    6 2
     9    6    9 1
    10    7    8 1
    11    9   10 1
    12   11   12 1
    13    1   13 1
    14    4   14 1
    15    5   15 1
    16    8   16 1
    17    8   17 1
    18    8   18 1
    19   10   19 1
    20   10   20 1
    21   10   21 1
    22   12   22 1
    23   12   23 1
    24   12   24 1
@<TRIPOS>PROPERTY_DATA
  Total_Score	| 2.8925
  Crash		| -2.7025
  Polar		| 0.8308
  FragIndex	| 1
  FragRMSD	| 0.181

