@<TRIPOS>MOLECULE
BindingDB_26190
 14 14 0 0 0
SMALL
NO_CHARGES


@<TRIPOS>ATOM
1    C        14.6487    3.6228   16.2111  C     
2    C        14.2574    4.4876   17.2532  C     
3    C        14.2450    4.0261   18.5856  C     
4    C        14.6396    2.7048   18.8739  C     
5    C        15.0128    1.8350   17.8308  C     
6    C        15.0166    2.2947   16.5005  C     
7    O        14.6759    4.0552   14.9298  O     
8    O        14.5903    2.2844   20.1550  O     
9    H        13.9803    5.4462   17.0481  H     
10   H        13.9467    4.6402   19.3463  H     
11   H        15.2732    0.8641   18.0349  H     
12   H        15.2975    1.6670   15.7420  H     
13   H        15.2459    4.8548   14.9421  H     
14   H        15.5104    2.0285   20.3978  H     
@<TRIPOS>BOND
     1    1    2 1
     2    1    6 2
     3    1    7 1
     4    2    3 2
     5    3    4 1
     6    4    5 2
     7    4    8 1
     8    5    6 1
     9    2    9 1
    10    3   10 1
    11    5   11 1
    12    6   12 1
    13    7   13 1
    14    8   14 1
@<TRIPOS>PROPERTY_DATA
  Total_Score	| 1.9970
  Crash		| -0.8216
  Polar		| 0.6990
  FragIndex	| 1
  FragRMSD	| 0.137

