@<TRIPOS>MOLECULE
BindingDB_50240430
 19 19 0 0 0
SMALL
NO_CHARGES


@<TRIPOS>ATOM
1    C        15.0605    2.0474   16.6826  C     
2    C        14.8518    1.8391   18.0668  C     
3    C        14.6534    2.9216   18.9334  C     
4    C        14.6445    4.2337   18.4272  C     
5    C        14.8297    4.4772   17.0506  C     
6    C        15.0522    3.3741   16.1813  C     
7    O        15.2575    3.5880   14.8566  O     
8    C        15.2733    0.8544   15.8259  C     
9    C        14.7788    5.8767   16.5673  C     
10   H        14.8366    0.8920   18.4522  H     
11   H        14.4961    2.7588   19.9297  H     
12   H        14.4957    5.0090   19.0785  H     
13   H        16.1478    4.0003   14.7989  H     
14   H        16.1499    0.3041   16.1649  H     
15   H        15.4253    1.1098   14.7753  H     
16   H        14.4015    0.2019   15.8906  H     
17   H        13.8130    6.3122   16.8293  H     
18   H        14.8948    5.9635   15.4849  H     
19   H        15.5691    6.4623   17.0367  H     
@<TRIPOS>BOND
     1    1    2 2
     2    1    6 1
     3    1    8 1
     4    2    3 1
     5    3    4 2
     6    4    5 1
     7    5    6 2
     8    5    9 1
     9    6    7 1
    10    2   10 1
    11    3   11 1
    12    4   12 1
    13    7   13 1
    14    8   14 1
    15    8   15 1
    16    8   16 1
    17    9   17 1
    18    9   18 1
    19    9   19 1
@<TRIPOS>PROPERTY_DATA
  Total_Score	| 2.4625
  Crash		| -0.9800
  Polar		| 0.0111
  FragIndex	| 1
  FragRMSD	| 0.557

