@<TRIPOS>MOLECULE
BindingDB_26187
 13 13 0 0 0
SMALL
NO_CHARGES


@<TRIPOS>ATOM
1    C        15.1417    1.9028   17.8617  C     
2    C        14.7726    2.7588   18.9196  C     
3    C        14.2893    4.0523   18.6434  C     
4    C        14.1697    4.4915   17.3107  C     
5    C        14.5300    3.6339   16.2537  C     
6    C        15.0186    2.3418   16.5284  C     
7    O        15.6222    0.6637   18.1230  O     
8    H        14.8599    2.4445   19.8893  H     
9    H        14.0251    4.6732   19.4114  H     
10   H        13.8214    5.4321   17.1108  H     
11   H        14.4383    3.9506   15.2856  H     
12   H        15.2806    1.7222   15.7580  H     
13   H        14.8259    0.0922   18.1631  H     
@<TRIPOS>BOND
     1    1    2 1
     2    1    6 2
     3    1    7 1
     4    2    3 2
     5    3    4 1
     6    4    5 2
     7    5    6 1
     8    2    8 1
     9    3    9 1
    10    4   10 1
    11    5   11 1
    12    6   12 1
    13    7   13 1
@<TRIPOS>PROPERTY_DATA
  Total_Score	| 3.3830
  Crash		| -0.2615
  Polar		| 1.1711
  FragIndex	| 1
  FragRMSD	| 0.083

