@<TRIPOS>MOLECULE
BindingDB_50240369
 17 17 0 0 0
SMALL
NO_CHARGES


@<TRIPOS>ATOM
1    C        14.2916    4.3557   17.2707  C     
2    C        14.2664    3.9699   18.6225  C     
3    C        14.6631    2.6674   18.9807  C     
4    C        15.0746    1.7623   18.0013  C     
5    C        15.1133    2.1329   16.6271  C     
6    C        14.7086    3.4443   16.2768  C     
7    O        14.7161    3.8724   14.9863  O     
8    O        15.5083    1.3239   15.5804  O     
9    C        16.3845    0.2005   15.7644  C     
10   H        14.0045    5.2983   17.0119  H     
11   H        13.9598    4.6271   19.3413  H     
12   H        14.6375    2.3811   19.9641  H     
13   H        15.3540    0.8233   18.2914  H     
14   H        15.0202    3.1142   14.4416  H     
15   H        17.3666    0.5316   16.1162  H     
16   H        16.5008   -0.2946   14.8098  H     
17   H        15.9507   -0.5046   16.4790  H     
@<TRIPOS>BOND
     1    1    2 2
     2    1    6 1
     3    2    3 1
     4    3    4 2
     5    4    5 1
     6    5    6 2
     7    5    8 1
     8    6    7 1
     9    8    9 1
    10    1   10 1
    11    2   11 1
    12    3   12 1
    13    4   13 1
    14    7   14 1
    15    9   15 1
    16    9   16 1
    17    9   17 1
@<TRIPOS>PROPERTY_DATA
  Total_Score	| 2.8556
  Crash		| -0.3727
  Polar		| 0.0007
  FragIndex	| 1
  FragRMSD	| 0.225

