@<TRIPOS>MOLECULE
BindingDB_26195
 15 15 0 0 0
SMALL
NO_CHARGES


@<TRIPOS>ATOM
1    C        14.6083    3.8422   16.1123  C     
2    C        14.1642    4.5419   17.2543  C     
3    C        14.2675    3.9629   18.5350  C     
4    C        14.8447    2.6856   18.6781  C     
5    C        15.2874    1.9843   17.5351  C     
6    C        15.1512    2.5527   16.2563  C     
7    O        14.5118    4.4107   14.8760  O     
8    N        14.9861    2.1273   19.8922  N     
9    H        13.7648    5.4829   17.1445  H     
10   H        13.9344    4.4846   19.3476  H     
11   H        15.6954    1.0537   17.6326  H     
12   H        15.4588    2.0353   15.4361  H     
13   H        14.9804    5.2847   14.9480  H     
14   H        15.4771    1.2943   19.9783  H     
15   H        14.6252    2.5488   20.6804  H     
@<TRIPOS>BOND
     1    1    2 1
     2    1    6 2
     3    1    7 1
     4    2    3 2
     5    3    4 1
     6    4    5 2
     7    4    8 1
     8    5    6 1
     9    2    9 1
    10    3   10 1
    11    5   11 1
    12    6   12 1
    13    7   13 1
    14    8   14 1
    15    8   15 1
@<TRIPOS>PROPERTY_DATA
  Total_Score	| 0.0325
  Crash		| -2.2414
  Polar		| 0.0208
  FragIndex	| 1
  FragRMSD	| 0.278

