@<TRIPOS>MOLECULE
BindingDB_50031472
 15 15 0 0 0
SMALL
NO_CHARGES


@<TRIPOS>ATOM
1    C        15.0908    2.3736   16.5295  C     
2    C        14.6167    3.6762   16.2578  C     
3    C        14.1903    4.5048   17.3169  C     
4    C        14.2409    4.0453   18.6444  C     
5    C        14.7274    2.7527   18.9171  C     
6    C        15.1498    1.9137   17.8641  C     
7    O        15.6403    0.6745   18.1237  O     
8    O        15.5020    1.5881   15.4958  O     
9    O        14.5906    4.1175   14.9739  O     
10   H        13.8477    5.4460   17.1243  H     
11   H        13.9388    4.6487   19.4102  H     
12   H        14.7746    2.4235   19.8903  H     
13   H        14.8525    0.0804   18.1753  H     
14   H        16.4771    1.6484   15.4686  H     
15   H        15.3812    4.6950   14.8762  H     
@<TRIPOS>BOND
     1    1    2 2
     2    1    6 1
     3    1    8 1
     4    2    3 1
     5    2    9 1
     6    3    4 2
     7    4    5 1
     8    5    6 2
     9    6    7 1
    10    3   10 1
    11    4   11 1
    12    5   12 1
    13    7   13 1
    14    8   14 1
    15    9   15 1
@<TRIPOS>PROPERTY_DATA
  Total_Score	| 2.8918
  Crash		| -0.2620
  Polar		| 1.1880
  FragIndex	| 1
  FragRMSD	| 0.052

