@<TRIPOS>MOLECULE
BindingDB_30181
 35 38 0 0 0
SMALL
NO_CHARGES


@<TRIPOS>ATOM
1    C        81.8326  260.8777  107.8728  C     
2    C        80.8279  261.2725  106.9505  C     
3    N        81.2243  261.8524  105.7873  N     
4    C        82.5210  262.0775  105.4639  C     
5    C        83.5380  261.7086  106.3591  C     
6    C        83.2073  261.0985  107.5937  C     
7    C        84.2137  260.7283  108.5378  C     
8    C        85.1175  259.8847  110.3757  C     
9    N        83.9755  260.0835  109.6992  N     
10   C        85.5966  260.9527  108.4805  C     
11   C        86.7969  259.2173  112.1441  C     
12   C        85.3018  259.2187  111.6769  C     
13   C        86.1596  260.4247  109.6346  C     
14   C        87.4603  260.3833  110.0805  C     
15   N        87.7531  259.8203  111.2472  N     
16   O        88.3645  260.8748  109.4227  O     
17   C        79.4318  261.1039  107.1854  C     
18   N        77.5524  259.8975  108.0911  N     
19   C        76.6842  260.7854  107.5511  C     
20   N        77.1546  261.8304  106.8372  N     
21   C        78.4852  262.0088  106.6446  C     
22   C        78.8932  260.0249  107.9281  C     
23   H        81.5558  260.4601  108.7658  H     
24   H        82.7444  262.5160  104.5700  H     
25   H        84.5069  261.9047  106.0977  H     
26   H        83.1036  259.7983  110.0114  H     
27   H        86.1154  261.4244  107.7381  H     
28   H        86.8720  259.7427  113.1009  H     
29   H        87.1147  258.1850  112.3175  H     
30   H        84.6811  259.7293  112.4193  H     
31   H        84.9406  258.1898  111.5897  H     
32   H        88.6829  259.8142  111.5230  H     
33   H        75.6840  260.6696  107.6915  H     
34   H        78.7889  262.8249  106.1026  H     
35   H        79.4945  259.3069  108.3321  H     
@<TRIPOS>BOND
     1    1    2 1
     2    1    6 2
     3    2    3 2
     4    2   17 1
     5    3    4 1
     6    4    5 2
     7    5    6 1
     8    6    7 1
     9    7    9 1
    10    7   10 2
    11    8    9 1
    12    8   12 1
    13    8   13 2
    14   10   13 1
    15   11   12 1
    16   11   15 1
    17   13   14 1
    18   14   15 1
    19   14   16 2
    20   17   21 1
    21   17   22 2
    22   18   19 2
    23   18   22 1
    24   19   20 1
    25   20   21 2
    26    1   23 1
    27    4   24 1
    28    5   25 1
    29    9   26 1
    30   10   27 1
    31   11   28 1
    32   11   29 1
    33   12   30 1
    34   12   31 1
    35   15   32 1
    36   19   33 1
    37   21   34 1
    38   22   35 1
@<TRIPOS>PROPERTY_DATA
  Total_Score	| 4.4002
  Crash		| -0.6837
  Polar		| 1.1493
  FragIndex	| 1
  FragRMSD	| 0.169

