@<TRIPOS>MOLECULE
BindingDB_30192
 37 40 0 0 0
SMALL
NO_CHARGES


@<TRIPOS>ATOM
1    C        81.9410  260.6658  107.7253  C     
2    C        80.8951  261.1439  106.8899  C     
3    N        81.2648  261.8965  105.8148  N     
4    C        82.5409  262.2332  105.5129  C     
5    C        83.5827  261.8236  106.3609  C     
6    C        83.2931  261.0365  107.5042  C     
7    C        84.3061  260.6559  108.4415  C     
8    C        85.1988  259.8056  110.2746  C     
9    N        84.0709  259.9558  109.5729  N     
10   C        85.6730  260.9625  108.4365  C     
11   C        86.8111  259.1480  112.0925  C     
12   C        85.3453  259.1085  111.5562  C     
13   C        86.2368  260.4309  109.5945  C     
14   C        87.5166  260.4429  110.1175  C     
15   N        87.7752  259.8453  111.2789  N     
16   O        88.4258  261.0130  109.5354  O     
17   C        79.4910  260.8872  107.0878  C     
18   C        77.1541  261.6593  106.8350  C     
19   C        76.6708  260.4637  107.3858  C     
20   C        77.5881  259.5026  107.8421  C     
21   C        78.9775  259.7060  107.7038  C     
22   C        78.5411  261.8693  106.6958  C     
23   F        79.7561  258.7930  108.2215  F     
24   H        81.7156  260.0416  108.5033  H     
25   H        82.7283  262.8086  104.6873  H     
26   H        84.5346  262.1046  106.1339  H     
27   H        83.2104  259.6152  109.8611  H     
28   H        86.1750  261.4952  107.7230  H     
29   H        86.8188  259.6112  113.0829  H     
30   H        87.1660  258.1220  112.2180  H     
31   H        84.6699  259.5778  112.2738  H     
32   H        85.0314  258.0742  111.4067  H     
33   H        88.6894  259.8711  111.6005  H     
34   H        76.4879  262.3640  106.5067  H     
35   H        75.6685  260.2926  107.4580  H     
36   H        77.2360  258.6471  108.2886  H     
37   H        78.8439  262.7508  106.2758  H     
@<TRIPOS>BOND
     1    1    2 1
     2    1    6 2
     3    2    3 2
     4    2   17 1
     5    3    4 1
     6    4    5 2
     7    5    6 1
     8    6    7 1
     9    7    9 1
    10    7   10 2
    11    8    9 1
    12    8   12 1
    13    8   13 2
    14   10   13 1
    15   11   12 1
    16   11   15 1
    17   13   14 1
    18   14   15 1
    19   14   16 2
    20   17   21 1
    21   17   22 2
    22   18   19 2
    23   18   22 1
    24   19   20 1
    25   20   21 2
    26   21   23 1
    27    1   24 1
    28    4   25 1
    29    5   26 1
    30    9   27 1
    31   10   28 1
    32   11   29 1
    33   11   30 1
    34   12   31 1
    35   12   32 1
    36   15   33 1
    37   18   34 1
    38   19   35 1
    39   20   36 1
    40   22   37 1
@<TRIPOS>PROPERTY_DATA
  Total_Score	| 4.9750
  Crash		| -0.8613
  Polar		| 1.1227
  FragIndex	| 1
  FragRMSD	| 0.194

