@<TRIPOS>MOLECULE
BindingDB_30183
 43 47 0 0 0
SMALL
NO_CHARGES


@<TRIPOS>ATOM
1    C        81.8236  260.9004  107.8906  C     
2    C        80.8271  261.2425  106.9420  C     
3    N        81.2176  261.8703  105.7983  N     
4    C        82.5018  262.1861  105.5171  C     
5    C        83.5124  261.8647  106.4363  C     
6    C        83.1883  261.2066  107.6505  C     
7    C        84.1862  260.8661  108.6132  C     
8    C        85.0994  260.1338  110.4984  C     
9    N        83.9483  260.3569  109.8433  N     
10   C        85.5761  260.9833  108.4943  C     
11   C        86.8172  259.3384  112.1779  C     
12   C        85.3088  259.6300  111.8726  C     
13   C        86.1466  260.5274  109.6752  C     
14   C        87.4607  260.4471  110.0832  C     
15   N        87.7696  259.8925  111.2494  N     
16   O        88.3597  260.8879  109.3842  O     
17   C        79.4400  260.9644  107.1210  C     
18   C        76.6509  260.4104  107.3716  C     
19   C        75.2902  260.1014  107.4950  C     
20   C        74.9060  258.9429  108.0695  C     
21   C        75.8260  258.0505  108.5456  C     
22   C        77.1497  258.2993  108.4591  C     
23   C        77.6122  259.4822  107.8645  C     
24   C        78.9916  259.7657  107.7290  C     
25   C        78.4651  261.8804  106.6568  C     
26   C        77.0896  261.6095  106.7740  C     
27   H        81.5514  260.4479  108.7661  H     
28   H        82.7277  262.6644  104.6455  H     
29   H        84.4750  262.1244  106.2050  H     
30   H        83.0681  260.1776  110.2115  H     
31   H        86.0999  261.3334  107.6925  H     
32   H        87.0617  259.7257  113.1709  H     
33   H        86.9791  258.2579  112.2013  H     
34   H        84.9319  260.3860  112.5668  H     
35   H        84.7247  258.7180  112.0149  H     
36   H        88.7111  259.8204  111.4742  H     
37   H        74.5992  260.7334  107.1606  H     
38   H        73.9379  258.7419  108.1598  H     
39   H        75.5130  257.2107  108.9749  H     
40   H        77.7938  257.6406  108.8326  H     
41   H        79.6723  259.0705  108.0462  H     
42   H        78.7470  262.7656  106.2260  H     
43   H        76.4140  262.2910  106.4161  H     
@<TRIPOS>BOND
     1    1    2 1
     2    1    6 2
     3    2    3 2
     4    2   17 1
     5    3    4 1
     6    4    5 2
     7    5    6 1
     8    6    7 1
     9    7    9 1
    10    7   10 2
    11    8    9 1
    12    8   12 1
    13    8   13 2
    14   10   13 1
    15   11   12 1
    16   11   15 1
    17   13   14 1
    18   14   15 1
    19   14   16 2
    20   17   24 1
    21   17   25 2
    22   18   19 1
    23   18   23 1
    24   18   26 2
    25   19   20 2
    26   20   21 1
    27   21   22 2
    28   22   23 1
    29   23   24 2
    30   25   26 1
    31    1   27 1
    32    4   28 1
    33    5   29 1
    34    9   30 1
    35   10   31 1
    36   11   32 1
    37   11   33 1
    38   12   34 1
    39   12   35 1
    40   15   36 1
    41   19   37 1
    42   20   38 1
    43   21   39 1
    44   22   40 1
    45   24   41 1
    46   25   42 1
    47   26   43 1
@<TRIPOS>PROPERTY_DATA
  Total_Score	| 5.5549
  Crash		| -0.7007
  Polar		| 1.1573
  FragIndex	| 1
  FragRMSD	| 0.139

