@<TRIPOS>MOLECULE
BindingDB_30195
 40 43 0 0 0
SMALL
NO_CHARGES


@<TRIPOS>ATOM
1    C        81.9012  260.8466  107.8540  C     
2    C        80.8954  261.2078  106.9267  C     
3    N        81.2650  261.9068  105.8219  N     
4    C        82.5414  262.2699  105.5574  C     
5    C        83.5632  261.9332  106.4598  C     
6    C        83.2533  261.2075  107.6361  C     
7    C        84.2496  260.8470  108.5860  C     
8    C        85.1472  260.0578  110.4492  C     
9    N        84.0018  260.2857  109.7892  N     
10   C        85.6373  260.9926  108.4878  C     
11   C        86.8302  259.2799  112.1637  C     
12   C        85.3229  259.4867  111.7980  C     
13   C        86.2000  260.4950  109.6576  C     
14   C        87.5063  260.4030  110.0858  C     
15   N        87.7968  259.8392  111.2503  N     
16   O        88.4169  260.8437  109.4004  O     
17   C        79.5185  260.8989  107.1151  C     
18   C        77.7352  259.3638  107.8133  C     
19   C        76.7342  260.2804  107.4150  C     
20   C        77.1515  261.5192  106.8755  C     
21   C        78.5156  261.8202  106.7286  C     
22   C        79.1000  259.6682  107.6743  C     
23   C        75.2978  259.9129  107.5506  C     
24   F        74.4182  260.8905  107.1458  F     
25   F        75.0341  258.7972  106.7927  F     
26   F        75.0061  259.6364  108.8637  F     
27   H        81.6379  260.3363  108.6983  H     
28   H        82.7458  262.8054  104.7149  H     
29   H        84.5174  262.2340  106.2504  H     
30   H        83.1207  260.0712  110.1336  H     
31   H        86.1638  261.3787  107.7057  H     
32   H        87.0225  259.7127  113.1508  H     
33   H        87.0371  258.2078  112.2371  H     
34   H        84.8566  260.1679  112.5120  H     
35   H        84.7968  258.5322  111.8415  H     
36   H        88.7312  259.7696  111.4947  H     
37   H        77.4697  258.4564  108.2060  H     
38   H        76.4678  262.2153  106.5771  H     
39   H        78.7751  262.7326  106.3383  H     
40   H        79.7831  258.9651  107.9586  H     
@<TRIPOS>BOND
     1    1    2 1
     2    1    6 2
     3    2    3 2
     4    2   17 1
     5    3    4 1
     6    4    5 2
     7    5    6 1
     8    6    7 1
     9    7    9 1
    10    7   10 2
    11    8    9 1
    12    8   12 1
    13    8   13 2
    14   10   13 1
    15   11   12 1
    16   11   15 1
    17   13   14 1
    18   14   15 1
    19   14   16 2
    20   17   21 1
    21   17   22 2
    22   18   19 2
    23   18   22 1
    24   19   20 1
    25   19   23 1
    26   20   21 2
    27   23   24 1
    28   23   25 1
    29   23   26 1
    30    1   27 1
    31    4   28 1
    32    5   29 1
    33    9   30 1
    34   10   31 1
    35   11   32 1
    36   11   33 1
    37   12   34 1
    38   12   35 1
    39   15   36 1
    40   18   37 1
    41   20   38 1
    42   21   39 1
    43   22   40 1
@<TRIPOS>PROPERTY_DATA
  Total_Score	| 5.5328
  Crash		| -0.7423
  Polar		| 1.1399
  FragIndex	| 1
  FragRMSD	| 0.134

