@<TRIPOS>MOLECULE
BindingDB_30194
 37 40 0 0 0
SMALL
NO_CHARGES


@<TRIPOS>ATOM
1    C        81.8573  260.7835  107.8496  C     
2    C        80.8637  261.1617  106.9158  C     
3    N        81.2642  261.8256  105.7988  N     
4    C        82.5510  262.1417  105.5315  C     
5    C        83.5599  261.7861  106.4419  C     
6    C        83.2240  261.0976  107.6328  C     
7    C        84.2065  260.7356  108.5998  C     
8    C        85.0748  259.9027  110.4536  C     
9    N        83.9449  260.1051  109.7642  N     
10   C        85.5906  260.9526  108.5665  C     
11   C        86.7269  259.1122  112.1949  C     
12   C        85.2292  259.2714  111.7787  C     
13   C        86.1383  260.4243  109.7296  C     
14   C        87.4320  260.3712  110.2045  C     
15   N        87.6989  259.7714  111.3570  N     
16   O        88.3495  260.8693  109.5722  O     
17   C        79.4752  260.8993  107.0912  C     
18   C        77.1396  261.6188  106.8237  C     
19   C        76.6893  260.4021  107.3676  C     
20   C        77.6229  259.4302  107.7687  C     
21   C        79.0041  259.6812  107.6377  C     
22   C        78.5184  261.8607  106.6821  C     
23   F        75.4106  260.1694  107.4915  F     
24   H        81.5746  260.3047  108.7064  H     
25   H        82.7833  262.6519  104.6781  H     
26   H        84.5232  262.0406  106.2171  H     
27   H        83.0673  259.8331  110.0662  H     
28   H        86.1277  261.4138  107.8281  H     
29   H        86.8556  259.4884  113.2128  H     
30   H        86.9806  258.0470  112.2112  H     
31   H        84.7009  259.8923  112.5064  H     
32   H        84.7431  258.2916  111.7521  H     
33   H        88.6243  259.7328  111.6383  H     
34   H        76.4645  262.3291  106.5291  H     
35   H        77.3031  258.5383  108.1536  H     
36   H        79.6592  258.9461  107.9215  H     
37   H        78.8166  262.7586  106.2878  H     
@<TRIPOS>BOND
     1    1    2 1
     2    1    6 2
     3    2    3 2
     4    2   17 1
     5    3    4 1
     6    4    5 2
     7    5    6 1
     8    6    7 1
     9    7    9 1
    10    7   10 2
    11    8    9 1
    12    8   12 1
    13    8   13 2
    14   10   13 1
    15   11   12 1
    16   11   15 1
    17   13   14 1
    18   14   15 1
    19   14   16 2
    20   17   21 1
    21   17   22 2
    22   18   19 2
    23   18   22 1
    24   19   20 1
    25   19   23 1
    26   20   21 2
    27    1   24 1
    28    4   25 1
    29    5   26 1
    30    9   27 1
    31   10   28 1
    32   11   29 1
    33   11   30 1
    34   12   31 1
    35   12   32 1
    36   15   33 1
    37   18   34 1
    38   20   35 1
    39   21   36 1
    40   22   37 1
@<TRIPOS>PROPERTY_DATA
  Total_Score	| 5.0514
  Crash		| -0.6119
  Polar		| 1.1356
  FragIndex	| 1
  FragRMSD	| 0.207

