@<TRIPOS>MOLECULE
BindingDB_30197
 42 45 0 0 0
SMALL
NO_CHARGES


@<TRIPOS>ATOM
1    C        81.8762  260.7333  107.9076  C     
2    C        80.8763  261.1025  106.9796  C     
3    N        81.2366  261.7953  105.8733  N     
4    C        82.5184  262.1475  105.6052  C     
5    C        83.5392  261.8024  106.5033  C     
6    C        83.2316  261.0880  107.6885  C     
7    C        84.2261  260.7312  108.6433  C     
8    C        85.1480  259.8807  110.4685  C     
9    N        84.0034  260.0538  109.7906  N     
10   C        85.5991  260.9993  108.5966  C     
11   C        86.8471  259.2302  112.2268  C     
12   C        85.3555  259.1858  111.7533  C     
13   C        86.1752  260.4656  109.7419  C     
14   C        87.4786  260.4475  110.1854  C     
15   N        87.7847  259.8760  111.3432  N     
16   O        88.3713  260.9570  109.5261  O     
17   C        79.5138  260.7633  107.1628  C     
18   C        77.1434  261.3634  107.0052  C     
19   C        76.7460  260.0905  107.4825  C     
20   C        77.7727  259.1528  107.7720  C     
21   C        79.1354  259.4945  107.6370  C     
22   C        78.5005  261.6905  106.8224  C     
23   C        75.3852  259.7842  107.6415  C     
24   C        74.7847  258.5190  107.2502  C     
25   O        74.6193  260.6404  108.0681  O     
26   H        81.6071  260.2167  108.7473  H     
27   H        82.7263  262.6662  104.7543  H     
28   H        84.4937  262.0835  106.2778  H     
29   H        83.1382  259.7306  110.0900  H     
30   H        86.1046  261.4951  107.8627  H     
31   H        86.9030  259.7433  113.1899  H     
32   H        87.2008  258.2084  112.3856  H     
33   H        84.7139  259.6495  112.5072  H     
34   H        85.0369  258.1477  111.6322  H     
35   H        88.7142  259.8925  111.6174  H     
36   H        76.4477  262.0688  106.7539  H     
37   H        77.5542  258.2068  108.0903  H     
38   H        79.8417  258.7931  107.8656  H     
39   H        78.7437  262.6043  106.4304  H     
40   H        75.0036  258.3213  106.1972  H     
41   H        73.6969  258.5338  107.3763  H     
42   H        75.1700  257.7005  107.8587  H     
@<TRIPOS>BOND
     1    1    2 1
     2    1    6 2
     3    2    3 2
     4    2   17 1
     5    3    4 1
     6    4    5 2
     7    5    6 1
     8    6    7 1
     9    7    9 1
    10    7   10 2
    11    8    9 1
    12    8   12 1
    13    8   13 2
    14   10   13 1
    15   11   12 1
    16   11   15 1
    17   13   14 1
    18   14   15 1
    19   14   16 2
    20   17   21 1
    21   17   22 2
    22   18   19 2
    23   18   22 1
    24   19   20 1
    25   19   23 1
    26   20   21 2
    27   23   24 1
    28   23   25 2
    29    1   26 1
    30    4   27 1
    31    5   28 1
    32    9   29 1
    33   10   30 1
    34   11   31 1
    35   11   32 1
    36   12   33 1
    37   12   34 1
    38   15   35 1
    39   18   36 1
    40   20   37 1
    41   21   38 1
    42   22   39 1
    43   24   40 1
    44   24   41 1
    45   24   42 1
@<TRIPOS>PROPERTY_DATA
  Total_Score	| 5.5957
  Crash		| -0.6446
  Polar		| 1.1275
  FragIndex	| 1
  FragRMSD	| 0.227

