@<TRIPOS>MOLECULE
BindingDB_30191
 37 40 0 0 0
SMALL
NO_CHARGES


@<TRIPOS>ATOM
1    C        81.8667  260.7202  107.7970  C     
2    C        80.8403  261.1615  106.9325  C     
3    N        81.1680  261.9086  105.8454  N     
4    C        82.4306  262.2395  105.5327  C     
5    C        83.4858  261.8221  106.3756  C     
6    C        83.1984  261.0756  107.5598  C     
7    C        84.1942  260.7273  108.5020  C     
8    C        85.1180  259.9565  110.3527  C     
9    N        83.9675  260.1067  109.6850  N     
10   C        85.5589  260.9768  108.4115  C     
11   C        86.8357  259.3960  112.1067  C     
12   C        85.3360  259.3590  111.6831  C     
13   C        86.1374  260.4819  109.5717  C     
14   C        87.4578  260.4446  109.9799  C     
15   N        87.7732  259.8923  111.1355  N     
16   O        88.3269  260.9071  109.2518  O     
17   C        79.4979  260.8546  107.1174  C     
18   C        77.1251  261.5076  106.9532  C     
19   C        76.7505  260.2446  107.4871  C     
20   C        77.7508  259.3006  107.8638  C     
21   C        79.1097  259.6000  107.6751  C     
22   C        78.4847  261.8051  106.7864  C     
23   Cl       75.1354  259.8716  107.7077  Cl    
24   H        81.6297  260.1858  108.6504  H     
25   H        82.6204  262.8175  104.6907  H     
26   H        84.4356  262.0975  106.1302  H     
27   H        83.0946  259.8196  110.0155  H     
28   H        86.0573  261.4483  107.6427  H     
29   H        86.9354  260.0294  112.9778  H     
30   H        87.1475  258.3929  112.3789  H     
31   H        84.7250  259.9070  112.4021  H     
32   H        84.9676  258.3366  111.6505  H     
33   H        88.7147  259.8860  111.3564  H     
34   H        76.4141  262.2009  106.6486  H     
35   H        77.4890  258.3618  108.2352  H     
36   H        79.8084  258.9098  107.9379  H     
37   H        78.7269  262.7262  106.4085  H     
@<TRIPOS>BOND
     1    1    2 1
     2    1    6 2
     3    2    3 2
     4    2   17 1
     5    3    4 1
     6    4    5 2
     7    5    6 1
     8    6    7 1
     9    7    9 1
    10    7   10 2
    11    8    9 1
    12    8   12 1
    13    8   13 2
    14   10   13 1
    15   11   12 1
    16   11   15 1
    17   13   14 1
    18   14   15 1
    19   14   16 2
    20   17   21 1
    21   17   22 2
    22   18   19 2
    23   18   22 1
    24   19   20 1
    25   19   23 1
    26   20   21 2
    27    1   24 1
    28    4   25 1
    29    5   26 1
    30    9   27 1
    31   10   28 1
    32   11   29 1
    33   11   30 1
    34   12   31 1
    35   12   32 1
    36   15   33 1
    37   18   34 1
    38   20   35 1
    39   21   36 1
    40   22   37 1
@<TRIPOS>PROPERTY_DATA
  Total_Score	| 4.8217
  Crash		| -0.6565
  Polar		| 1.1531
  FragIndex	| 1
  FragRMSD	| 0.148

