@<TRIPOS>MOLECULE
BindingDB_30196
 38 41 0 0 0
SMALL
NO_CHARGES


@<TRIPOS>ATOM
1    C        81.8582  260.6280  107.7883  C     
2    C        80.8530  261.0522  106.8841  C     
3    N        81.2282  261.7868  105.7933  N     
4    C        82.5045  262.1359  105.5381  C     
5    C        83.5199  261.7433  106.4167  C     
6    C        83.2078  260.9644  107.5672  C     
7    C        84.2239  260.5792  108.4933  C     
8    C        85.1501  259.7490  110.3215  C     
9    N        84.0066  259.9011  109.6417  N     
10   C        85.5975  260.8480  108.4419  C     
11   C        86.8044  259.1992  112.1367  C     
12   C        85.3309  259.0903  111.6250  C     
13   C        86.1804  260.3319  109.5980  C     
14   C        87.4683  260.3430  110.0620  C     
15   N        87.7609  259.8171  111.2440  N     
16   O        88.3666  260.8625  109.4143  O     
17   C        79.4706  260.7735  107.0505  C     
18   C        77.1146  261.4845  106.8990  C     
19   C        76.6977  260.2293  107.3990  C     
20   C        77.6671  259.2633  107.7648  C     
21   C        79.0281  259.5302  107.5796  C     
22   C        78.4841  261.7338  106.6954  C     
23   C        75.4383  259.9487  107.5371  C     
24   N        74.3209  259.7100  107.6591  N     
25   H        81.5894  260.1041  108.6247  H     
26   H        82.7093  262.6984  104.7095  H     
27   H        84.4777  262.0596  106.2232  H     
28   H        83.1380  259.5990  109.9524  H     
29   H        86.1072  261.3677  107.7157  H     
30   H        86.8128  259.7848  113.0610  H     
31   H        87.1737  258.2006  112.3859  H     
32   H        84.6583  259.5598  112.3480  H     
33   H        85.0455  258.0422  111.5249  H     
34   H        88.6800  259.8776  111.5503  H     
35   H        76.4245  262.1908  106.6277  H     
36   H        77.3925  258.3407  108.1317  H     
37   H        79.7144  258.8111  107.8295  H     
38   H        78.7495  262.6438  106.2983  H     
@<TRIPOS>BOND
     1    1    2 1
     2    1    6 2
     3    2    3 2
     4    2   17 1
     5    3    4 1
     6    4    5 2
     7    5    6 1
     8    6    7 1
     9    7    9 1
    10    7   10 2
    11    8    9 1
    12    8   12 1
    13    8   13 2
    14   10   13 1
    15   11   12 1
    16   11   15 1
    17   13   14 1
    18   14   15 1
    19   14   16 2
    20   17   21 1
    21   17   22 2
    22   18   19 2
    23   18   22 1
    24   19   20 1
    25   19   23 1
    26   20   21 2
    27   23   24 3
    28    1   25 1
    29    4   26 1
    30    5   27 1
    31    9   28 1
    32   10   29 1
    33   11   30 1
    34   11   31 1
    35   12   32 1
    36   12   33 1
    37   15   34 1
    38   18   35 1
    39   20   36 1
    40   21   37 1
    41   22   38 1
@<TRIPOS>PROPERTY_DATA
  Total_Score	| 5.2386
  Crash		| -0.6645
  Polar		| 1.1433
  FragIndex	| 1
  FragRMSD	| 0.247

