@<TRIPOS>MOLECULE
BindingDB_30178
 37 40 0 0 0
SMALL
NO_CHARGES


@<TRIPOS>ATOM
1    C        81.8951  260.6829  107.7607  C     
2    C        80.8634  261.1443  106.9076  C     
3    N        81.1986  261.8814  105.8252  N     
4    C        82.4684  262.2237  105.5155  C     
5    C        83.5331  261.8034  106.3517  C     
6    C        83.2338  261.0529  107.5192  C     
7    C        84.2489  260.7021  108.4610  C     
8    C        85.1543  259.9258  110.3261  C     
9    N        84.0127  260.0840  109.6395  N     
10   C        85.6207  260.9642  108.4092  C     
11   C        86.8167  259.2964  112.1094  C     
12   C        85.3216  259.2843  111.6435  C     
13   C        86.1881  260.4646  109.5778  C     
14   C        87.4749  260.4238  110.0317  C     
15   N        87.7781  259.8660  111.1975  N     
16   O        88.3800  260.9064  109.3625  O     
17   C        79.5045  260.8805  107.1429  C     
18   C        77.1422  261.5511  106.8803  C     
19   C        76.7268  260.3182  107.4173  C     
20   C        77.6899  259.3615  107.8259  C     
21   C        79.0666  259.6544  107.7118  C     
22   C        78.5125  261.8278  106.7446  C     
23   H        81.6421  260.1306  108.5895  H     
24   H        82.6474  262.7905  104.6835  H     
25   H        84.4858  262.0860  106.1417  H     
26   H        83.1360  259.7976  109.9525  H     
27   H        86.1324  261.4368  107.6628  H     
28   H        86.8889  259.8590  113.0424  H     
29   H        87.1275  258.2693  112.3166  H     
30   H        84.6965  259.8090  112.3679  H     
31   H        84.9624  258.2578  111.5649  H     
32   H        88.7144  259.8489  111.4599  H     
33   H        76.4487  262.2447  106.5594  H     
34   H        75.7460  260.1060  107.4959  H     
35   H        77.3890  258.4531  108.1879  H     
36   H        79.7378  258.9426  108.0145  H     
37   H        78.7836  262.7278  106.3372  H     
@<TRIPOS>BOND
     1    1    2 1
     2    1    6 2
     3    2    3 2
     4    2   17 1
     5    3    4 1
     6    4    5 2
     7    5    6 1
     8    6    7 1
     9    7    9 1
    10    7   10 2
    11    8    9 1
    12    8   12 1
    13    8   13 2
    14   10   13 1
    15   11   12 1
    16   11   15 1
    17   13   14 1
    18   14   15 1
    19   14   16 2
    20   17   21 1
    21   17   22 2
    22   18   19 2
    23   18   22 1
    24   19   20 1
    25   20   21 2
    26    1   23 1
    27    4   24 1
    28    5   25 1
    29    9   26 1
    30   10   27 1
    31   11   28 1
    32   11   29 1
    33   12   30 1
    34   12   31 1
    35   15   32 1
    36   18   33 1
    37   19   34 1
    38   20   35 1
    39   21   36 1
    40   22   37 1
@<TRIPOS>PROPERTY_DATA
  Total_Score	| 5.1650
  Crash		| -0.6908
  Polar		| 1.1467
  FragIndex	| 1
  FragRMSD	| 0.155

