@<TRIPOS>MOLECULE
BindingDB_30199
 39 42 0 0 0
SMALL
NO_CHARGES


@<TRIPOS>ATOM
1    C        81.7810  261.0507  107.8652  C     
2    C        80.8135  261.3802  106.8801  C     
3    N        81.2676  261.9847  105.7469  N     
4    C        82.5687  262.2806  105.5093  C     
5    C        83.5461  261.9516  106.4610  C     
6    C        83.1678  261.3090  107.6626  C     
7    C        84.1377  260.9254  108.6340  C     
8    C        84.9493  260.0955  110.5203  C     
9    N        83.8363  260.3593  109.8194  N     
10   C        85.5358  261.0187  108.5824  C     
11   C        86.5312  259.3596  112.3535  C     
12   C        85.0516  259.4844  111.8567  C     
13   C        86.0433  260.5039  109.7703  C     
14   C        87.3287  260.3654  110.2560  C     
15   N        87.5501  259.8348  111.4522  N     
16   O        88.2876  260.7525  109.6049  O     
17   C        79.4117  261.1331  107.0189  C     
18   C        77.5081  259.8129  107.8840  C     
19   C        76.5900  260.6821  107.2616  C     
20   C        77.0798  261.7728  106.5227  C     
21   C        78.4656  262.0018  106.4221  C     
22   C        78.9002  260.0247  107.7465  C     
23   N        75.2645  260.4845  107.3579  N     
24   H        81.4631  260.6336  108.7474  H     
25   H        82.8294  262.7570  104.6437  H     
26   H        84.5176  262.1887  106.2635  H     
27   H        82.9401  260.1672  110.1285  H     
28   H        86.1059  261.3888  107.8211  H     
29   H        86.6406  259.9152  113.2859  H     
30   H        86.7496  258.3116  112.5687  H     
31   H        84.4768  260.0990  112.5545  H     
32   H        84.5893  258.4962  111.8150  H     
33   H        88.4705  259.7642  111.7514  H     
34   H        77.1715  259.0130  108.4294  H     
35   H        76.4278  262.4155  106.0632  H     
36   H        78.7679  262.8310  105.9097  H     
37   H        79.5320  259.3438  108.1707  H     
38   H        74.6559  261.0729  106.8789  H     
39   H        74.9118  259.7534  107.8852  H     
@<TRIPOS>BOND
     1    1    2 1
     2    1    6 2
     3    2    3 2
     4    2   17 1
     5    3    4 1
     6    4    5 2
     7    5    6 1
     8    6    7 1
     9    7    9 1
    10    7   10 2
    11    8    9 1
    12    8   12 1
    13    8   13 2
    14   10   13 1
    15   11   12 1
    16   11   15 1
    17   13   14 1
    18   14   15 1
    19   14   16 2
    20   17   21 1
    21   17   22 2
    22   18   19 2
    23   18   22 1
    24   19   20 1
    25   19   23 1
    26   20   21 2
    27    1   24 1
    28    4   25 1
    29    5   26 1
    30    9   27 1
    31   10   28 1
    32   11   29 1
    33   11   30 1
    34   12   31 1
    35   12   32 1
    36   15   33 1
    37   18   34 1
    38   20   35 1
    39   21   36 1
    40   22   37 1
    41   23   38 1
    42   23   39 1
@<TRIPOS>PROPERTY_DATA
  Total_Score	| 6.1207
  Crash		| -0.7658
  Polar		| 2.1723
  FragIndex	| 1
  FragRMSD	| 0.297

