@<TRIPOS>MOLECULE
BindingDB_30180
 36 39 0 0 0
SMALL
NO_CHARGES


@<TRIPOS>ATOM
1    C        81.8683  260.6806  107.9092  C     
2    C        80.8305  261.0252  107.0087  C     
3    N        81.1682  261.6525  105.8510  N     
4    C        82.4436  261.9583  105.5108  C     
5    C        83.4939  261.6394  106.3852  C     
6    C        83.2189  260.9930  107.6139  C     
7    C        84.2447  260.6750  108.5476  C     
8    C        85.2143  259.9104  110.3824  C     
9    N        84.0516  260.0478  109.7316  N     
10   C        85.6155  260.9456  108.4540  C     
11   C        86.9548  259.3255  112.1162  C     
12   C        85.4480  259.2864  111.6941  C     
13   C        86.2220  260.4657  109.6058  C     
14   C        87.5360  260.4626  110.0166  C     
15   N        87.8753  259.9077  111.1718  N     
16   O        88.4079  260.9750  109.3286  O     
17   C        79.4554  260.7425  107.2663  C     
18   C        77.0810  261.3317  107.0639  C     
19   C        76.7449  260.1421  107.7305  C     
20   N        77.7274  259.3029  108.1406  N     
21   C        79.0443  259.5645  107.9358  C     
22   C        78.4391  261.6229  106.8330  C     
23   H        81.6319  260.2257  108.7944  H     
24   H        82.6314  262.4194  104.6202  H     
25   H        84.4495  261.8888  106.1097  H     
26   H        83.1982  259.7394  110.0693  H     
27   H        86.0987  261.4101  107.6839  H     
28   H        87.0503  259.8981  113.0417  H     
29   H        87.2955  258.3086  112.3244  H     
30   H        84.8423  259.8129  112.4351  H     
31   H        85.1010  258.2517  111.6461  H     
32   H        88.8152  259.9114  111.4113  H     
33   H        76.3498  261.9745  106.7499  H     
34   H        75.7681  259.9033  107.9037  H     
35   H        79.7233  258.8709  108.2551  H     
36   H        78.6733  262.4975  106.3514  H     
@<TRIPOS>BOND
     1    1    2 1
     2    1    6 2
     3    2    3 2
     4    2   17 1
     5    3    4 1
     6    4    5 2
     7    5    6 1
     8    6    7 1
     9    7    9 1
    10    7   10 2
    11    8    9 1
    12    8   12 1
    13    8   13 2
    14   10   13 1
    15   11   12 1
    16   11   15 1
    17   13   14 1
    18   14   15 1
    19   14   16 2
    20   17   21 1
    21   17   22 2
    22   18   19 2
    23   18   22 1
    24   19   20 1
    25   20   21 2
    26    1   23 1
    27    4   24 1
    28    5   25 1
    29    9   26 1
    30   10   27 1
    31   11   28 1
    32   11   29 1
    33   12   30 1
    34   12   31 1
    35   15   32 1
    36   18   33 1
    37   19   34 1
    38   21   35 1
    39   22   36 1
@<TRIPOS>PROPERTY_DATA
  Total_Score	| 4.7523
  Crash		| -0.6339
  Polar		| 1.1462
  FragIndex	| 1
  FragRMSD	| 1.008

