@<TRIPOS>MOLECULE
BindingDB_30179
 36 39 0 0 0
SMALL
NO_CHARGES


@<TRIPOS>ATOM
1    C        81.9159  260.7388  107.8164  C     
2    C        80.8976  261.1530  106.9237  C     
3    N        81.2638  261.8918  105.8411  N     
4    C        82.5413  262.2485  105.5717  C     
5    C        83.5704  261.8641  106.4444  C     
6    C        83.2683  261.0954  107.5961  C     
7    C        84.2760  260.7135  108.5299  C     
8    C        85.1894  259.8920  110.3710  C     
9    N        84.0451  260.0736  109.6959  N     
10   C        85.6578  260.9337  108.4603  C     
11   C        86.8760  259.3044  112.1631  C     
12   C        85.3861  259.2502  111.6839  C     
13   C        86.2285  260.4217  109.6181  C     
14   C        87.5328  260.3930  110.0580  C     
15   N        87.8293  259.8704  111.2428  N     
16   O        88.4346  260.8654  109.3804  O     
17   C        79.5179  260.8586  107.1229  C     
18   C        77.7221  259.3801  107.8868  C     
19   N        76.8021  260.2956  107.4885  N     
20   C        77.1554  261.4749  106.9217  C     
21   C        78.5170  261.7801  106.7224  C     
22   C        79.0934  259.6405  107.7158  C     
23   H        81.6578  260.2012  108.6462  H     
24   H        82.7475  262.8167  104.7534  H     
25   H        84.5244  262.1629  106.2315  H     
26   H        83.1709  259.7956  110.0143  H     
27   H        86.1727  261.3946  107.7104  H     
28   H        86.9396  259.8861  113.0858  H     
29   H        87.2134  258.2908  112.3994  H     
30   H        84.7485  259.7540  112.4136  H     
31   H        85.0605  258.2128  111.6053  H     
32   H        88.7591  259.8792  111.5157  H     
33   H        77.4096  258.4960  108.3016  H     
34   H        76.4287  262.1327  106.6352  H     
35   H        78.7633  262.6766  106.2966  H     
36   H        79.7685  258.9293  108.0060  H     
@<TRIPOS>BOND
     1    1    2 1
     2    1    6 2
     3    2    3 2
     4    2   17 1
     5    3    4 1
     6    4    5 2
     7    5    6 1
     8    6    7 1
     9    7    9 1
    10    7   10 2
    11    8    9 1
    12    8   12 1
    13    8   13 2
    14   10   13 1
    15   11   12 1
    16   11   15 1
    17   13   14 1
    18   14   15 1
    19   14   16 2
    20   17   21 1
    21   17   22 2
    22   18   19 2
    23   18   22 1
    24   19   20 1
    25   20   21 2
    26    1   23 1
    27    4   24 1
    28    5   25 1
    29    9   26 1
    30   10   27 1
    31   11   28 1
    32   11   29 1
    33   12   30 1
    34   12   31 1
    35   15   32 1
    36   18   33 1
    37   20   34 1
    38   21   35 1
    39   22   36 1
@<TRIPOS>PROPERTY_DATA
  Total_Score	| 4.9187
  Crash		| -0.6527
  Polar		| 1.1292
  FragIndex	| 1
  FragRMSD	| 0.150

