@<TRIPOS>MOLECULE
BindingDB_30190
 37 40 0 0 0
SMALL
NO_CHARGES


@<TRIPOS>ATOM
1    C        81.8276  260.7738  107.8140  C     
2    C        80.8192  261.1906  106.9037  C     
3    N        81.2090  261.8884  105.8009  N     
4    C        82.4983  262.1972  105.5266  C     
5    C        83.5178  261.7991  106.4047  C     
6    C        83.1961  261.0748  107.5796  C     
7    C        84.2037  260.6754  108.5052  C     
8    C        85.1188  259.8135  110.3238  C     
9    N        83.9757  259.9926  109.6460  N     
10   C        85.5838  260.9249  108.4536  C     
11   C        86.7929  259.2338  112.1287  C     
12   C        85.3160  259.1356  111.6206  C     
13   C        86.1558  260.3901  109.6023  C     
14   C        87.4504  260.3866  110.0621  C     
15   N        87.7439  259.8565  111.2410  N     
16   O        88.3470  260.9028  109.4119  O     
17   C        79.4280  260.9334  107.0930  C     
18   C        77.0817  261.6282  106.8382  C     
19   C        76.6441  260.4380  107.4376  C     
20   C        77.5901  259.4816  107.8527  C     
21   C        78.9683  259.7257  107.6784  C     
22   C        78.4558  261.8749  106.6646  C     
23   Cl       77.0570  258.0323  108.5522  Cl    
24   H        81.5639  260.2742  108.6644  H     
25   H        82.7239  262.7248  104.6827  H     
26   H        84.4827  262.0523  106.1741  H     
27   H        83.1027  259.6891  109.9494  H     
28   H        86.0950  261.4285  107.7266  H     
29   H        86.8156  259.7943  113.0658  H     
30   H        87.1633  258.2251  112.3446  H     
31   H        84.6446  259.5874  112.3524  H     
32   H        85.0333  258.0871  111.4983  H     
33   H        88.6660  259.8933  111.5343  H     
34   H        76.3947  262.3173  106.5260  H     
35   H        75.6397  260.2656  107.5556  H     
36   H        79.6378  258.9993  107.9559  H     
37   H        78.7427  262.7578  106.2319  H     
@<TRIPOS>BOND
     1    1    2 1
     2    1    6 2
     3    2    3 2
     4    2   17 1
     5    3    4 1
     6    4    5 2
     7    5    6 1
     8    6    7 1
     9    7    9 1
    10    7   10 2
    11    8    9 1
    12    8   12 1
    13    8   13 2
    14   10   13 1
    15   11   12 1
    16   11   15 1
    17   13   14 1
    18   14   15 1
    19   14   16 2
    20   17   21 1
    21   17   22 2
    22   18   19 2
    23   18   22 1
    24   19   20 1
    25   20   21 2
    26   20   23 1
    27    1   24 1
    28    4   25 1
    29    5   26 1
    30    9   27 1
    31   10   28 1
    32   11   29 1
    33   11   30 1
    34   12   31 1
    35   12   32 1
    36   15   33 1
    37   18   34 1
    38   19   35 1
    39   21   36 1
    40   22   37 1
@<TRIPOS>PROPERTY_DATA
  Total_Score	| 5.0100
  Crash		| -0.6710
  Polar		| 1.1480
  FragIndex	| 1
  FragRMSD	| 0.166

