@<TRIPOS>MOLECULE
BindingDB_30193
 37 40 0 0 0
SMALL
NO_CHARGES


@<TRIPOS>ATOM
1    C        81.9044  260.7004  107.8150  C     
2    C        80.8775  261.0845  106.9212  C     
3    N        81.2353  261.7992  105.8191  N     
4    C        82.5088  262.1505  105.5267  C     
5    C        83.5506  261.7837  106.3949  C     
6    C        83.2552  261.0571  107.5777  C     
7    C        84.2675  260.7076  108.5183  C     
8    C        85.1925  259.8741  110.3431  C     
9    N        84.0478  260.0397  109.6721  N     
10   C        85.6406  260.9716  108.4672  C     
11   C        86.8735  259.2506  112.1235  C     
12   C        85.3959  259.1761  111.6233  C     
13   C        86.2238  260.4467  109.6131  C     
14   C        87.5275  260.4137  110.0566  C     
15   N        87.8256  259.8468  111.2170  N     
16   O        88.4261  260.9238  109.3980  O     
17   C        79.4995  260.7949  107.1257  C     
18   C        77.7072  259.2637  107.8261  C     
19   C        76.7340  260.1981  107.4266  C     
20   C        77.1345  261.4388  106.8945  C     
21   C        78.5056  261.7318  106.7468  C     
22   C        79.0758  259.5595  107.6818  C     
23   F        76.2363  262.3066  106.5227  F     
24   H        81.6595  260.1799  108.6590  H     
25   H        82.7074  262.6959  104.6869  H     
26   H        84.5045  262.0642  106.1580  H     
27   H        83.1829  259.7145  109.9719  H     
28   H        86.1484  261.4538  107.7225  H     
29   H        86.9136  259.8251  113.0523  H     
30   H        87.2242  258.2422  112.3541  H     
31   H        84.7264  259.6182  112.3674  H     
32   H        85.1051  258.1325  111.4805  H     
33   H        88.7565  259.8436  111.4910  H     
34   H        77.4188  258.3640  108.2140  H     
35   H        75.7444  259.9709  107.5153  H     
36   H        78.7699  262.6430  106.3645  H     
37   H        79.7564  258.8536  107.9609  H     
@<TRIPOS>BOND
     1    1    2 1
     2    1    6 2
     3    2    3 2
     4    2   17 1
     5    3    4 1
     6    4    5 2
     7    5    6 1
     8    6    7 1
     9    7    9 1
    10    7   10 2
    11    8    9 1
    12    8   12 1
    13    8   13 2
    14   10   13 1
    15   11   12 1
    16   11   15 1
    17   13   14 1
    18   14   15 1
    19   14   16 2
    20   17   21 1
    21   17   22 2
    22   18   19 2
    23   18   22 1
    24   19   20 1
    25   20   21 2
    26   20   23 1
    27    1   24 1
    28    4   25 1
    29    5   26 1
    30    9   27 1
    31   10   28 1
    32   11   29 1
    33   11   30 1
    34   12   31 1
    35   12   32 1
    36   15   33 1
    37   18   34 1
    38   19   35 1
    39   21   36 1
    40   22   37 1
@<TRIPOS>PROPERTY_DATA
  Total_Score	| 5.1496
  Crash		| -0.7036
  Polar		| 1.1415
  FragIndex	| 1
  FragRMSD	| 0.172

