@<TRIPOS>MOLECULE
BindingDB_30189
 37 40 0 0 0
SMALL
NO_CHARGES


@<TRIPOS>ATOM
1    C        81.7929  261.1936  107.9912  C     
2    C        80.8003  261.4349  107.0059  C     
3    N        81.2062  261.9214  105.7983  N     
4    C        82.4974  262.1881  105.4848  C     
5    C        83.5101  261.9447  106.4327  C     
6    C        83.1702  261.4107  107.7009  C     
7    C        84.1785  261.0387  108.6480  C     
8    C        85.0915  260.1590  110.4628  C     
9    N        83.9414  260.4455  109.8372  N     
10   C        85.5732  261.1371  108.5233  C     
11   C        86.7923  259.3482  112.1567  C     
12   C        85.2836  259.4787  111.7573  C     
13   C        86.1440  260.5870  109.6658  C     
14   C        87.4580  260.4269  110.0508  C     
15   N        87.7519  259.8551  111.2098  N     
16   O        88.3669  260.8350  109.3446  O     
17   C        79.4030  261.1949  107.1935  C     
18   C        77.0858  261.8207  106.6015  C     
19   C        76.5841  260.7489  107.3555  C     
20   C        77.4779  259.8975  108.0301  C     
21   C        78.8740  260.1091  107.9542  C     
22   C        78.4694  262.0368  106.5237  C     
23   Cl       79.8519  258.9534  108.7253  Cl    
24   H        81.4904  260.8468  108.9130  H     
25   H        82.7371  262.5463  104.5526  H     
26   H        84.4824  262.1448  106.1733  H     
27   H        83.0657  260.2301  110.1965  H     
28   H        86.0868  261.5211  107.7351  H     
29   H        86.9569  259.8714  113.1021  H     
30   H        87.0270  258.2945  112.3253  H     
31   H        84.7435  260.0409  112.5238  H     
32   H        84.8336  258.4845  111.6892  H     
33   H        88.6886  259.7769  111.4437  H     
34   H        76.4402  262.4372  106.0973  H     
35   H        75.5759  260.5845  107.4049  H     
36   H        77.0945  259.1051  108.5568  H     
37   H        78.7825  262.8299  105.9649  H     
@<TRIPOS>BOND
     1    1    2 1
     2    1    6 2
     3    2    3 2
     4    2   17 1
     5    3    4 1
     6    4    5 2
     7    5    6 1
     8    6    7 1
     9    7    9 1
    10    7   10 2
    11    8    9 1
    12    8   12 1
    13    8   13 2
    14   10   13 1
    15   11   12 1
    16   11   15 1
    17   13   14 1
    18   14   15 1
    19   14   16 2
    20   17   21 1
    21   17   22 2
    22   18   19 2
    23   18   22 1
    24   19   20 1
    25   20   21 2
    26   21   23 1
    27    1   24 1
    28    4   25 1
    29    5   26 1
    30    9   27 1
    31   10   28 1
    32   11   29 1
    33   11   30 1
    34   12   31 1
    35   12   32 1
    36   15   33 1
    37   18   34 1
    38   19   35 1
    39   20   36 1
    40   22   37 1
@<TRIPOS>PROPERTY_DATA
  Total_Score	| 4.7388
  Crash		| -1.3013
  Polar		| 1.1681
  FragIndex	| 1
  FragRMSD	| 0.275

