@<TRIPOS>MOLECULE
BindingDB_25906
 40 42 0 0 0
SMALL
NO_CHARGES


@<TRIPOS>ATOM
1    C        -5.1082    2.4537   15.1254  C     
2    C        -5.9334    2.7087   16.2451  C     
3    C        -6.3393    4.0338   16.5315  C     
4    C        -6.0317    5.0836   15.6433  C     
5    C        -4.8063    3.5103   14.2420  C     
6    C        -5.3294    4.7811   14.4702  C     
7    C        -4.1608    3.5440   13.0025  C     
8    C        -4.5048    4.7864   12.4403  C     
9    N        -5.1437    5.5212   13.3709  N     
10   C        -3.5766    2.4300   12.3515  C     
11   C        -3.8750    0.1183   11.5385  C     
12   C        -4.3758    1.2732   12.1767  C     
13   C        -2.2189    2.4009   11.9290  C     
14   C        -1.7225    1.2533   11.2871  C     
15   C        -2.5400    0.1279   11.0790  C     
16   C        -4.4195    5.1501   11.1142  C     
17   O        -5.3920    5.6069   10.5307  O     
18   N        -3.2504    5.1336   10.5299  N     
19   N        -3.0281    5.4204    9.3253  N     
20   N        -5.9788    1.2466   18.7202  N     
21   S        -6.6178    1.4068   17.1775  S     
22   O        -8.1896    1.5989   17.3272  O     
23   O        -6.4635    0.0152   16.4222  O     
24   C        -4.7444   -1.0742   11.4035  C     
25   H        -4.8379    1.5011   14.8798  H     
26   H        -6.9278    4.2329   17.3446  H     
27   H        -6.3689    6.0295   15.8116  H     
28   H        -5.5166    6.4042   13.2279  H     
29   H        -5.3456    1.2661   12.5143  H     
30   H        -1.5434    3.1790   12.0618  H     
31   H        -0.7541    1.2386   10.9686  H     
32   H        -2.1431   -0.6935   10.6172  H     
33   H        -2.5139    5.0715   11.1169  H     
34   H        -3.7326    5.5005    8.7147  H     
35   H        -2.1477    5.5699    9.0519  H     
36   H        -5.6286    0.3841   18.9894  H     
37   H        -6.2475    1.8793   19.4044  H     
38   H        -5.0445   -1.4231   12.3940  H     
39   H        -4.2398   -1.8954   10.8888  H     
40   H        -5.6382   -0.8109   10.8345  H     
@<TRIPOS>BOND
     1    1    2 2
     2    1    5 1
     3    2    3 1
     4    2   21 1
     5    3    4 2
     6    4    6 1
     7    5    6 2
     8    5    7 1
     9    6    9 1
    10    7    8 2
    11    7   10 1
    12    8    9 1
    13    8   16 1
    14   10   12 2
    15   10   13 1
    16   11   12 1
    17   11   15 2
    18   11   24 1
    19   13   14 2
    20   14   15 1
    21   16   17 2
    22   16   18 am
    23   18   19 1
    24   20   21 am
    25   21   22 2
    26   21   23 2
    27    1   25 1
    28    3   26 1
    29    4   27 1
    30    9   28 1
    31   12   29 1
    32   13   30 1
    33   14   31 1
    34   15   32 1
    35   18   33 1
    36   19   34 1
    37   19   35 1
    38   20   36 1
    39   20   37 1
    40   24   38 1
    41   24   39 1
    42   24   40 1
@<TRIPOS>PROPERTY_DATA
  Total_Score	| 6.5897
  Crash		| -1.2577
  Polar		| 3.0273
  FragIndex	| 1
  FragRMSD	| 1.146

