@<TRIPOS>MOLECULE
BindingDB_25909
 37 39 0 0 0
SMALL
NO_CHARGES


@<TRIPOS>ATOM
1    C        -5.3020    2.2062   14.8950  C     
2    C        -5.9442    2.4485   16.1315  C     
3    C        -6.3420    3.7657   16.4774  C     
4    C        -6.0746    4.8461   15.6165  C     
5    C        -5.0351    3.2930   14.0487  C     
6    C        -5.4101    4.5839   14.4062  C     
7    C        -4.4105    3.3673   12.8079  C     
8    C        -4.4053    4.7251   12.4433  C     
9    N        -5.0152    5.4158   13.4358  N     
10   C        -3.9494    2.2343   12.0989  C     
11   C        -2.1274    0.9201   11.1242  C     
12   C        -2.5678    2.0369   11.8646  C     
13   C        -4.8695    1.2664   11.6318  C     
14   C        -4.4290    0.1510   10.9029  C     
15   C        -3.0578   -0.0137   10.6299  C     
16   C        -3.9209    5.3623   11.3138  C     
17   O        -4.0431    6.5839   11.2417  O     
18   N        -3.3342    4.7040   10.3190  N     
19   N        -2.8504    5.2617    9.2917  N     
20   N        -7.8275    1.1731   17.7339  N     
21   S        -6.2336    1.1255   17.2144  S     
22   O        -6.0630   -0.2571   16.4543  O     
23   O        -5.2079    1.2047   18.4264  O     
24   F        -0.8555    0.7574   10.8751  F     
25   H        -5.0179    1.2639   14.6222  H     
26   H        -6.8103    3.9447   17.3708  H     
27   H        -6.3459    5.7967   15.8707  H     
28   H        -5.1568    6.3769   13.4378  H     
29   H        -1.8789    2.6938   12.2379  H     
30   H        -5.8712    1.3755   11.8159  H     
31   H        -5.1054   -0.5351   10.5550  H     
32   H        -2.7449   -0.8153   10.0714  H     
33   H        -3.2454    3.7428   10.3869  H     
34   H        -2.3908    4.7543    8.6523  H     
35   H        -2.9121    6.1927    9.1897  H     
36   H        -8.2161    0.3636   18.1143  H     
37   H        -8.4161    1.8558   17.3659  H     
@<TRIPOS>BOND
     1    1    2 2
     2    1    5 1
     3    2    3 1
     4    2   21 1
     5    3    4 2
     6    4    6 1
     7    5    6 2
     8    5    7 1
     9    6    9 1
    10    7    8 2
    11    7   10 1
    12    8    9 1
    13    8   16 1
    14   10   12 2
    15   10   13 1
    16   11   12 1
    17   11   15 2
    18   11   24 1
    19   13   14 2
    20   14   15 1
    21   16   17 2
    22   16   18 am
    23   18   19 1
    24   20   21 am
    25   21   22 2
    26   21   23 2
    27    1   25 1
    28    3   26 1
    29    4   27 1
    30    9   28 1
    31   12   29 1
    32   13   30 1
    33   14   31 1
    34   15   32 1
    35   18   33 1
    36   19   34 1
    37   19   35 1
    38   20   36 1
    39   20   37 1
@<TRIPOS>PROPERTY_DATA
  Total_Score	| 4.6917
  Crash		| -1.8222
  Polar		| 2.4324
  FragIndex	| 1
  FragRMSD	| 1.023

