@<TRIPOS>MOLECULE
BindingDB_25913
 37 39 0 0 0
SMALL
NO_CHARGES


@<TRIPOS>ATOM
1    C        -5.2872    2.2628   14.9896  C     
2    C        -5.9664    2.5350   16.1949  C     
3    C        -6.3837    3.8545   16.4950  C     
4    C        -6.1124    4.9092   15.6012  C     
5    C        -5.0439    3.3191   14.0990  C     
6    C        -5.4512    4.6180   14.3927  C     
7    C        -4.4356    3.3297   12.8470  C     
8    C        -4.4657    4.6686   12.4106  C     
9    N        -5.0732    5.4038   13.3697  N     
10   C        -3.9845    2.1743   12.1821  C     
11   C        -4.4957   -0.0205   11.2238  C     
12   C        -4.9233    1.1932   11.7815  C     
13   C        -2.6078    1.9322   11.9780  C     
14   C        -2.1763    0.7207   11.4038  C     
15   C        -3.1221   -0.2628   11.0412  C     
16   C        -4.0213    5.1835   11.2034  C     
17   O        -3.4613    4.4537   10.3978  O     
18   N        -4.2408    6.4521   10.9076  N     
19   N        -3.8877    6.9928    9.8230  N     
20   N        -7.7950    1.4394   17.9863  N     
21   S        -6.2906    1.2213   17.2820  S     
22   O        -6.3077   -0.1924   16.5510  O     
23   O        -5.1753    1.2081   18.4156  O     
24   Cl       -2.6233   -1.7713   10.4506  Cl    
25   H        -4.9557    1.3211   14.7686  H     
26   H        -6.8629    4.0576   17.3733  H     
27   H        -6.4017    5.8660   15.8157  H     
28   H        -5.2447    6.3654   13.3227  H     
29   H        -5.1866   -0.7307   10.9636  H     
30   H        -5.9222    1.3427   11.9192  H     
31   H        -1.9042    2.6107   12.2785  H     
32   H        -1.1734    0.5438   11.2728  H     
33   H        -4.6971    7.0003   11.5616  H     
34   H        -4.0569    7.9013    9.6882  H     
35   H        -3.4035    6.5037    9.1866  H     
36   H        -8.0062    1.0087   18.8418  H     
37   H        -8.4558    2.0127   17.5476  H     
@<TRIPOS>BOND
     1    1    2 2
     2    1    5 1
     3    2    3 1
     4    2   21 1
     5    3    4 2
     6    4    6 1
     7    5    6 2
     8    5    7 1
     9    6    9 1
    10    7    8 2
    11    7   10 1
    12    8    9 1
    13    8   16 1
    14   10   12 2
    15   10   13 1
    16   11   12 1
    17   11   15 2
    18   13   14 2
    19   14   15 1
    20   15   24 1
    21   16   17 2
    22   16   18 am
    23   18   19 1
    24   20   21 am
    25   21   22 2
    26   21   23 2
    27    1   25 1
    28    3   26 1
    29    4   27 1
    30    9   28 1
    31   11   29 1
    32   12   30 1
    33   13   31 1
    34   14   32 1
    35   18   33 1
    36   19   34 1
    37   19   35 1
    38   20   36 1
    39   20   37 1
@<TRIPOS>PROPERTY_DATA
  Total_Score	| 4.9117
  Crash		| -2.3878
  Polar		| 2.7302
  FragIndex	| 1
  FragRMSD	| 1.253

