@<TRIPOS>MOLECULE
BindingDB_25915
 37 39 0 0 0
SMALL
NO_CHARGES


@<TRIPOS>ATOM
1    C        -5.0494    2.2874   15.0981  C     
2    C        -5.8426    2.4669   16.2540  C     
3    C        -6.3946    3.7380   16.5458  C     
4    C        -6.1986    4.8192   15.6638  C     
5    C        -4.8836    3.3638   14.2053  C     
6    C        -5.4699    4.5971   14.4842  C     
7    C        -4.2562    3.4629   12.9584  C     
8    C        -4.5490    4.7626   12.4955  C     
9    N        -5.2554    5.4089   13.4449  N     
10   C        -3.6687    2.3627   12.2693  C     
11   C        -3.8801    0.0518   11.4631  C     
12   C        -4.4476    1.2012   12.0417  C     
13   C        -2.3034    2.3425   11.8797  C     
14   C        -1.7494    1.2029   11.2657  C     
15   C        -2.5341    0.0557   11.0604  C     
16   C        -4.3137    5.3304   11.2621  C     
17   O        -5.1402    6.1035   10.7912  O     
18   N        -3.1520    5.1481   10.6760  N     
19   N        -2.8374    5.5988    9.5381  N     
20   N        -7.7511    1.1741   17.9164  N     
21   S        -6.2105    1.1008   17.2616  S     
22   O        -6.0870   -0.2812   16.4903  O     
23   O        -5.1715    1.0485   18.4604  O     
24   Br       -4.8883   -1.5018   11.3152  Br    
25   H        -4.6351    1.3779   14.8841  H     
26   H        -6.9627    3.8793   17.3852  H     
27   H        -6.6067    5.7354   15.8601  H     
28   H        -5.5999    6.3133   13.3676  H     
29   H        -5.4325    1.1715   12.3224  H     
30   H        -1.6843    3.1394   12.0418  H     
31   H        -0.7666    1.1991   10.9876  H     
32   H        -2.1182   -0.7795   10.6426  H     
33   H        -2.4858    4.6675   11.1761  H     
34   H        -1.9805    5.4427    9.1982  H     
35   H        -3.4582    6.0781    9.0295  H     
36   H        -7.8524    1.3041   18.8714  H     
37   H        -8.4981    1.3596   17.3261  H     
@<TRIPOS>BOND
     1    1    2 2
     2    1    5 1
     3    2    3 1
     4    2   21 1
     5    3    4 2
     6    4    6 1
     7    5    6 2
     8    5    7 1
     9    6    9 1
    10    7    8 2
    11    7   10 1
    12    8    9 1
    13    8   16 1
    14   10   12 2
    15   10   13 1
    16   11   12 1
    17   11   15 2
    18   11   24 1
    19   13   14 2
    20   14   15 1
    21   16   17 2
    22   16   18 am
    23   18   19 1
    24   20   21 am
    25   21   22 2
    26   21   23 2
    27    1   25 1
    28    3   26 1
    29    4   27 1
    30    9   28 1
    31   12   29 1
    32   13   30 1
    33   14   31 1
    34   15   32 1
    35   18   33 1
    36   19   34 1
    37   19   35 1
    38   20   36 1
    39   20   37 1
@<TRIPOS>PROPERTY_DATA
  Total_Score	| 4.5633
  Crash		| -2.4266
  Polar		| 2.8216
  FragIndex	| 1
  FragRMSD	| 1.109

