@<TRIPOS>MOLECULE
BindingDB_25910
 37 39 0 0 0
SMALL
NO_CHARGES


@<TRIPOS>ATOM
1    C        -5.4234    2.3738   15.0540  C     
2    C        -6.1160    2.6370   16.2579  C     
3    C        -6.3926    3.9730   16.6392  C     
4    C        -5.9994    5.0501   15.8176  C     
5    C        -5.0633    3.4571   14.2338  C     
6    C        -5.3479    4.7694   14.6054  C     
7    C        -4.4377    3.5107   12.9932  C     
8    C        -4.4163    4.8602   12.6117  C     
9    N        -4.9303    5.5870   13.6268  N     
10   C        -3.8849    2.4107   12.3083  C     
11   C        -1.9305    1.1303   11.5904  C     
12   C        -2.4860    2.2204   12.2865  C     
13   C        -4.7183    1.4811   11.6555  C     
14   C        -4.1638    0.3971   10.9472  C     
15   C        -2.7662    0.2381   10.8882  C     
16   C        -4.0614    5.3907   11.3874  C     
17   O        -3.6963    6.5587   11.3328  O     
18   N        -4.3238    4.7055   10.2845  N     
19   N        -4.1435    5.1470    9.1169  N     
20   N        -6.0136    1.3503   18.8021  N     
21   S        -6.6681    1.3275   17.2577  S     
22   O        -8.2512    1.3403   17.3769  O     
23   O        -6.3235   -0.0838   16.6139  O     
24   F        -2.2512   -0.7798   10.2543  F     
25   H        -5.2121    1.4186   14.7548  H     
26   H        -6.8884    4.1700   17.5123  H     
27   H        -6.2010    6.0147   16.0880  H     
28   H        -5.0535    6.5500   13.6188  H     
29   H        -0.9156    0.9980   11.5853  H     
30   H        -1.8633    2.8679   12.7828  H     
31   H        -5.7338    1.5899   11.6894  H     
32   H        -4.7809   -0.2703   10.4732  H     
33   H        -4.7365    3.8340   10.3695  H     
34   H        -4.4794    4.6660    8.3927  H     
35   H        -3.8014    6.0063    8.9812  H     
36   H        -5.4894    0.5962   19.1077  H     
37   H        -6.3264    2.0072   19.4446  H     
@<TRIPOS>BOND
     1    1    2 2
     2    1    5 1
     3    2    3 1
     4    2   21 1
     5    3    4 2
     6    4    6 1
     7    5    6 2
     8    5    7 1
     9    6    9 1
    10    7    8 2
    11    7   10 1
    12    8    9 1
    13    8   16 1
    14   10   12 2
    15   10   13 1
    16   11   12 1
    17   11   15 2
    18   13   14 2
    19   14   15 1
    20   15   24 1
    21   16   17 2
    22   16   18 am
    23   18   19 1
    24   20   21 am
    25   21   22 2
    26   21   23 2
    27    1   25 1
    28    3   26 1
    29    4   27 1
    30    9   28 1
    31   11   29 1
    32   12   30 1
    33   13   31 1
    34   14   32 1
    35   18   33 1
    36   19   34 1
    37   19   35 1
    38   20   36 1
    39   20   37 1
@<TRIPOS>PROPERTY_DATA
  Total_Score	| 5.8108
  Crash		| -1.3493
  Polar		| 3.0966
  FragIndex	| 1
  FragRMSD	| 0.916

