@<TRIPOS>MOLECULE
BindingDB_25914
 37 39 0 0 0
SMALL
NO_CHARGES


@<TRIPOS>ATOM
1    C        -5.2780    2.2152   14.8297  C     
2    C        -5.9491    2.5267   16.0331  C     
3    C        -6.3197    3.8667   16.3126  C     
4    C        -6.0367    4.8947   15.3865  C     
5    C        -5.0123    3.2478   13.9071  C     
6    C        -5.3883    4.5602   14.1876  C     
7    C        -4.3763    3.2600   12.6672  C     
8    C        -4.4015    4.5963   12.2142  C     
9    N        -5.0107    5.3386   13.1602  N     
10   C        -3.8103    2.1191   12.0404  C     
11   C        -1.9008    0.8710   11.1515  C     
12   C        -2.4199    2.0248   11.7680  C     
13   C        -4.6450    1.0246   11.7037  C     
14   C        -4.1148   -0.1242   11.0930  C     
15   C        -2.7420   -0.2012   10.8139  C     
16   C        -3.9344    5.1069   11.0081  C     
17   O        -3.5096    4.3686   10.1314  O     
18   N        -3.9780    6.4140   10.7895  N     
19   N        -3.5865    6.9638    9.7179  N     
20   N        -7.8182    1.4651   17.8492  N     
21   S        -6.2946    1.2762   17.1901  S     
22   O        -6.2654   -0.1491   16.4988  O     
23   O        -5.1958    1.3166   18.3319  O     
24   Br       -1.1881    3.3534   12.2289  Br    
25   H        -4.9907    1.2577   14.6185  H     
26   H        -6.7937    4.1044   17.1885  H     
27   H        -6.2892    5.8627   15.5856  H     
28   H        -5.1627    6.2951   13.1105  H     
29   H        -0.9033    0.8079   10.9464  H     
30   H        -5.6516    1.0520   11.8978  H     
31   H        -4.7293   -0.9056   10.8507  H     
32   H        -2.3556   -1.0348   10.3650  H     
33   H        -4.3279    6.9828   11.4945  H     
34   H        -3.6329    7.8934    9.6293  H     
35   H        -3.2385    6.4500    9.0212  H     
36   H        -8.1124    0.8702   18.5508  H     
37   H        -8.3691    2.2109   17.5781  H     
@<TRIPOS>BOND
     1    1    2 2
     2    1    5 1
     3    2    3 1
     4    2   21 1
     5    3    4 2
     6    4    6 1
     7    5    6 2
     8    5    7 1
     9    6    9 1
    10    7    8 2
    11    7   10 1
    12    8    9 1
    13    8   16 1
    14   10   12 2
    15   10   13 1
    16   11   12 1
    17   11   15 2
    18   12   24 1
    19   13   14 2
    20   14   15 1
    21   16   17 2
    22   16   18 am
    23   18   19 1
    24   20   21 am
    25   21   22 2
    26   21   23 2
    27    1   25 1
    28    3   26 1
    29    4   27 1
    30    9   28 1
    31   11   29 1
    32   13   30 1
    33   14   31 1
    34   15   32 1
    35   18   33 1
    36   19   34 1
    37   19   35 1
    38   20   36 1
    39   20   37 1
@<TRIPOS>PROPERTY_DATA
  Total_Score	| 5.0591
  Crash		| -1.7585
  Polar		| 2.8174
  FragIndex	| 1
  FragRMSD	| 1.299

