@<TRIPOS>MOLECULE
BindingDB_25911
 37 39 0 0 0
SMALL
NO_CHARGES


@<TRIPOS>ATOM
1    C        -5.2479    2.2588   14.8860  C     
2    C        -5.9031    2.5270   16.1091  C     
3    C        -6.2879    3.8504   16.4407  C     
4    C        -6.0119    4.9104   15.5540  C     
5    C        -4.9936    3.3253   14.0069  C     
6    C        -5.3699    4.6230   14.3394  C     
7    C        -4.3875    3.3747   12.7541  C     
8    C        -4.3956    4.7268   12.3645  C     
9    N        -4.9937    5.4336   13.3472  N     
10   C        -3.8910    2.2354   12.0786  C     
11   C        -2.0735    0.8695   11.1686  C     
12   C        -2.5074    2.0301   11.8480  C     
13   C        -4.8149    1.2599   11.6352  C     
14   C        -4.3756    0.1105   10.9535  C     
15   C        -3.0042   -0.0813   10.7151  C     
16   C        -3.9125    5.3385   11.2166  C     
17   O        -3.9334    6.5638   11.1535  O     
18   N        -3.4305    4.6397   10.1968  N     
19   N        -2.9465    5.1580    9.1431  N     
20   N        -7.7397    1.3972   17.9109  N     
21   S        -6.2302    1.2058   17.1973  S     
22   O        -6.2222   -0.1957   16.4450  O     
23   O        -5.1082    1.2189   18.3234  O     
24   Cl       -1.3252    3.1209   12.3804  Cl    
25   H        -4.9577    1.3039   14.6353  H     
26   H        -6.7583    4.0418   17.3301  H     
27   H        -6.2791    5.8643   15.7938  H     
28   H        -5.1372    6.3935   13.3327  H     
29   H        -1.0746    0.7090   10.9892  H     
30   H        -5.8179    1.3860   11.7946  H     
31   H        -5.0566   -0.5781   10.6192  H     
32   H        -2.6856   -0.9158   10.2097  H     
33   H        -3.4281    3.6690   10.2478  H     
34   H        -2.5782    4.6124    8.4705  H     
35   H        -2.9086    6.0932    9.0552  H     
36   H        -7.9643    0.9073   18.7302  H     
37   H        -8.3909    2.0068   17.5097  H     
@<TRIPOS>BOND
     1    1    2 2
     2    1    5 1
     3    2    3 1
     4    2   21 1
     5    3    4 2
     6    4    6 1
     7    5    6 2
     8    5    7 1
     9    6    9 1
    10    7    8 2
    11    7   10 1
    12    8    9 1
    13    8   16 1
    14   10   12 2
    15   10   13 1
    16   11   12 1
    17   11   15 2
    18   12   24 1
    19   13   14 2
    20   14   15 1
    21   16   17 2
    22   16   18 am
    23   18   19 1
    24   20   21 am
    25   21   22 2
    26   21   23 2
    27    1   25 1
    28    3   26 1
    29    4   27 1
    30    9   28 1
    31   11   29 1
    32   13   30 1
    33   14   31 1
    34   15   32 1
    35   18   33 1
    36   19   34 1
    37   19   35 1
    38   20   36 1
    39   20   37 1
@<TRIPOS>PROPERTY_DATA
  Total_Score	| 5.0684
  Crash		| -1.7119
  Polar		| 2.7102
  FragIndex	| 1
  FragRMSD	| 1.028

