@<TRIPOS>MOLECULE
BindingDB_25908
 37 39 0 0 0
SMALL
NO_CHARGES


@<TRIPOS>ATOM
1    C        -5.1547    2.1333   14.9189  C     
2    C        -5.8533    2.4337   16.1090  C     
3    C        -6.2484    3.7676   16.3784  C     
4    C        -5.9520    4.8053   15.4715  C     
5    C        -4.8900    3.1686   14.0058  C     
6    C        -5.2724    4.4786   14.2859  C     
7    C        -4.2574    3.1723   12.7672  C     
8    C        -4.2590    4.5108   12.3300  C     
9    N        -4.8701    5.2596   13.2745  N     
10   C        -3.7320    2.0305   12.1168  C     
11   C        -1.8793    0.7956   11.0874  C     
12   C        -2.3727    1.9555   11.7196  C     
13   C        -4.5795    0.9268   11.8596  C     
14   C        -4.0852   -0.2231   11.2213  C     
15   C        -2.7316   -0.2975   10.8388  C     
16   C        -3.7804    5.0561   11.1501  C     
17   O        -3.4348    4.3040   10.2475  O     
18   N        -3.6713    6.3690   11.0143  N     
19   N        -3.2381    6.9515    9.9819  N     
20   N        -7.8023    1.3512   17.8080  N     
21   S        -6.2435    1.1525   17.2145  S     
22   O        -6.1970   -0.2620   16.4872  O     
23   O        -5.1848    1.1774   18.4000  O     
24   F        -1.5507    2.9458   11.9519  F     
25   H        -4.8390    1.1816   14.7107  H     
26   H        -6.7529    3.9958   17.2393  H     
27   H        -6.2223    5.7719   15.6659  H     
28   H        -5.0119    6.2214   13.2222  H     
29   H        -0.8935    0.7341   10.8144  H     
30   H        -5.5647    0.9566   12.1245  H     
31   H        -4.7093   -1.0132   11.0345  H     
32   H        -2.3702   -1.1486   10.3994  H     
33   H        -3.9252    6.9285   11.7619  H     
34   H        -3.1618    7.8812    9.9881  H     
35   H        -2.9937    6.4595    9.2262  H     
36   H        -8.1566    0.7137   18.4471  H     
37   H        -8.4058    1.9600   17.3502  H     
@<TRIPOS>BOND
     1    1    2 2
     2    1    5 1
     3    2    3 1
     4    2   21 1
     5    3    4 2
     6    4    6 1
     7    5    6 2
     8    5    7 1
     9    6    9 1
    10    7    8 2
    11    7   10 1
    12    8    9 1
    13    8   16 1
    14   10   12 2
    15   10   13 1
    16   11   12 1
    17   11   15 2
    18   12   24 1
    19   13   14 2
    20   14   15 1
    21   16   17 2
    22   16   18 am
    23   18   19 1
    24   20   21 am
    25   21   22 2
    26   21   23 2
    27    1   25 1
    28    3   26 1
    29    4   27 1
    30    9   28 1
    31   11   29 1
    32   13   30 1
    33   14   31 1
    34   15   32 1
    35   18   33 1
    36   19   34 1
    37   19   35 1
    38   20   36 1
    39   20   37 1
@<TRIPOS>PROPERTY_DATA
  Total_Score	| 4.7868
  Crash		| -1.4734
  Polar		| 2.5032
  FragIndex	| 1
  FragRMSD	| 1.295

