@<TRIPOS>MOLECULE
BindingDB_50258792
 35 37 0 0 0
SMALL
NO_CHARGES


@<TRIPOS>ATOM
1    C        -5.9812    2.5018   16.1592  C     
2    C        -6.3959    3.8123   16.5033  C     
3    C        -6.1538    4.8881   15.6259  C     
4    C        -5.3209    2.2533   14.9399  C     
5    C        -5.0858    3.3337   14.0752  C     
6    C        -5.4975    4.6207   14.4152  C     
7    N        -5.1379    5.4225   13.4082  N     
8    C        -4.5131    4.7049   12.4822  C     
9    C        -4.4639    3.4150   12.8629  C     
10   C        -3.9180    2.3348   12.1775  C     
11   C        -4.7592    1.3442   11.6199  C     
12   C        -4.2103    0.2519   10.9221  C     
13   C        -2.8175    0.1389   10.7811  C     
14   C        -1.9690    1.0937   11.3637  C     
15   C        -2.5163    2.1912   12.0546  C     
16   C        -4.1186    5.2410   11.3110  C     
17   O        -4.9517    5.7492   10.5760  O     
18   N        -2.8447    5.3091   10.9945  N     
19   S        -6.2706    1.1811   17.2487  S     
20   N        -7.7685    1.3533   17.9829  N     
21   O        -6.2224   -0.2318   16.5228  O     
22   O        -5.1497    1.2184   18.3711  O     
23   H        -6.8639    3.9958   17.3902  H     
24   H        -6.4328    5.8383   15.8681  H     
25   H        -5.0115    1.3165   14.6802  H     
26   H        -5.3088    6.3744   13.3622  H     
27   H        -5.7790    1.4139   11.7126  H     
28   H        -4.8292   -0.4510   10.5077  H     
29   H        -2.4204   -0.6561   10.2774  H     
30   H        -0.9554    0.9975   11.2822  H     
31   H        -1.8827    2.8688   12.4890  H     
32   H        -2.5761    5.7467   10.1686  H     
33   H        -2.1706    4.9689   11.6082  H     
34   H        -7.9042    1.0310   18.9007  H     
35   H        -8.4820    1.8261   17.5180  H     
@<TRIPOS>BOND
     1    1    2 2
     2    1    4 1
     3    1   19 1
     4    2    3 1
     5    3    6 2
     6    4    5 2
     7    5    6 1
     8    5    9 1
     9    6    7 1
    10    7    8 1
    11    8    9 2
    12    8   16 1
    13    9   10 1
    14   10   11 2
    15   10   15 1
    16   11   12 1
    17   12   13 2
    18   13   14 1
    19   14   15 2
    20   16   17 2
    21   16   18 am
    22   19   20 am
    23   19   21 2
    24   19   22 2
    25    2   23 1
    26    3   24 1
    27    4   25 1
    28    7   26 1
    29   11   27 1
    30   12   28 1
    31   13   29 1
    32   14   30 1
    33   15   31 1
    34   18   32 1
    35   18   33 1
    36   20   34 1
    37   20   35 1
@<TRIPOS>PROPERTY_DATA
  Total_Score	| 5.8268
  Crash		| -1.6167
  Polar		| 3.2946
  FragIndex	| 1
  FragRMSD	| 1.039

