@<TRIPOS>MOLECULE
BindingDB_25907
 40 42 0 0 0
SMALL
NO_CHARGES


@<TRIPOS>ATOM
1    C        -5.4905    2.3368   15.0229  C     
2    C        -6.1780    2.6356   16.2196  C     
3    C        -6.5034    3.9792   16.5286  C     
4    C        -6.1499    5.0241   15.6488  C     
5    C        -5.1505    3.3862   14.1507  C     
6    C        -5.4762    4.7042   14.4578  C     
7    C        -4.4908    3.3950   12.9240  C     
8    C        -4.4468    4.7355   12.5033  C     
9    N        -5.0486    5.4839   13.4545  N     
10   C        -4.0257    2.2326   12.2708  C     
11   C        -4.4887    0.0450   11.2812  C     
12   C        -4.9449    1.2546   11.8332  C     
13   C        -2.6431    1.9939   12.1206  C     
14   C        -2.1878    0.7835   11.5659  C     
15   C        -3.1054   -0.2156   11.1687  C     
16   C        -3.9449    5.2514   11.3196  C     
17   O        -3.2738    4.5438   10.5810  O     
18   N        -4.2440    6.4887   10.9583  N     
19   N        -3.8709    7.0226    9.8751  N     
20   N        -5.8901    1.4152   18.8031  N     
21   S        -6.6358    1.3549   17.3015  S     
22   O        -8.2064    1.3703   17.5312  O     
23   O        -6.3555   -0.0806   16.6811  O     
24   C        -2.6565   -1.5394   10.6864  C     
25   H        -5.2452    1.3749   14.7782  H     
26   H        -6.9994    4.2052   17.3947  H     
27   H        -6.3819    5.9948   15.8709  H     
28   H        -5.1636    6.4472   13.4159  H     
29   H        -5.1776   -0.6578   10.9897  H     
30   H        -5.9536    1.4094   11.9294  H     
31   H        -1.9603    2.6834   12.4430  H     
32   H        -1.1821    0.6206   11.4950  H     
33   H        -4.8057    7.0168   11.5478  H     
34   H        -4.1443    7.8936    9.6665  H     
35   H        -3.3150    6.5583    9.2842  H     
36   H        -5.3164    0.6764   19.0659  H     
37   H        -6.2839    1.9659   19.4942  H     
38   H        -3.0670   -2.3244   11.3258  H     
39   H        -1.5711   -1.6275   10.7102  H     
40   H        -3.0046   -1.7009    9.6625  H     
@<TRIPOS>BOND
     1    1    2 2
     2    1    5 1
     3    2    3 1
     4    2   21 1
     5    3    4 2
     6    4    6 1
     7    5    6 2
     8    5    7 1
     9    6    9 1
    10    7    8 2
    11    7   10 1
    12    8    9 1
    13    8   16 1
    14   10   12 2
    15   10   13 1
    16   11   12 1
    17   11   15 2
    18   13   14 2
    19   14   15 1
    20   15   24 1
    21   16   17 2
    22   16   18 am
    23   18   19 1
    24   20   21 am
    25   21   22 2
    26   21   23 2
    27    1   25 1
    28    3   26 1
    29    4   27 1
    30    9   28 1
    31   11   29 1
    32   12   30 1
    33   13   31 1
    34   14   32 1
    35   18   33 1
    36   19   34 1
    37   19   35 1
    38   20   36 1
    39   20   37 1
    40   24   38 1
    41   24   39 1
    42   24   40 1
@<TRIPOS>PROPERTY_DATA
  Total_Score	| 5.6199
  Crash		| -1.6333
  Polar		| 2.1339
  FragIndex	| 1
  FragRMSD	| 1.224

