@<TRIPOS>MOLECULE
BindingDB_25912
 37 39 0 0 0
SMALL
NO_CHARGES


@<TRIPOS>ATOM
1    C        -5.1735    2.1925   14.9169  C     
2    C        -5.8974    2.4900   16.0895  C     
3    C        -6.3331    3.8156   16.3399  C     
4    C        -6.0362    4.8481   15.4228  C     
5    C        -4.9060    3.2211   13.9979  C     
6    C        -5.3237    4.5248   14.2514  C     
7    C        -4.2527    3.2218   12.7668  C     
8    C        -4.3062    4.5494   12.2959  C     
9    N        -4.9354    5.2966   13.2292  N     
10   C        -3.6628    2.0821   12.1666  C     
11   C        -3.7626   -0.2939   11.5483  C     
12   C        -4.3698    0.8559   12.0867  C     
13   C        -2.3322    2.1281   11.6857  C     
14   C        -1.7322    0.9870   11.1245  C     
15   C        -2.4437   -0.2253   11.0556  C     
16   C        -3.8832    5.0571   11.0785  C     
17   O        -3.4444    4.3012   10.2221  O     
18   N        -3.9766    6.3592   10.8247  N     
19   N        -3.6611    6.8916    9.7239  N     
20   N        -7.7562    1.3808   17.9133  N     
21   S        -6.2513    1.1963   17.1972  S     
22   O        -6.2132   -0.2249   16.4846  O     
23   O        -5.1385    1.2236   18.3307  O     
24   Cl       -4.5910   -1.7700   11.5380  Cl    
25   H        -4.8404    1.2452   14.7302  H     
26   H        -6.8563    4.0381   17.1941  H     
27   H        -6.3364    5.8073   15.6077  H     
28   H        -5.1255    6.2450   13.1556  H     
29   H        -5.3299    0.7973   12.4327  H     
30   H        -1.7857    2.9915   11.7540  H     
31   H        -0.7681    1.0291   10.7785  H     
32   H        -1.9901   -1.0562   10.6578  H     
33   H        -4.3319    6.9441   11.5129  H     
34   H        -3.7469    7.8202    9.6063  H     
35   H        -3.3223    6.3652    9.0308  H     
36   H        -7.9178    1.0263   18.8107  H     
37   H        -8.4493    1.8945   17.4605  H     
@<TRIPOS>BOND
     1    1    2 2
     2    1    5 1
     3    2    3 1
     4    2   21 1
     5    3    4 2
     6    4    6 1
     7    5    6 2
     8    5    7 1
     9    6    9 1
    10    7    8 2
    11    7   10 1
    12    8    9 1
    13    8   16 1
    14   10   12 2
    15   10   13 1
    16   11   12 1
    17   11   15 2
    18   11   24 1
    19   13   14 2
    20   14   15 1
    21   16   17 2
    22   16   18 am
    23   18   19 1
    24   20   21 am
    25   21   22 2
    26   21   23 2
    27    1   25 1
    28    3   26 1
    29    4   27 1
    30    9   28 1
    31   12   29 1
    32   13   30 1
    33   14   31 1
    34   15   32 1
    35   18   33 1
    36   19   34 1
    37   19   35 1
    38   20   36 1
    39   20   37 1
@<TRIPOS>PROPERTY_DATA
  Total_Score	| 5.2809
  Crash		| -1.5754
  Polar		| 2.6970
  FragIndex	| 1
  FragRMSD	| 1.281

