@<TRIPOS>MOLECULE
BindingDB_25904
 37 39 0 0 0
SMALL
NO_CHARGES


@<TRIPOS>ATOM
1    C        -5.2151    2.1599   14.9109  C     
2    C        -5.9281    2.4571   16.0897  C     
3    C        -6.3706    3.7777   16.3534  C     
4    C        -6.0939    4.8112   15.4328  C     
5    C        -4.9580    3.1969   14.0022  C     
6    C        -5.3926    4.4943   14.2578  C     
7    C        -4.3014    3.2026   12.7784  C     
8    C        -4.3491    4.5317   12.3128  C     
9    N        -5.0042    5.2687   13.2360  N     
10   C        -3.7532    2.0585   12.1554  C     
11   C        -1.8238    0.8191   11.2944  C     
12   C        -2.3622    1.9513   11.9334  C     
13   C        -4.5871    0.9864   11.7625  C     
14   C        -4.0481   -0.1506   11.1358  C     
15   C        -2.6678   -0.2285   10.8863  C     
16   C        -3.8787    5.0487   11.1156  C     
17   O        -3.2367    4.3538   10.3459  O     
18   N        -4.1616    6.2989   10.7872  N     
19   N        -3.7800    6.8493    9.7174  N     
20   N        -7.7713    1.4008   17.8851  N     
21   S        -6.2543    1.1749   17.2108  S     
22   O        -6.2515   -0.2362   16.4857  O     
23   O        -5.1282    1.2081   18.3288  O     
24   H        -4.8828    1.2146   14.7157  H     
25   H        -6.8905    3.9967   17.2085  H     
26   H        -6.4093    5.7669   15.6143  H     
27   H        -5.1926    6.2203   13.1685  H     
28   H        -0.8180    0.7601   11.1151  H     
29   H        -1.7258    2.6943   12.2397  H     
30   H        -5.5978    1.0311   11.9238  H     
31   H        -4.6637   -0.9149   10.8484  H     
32   H        -2.2774   -1.0525   10.4218  H     
33   H        -4.7014    6.8200   11.4050  H     
34   H        -4.0186    7.7362    9.5435  H     
35   H        -3.2438    6.3828    9.1145  H     
36   H        -8.0103    0.9393   18.7097  H     
37   H        -8.4234    1.9573   17.4187  H     
@<TRIPOS>BOND
     1    1    2 2
     2    1    5 1
     3    2    3 1
     4    2   21 1
     5    3    4 2
     6    4    6 1
     7    5    6 2
     8    5    7 1
     9    6    9 1
    10    7    8 2
    11    7   10 1
    12    8    9 1
    13    8   16 1
    14   10   12 2
    15   10   13 1
    16   11   12 1
    17   11   15 2
    18   13   14 2
    19   14   15 1
    20   16   17 2
    21   16   18 am
    22   18   19 1
    23   20   21 am
    24   21   22 2
    25   21   23 2
    26    1   24 1
    27    3   25 1
    28    4   26 1
    29    9   27 1
    30   11   28 1
    31   12   29 1
    32   13   30 1
    33   14   31 1
    34   15   32 1
    35   18   33 1
    36   19   34 1
    37   19   35 1
    38   20   36 1
    39   20   37 1
@<TRIPOS>PROPERTY_DATA
  Total_Score	| 5.4159
  Crash		| -1.4775
  Polar		| 2.6616
  FragIndex	| 1
  FragRMSD	| 1.251

