@<TRIPOS>MOLECULE
BindingDB_25916
 37 39 0 0 0
SMALL
NO_CHARGES


@<TRIPOS>ATOM
1    C        -5.5063    2.3548   15.0344  C     
2    C        -6.2102    2.6570   16.2211  C     
3    C        -6.5313    4.0028   16.5260  C     
4    C        -6.1623    5.0461   15.6496  C     
5    C        -5.1562    3.4019   14.1619  C     
6    C        -5.4800    4.7222   14.4642  C     
7    C        -4.4811    3.4076   12.9431  C     
8    C        -4.4161    4.7484   12.5284  C     
9    N        -5.0342    5.5002   13.4666  N     
10   C        -4.0212    2.2450   12.2870  C     
11   C        -4.4957    0.0313   11.3586  C     
12   C        -4.9453    1.2655   11.8568  C     
13   C        -2.6376    1.9900   12.1651  C     
14   C        -2.1883    0.7581   11.6549  C     
15   C        -3.1176   -0.2327   11.2825  C     
16   C        -3.8673    5.2593   11.3646  C     
17   O        -3.0797    4.5850   10.7129  O     
18   N        -4.2113    6.4701   10.9520  N     
19   N        -3.7861    7.0032    9.8884  N     
20   N        -5.9076    1.3902   18.7784  N     
21   S        -6.6920    1.3776   17.2965  S     
22   O        -8.2587    1.4165   17.5502  O     
23   O        -6.4331   -0.0517   16.6516  O     
24   Br       -2.5418   -1.9355   10.8152  Br    
25   H        -5.2532    1.3922   14.8021  H     
26   H        -7.0338    4.2313   17.3875  H     
27   H        -6.3892    6.0188   15.8698  H     
28   H        -5.1365    6.4651   13.4305  H     
29   H        -5.1733   -0.6866   11.0927  H     
30   H        -5.9531    1.4270   11.9399  H     
31   H        -1.9530    2.6795   12.4880  H     
32   H        -1.1880    0.5611   11.6163  H     
33   H        -4.8600    6.9673   11.4740  H     
34   H        -4.0930    7.8530    9.6410  H     
35   H        -3.1453    6.5664    9.3621  H     
36   H        -5.3662    0.6263   19.0297  H     
37   H        -6.2009    2.0092   19.4643  H     
@<TRIPOS>BOND
     1    1    2 2
     2    1    5 1
     3    2    3 1
     4    2   21 1
     5    3    4 2
     6    4    6 1
     7    5    6 2
     8    5    7 1
     9    6    9 1
    10    7    8 2
    11    7   10 1
    12    8    9 1
    13    8   16 1
    14   10   12 2
    15   10   13 1
    16   11   12 1
    17   11   15 2
    18   13   14 2
    19   14   15 1
    20   15   24 1
    21   16   17 2
    22   16   18 am
    23   18   19 1
    24   20   21 am
    25   21   22 2
    26   21   23 2
    27    1   25 1
    28    3   26 1
    29    4   27 1
    30    9   28 1
    31   11   29 1
    32   12   30 1
    33   13   31 1
    34   14   32 1
    35   18   33 1
    36   19   34 1
    37   19   35 1
    38   20   36 1
    39   20   37 1
@<TRIPOS>PROPERTY_DATA
  Total_Score	| 4.7339
  Crash		| -2.0996
  Polar		| 2.1447
  FragIndex	| 1
  FragRMSD	| 1.214

