@<TRIPOS>MOLECULE
BindingDB_25917
 41 43 0 0 0
SMALL
NO_CHARGES


@<TRIPOS>ATOM
1    C        -5.2958    2.2787   14.9515  C     
2    C        -5.9907    2.5152   16.1583  C     
3    C        -6.4076    3.8261   16.4989  C     
4    C        -6.1221    4.9066   15.6406  C     
5    C        -5.0377    3.3582   14.0951  C     
6    C        -5.4349    4.6485   14.4401  C     
7    C        -4.3723    3.4359   12.8722  C     
8    C        -4.3902    4.7931   12.4991  C     
9    N        -5.0318    5.4799   13.4725  N     
10   C        -3.7592    2.3345   12.2259  C     
11   C        -3.9236    0.1294   11.1588  C     
12   C        -4.5295    1.2236   11.8126  C     
13   C        -2.3642    2.3258   11.9914  C     
14   C        -1.7628    1.2469   11.3179  C     
15   C        -2.5397    0.1590   10.8905  C     
16   C        -3.8977    5.4191   11.3608  C     
17   O        -3.8359    6.6459   11.3539  O     
18   N        -3.5452    4.7340   10.2842  N     
19   N        -3.0925    5.2529    9.2256  N     
20   N        -7.7803    1.2916   17.9719  N     
21   S        -6.2902    1.1728   17.2194  S     
22   O        -6.2443   -0.2259   16.4713  O     
23   O        -5.1600    1.1620   18.3349  O     
24   O        -4.6936   -0.9197   10.7386  O     
25   C        -4.6565   -2.0390   11.6420  C     
26   H        -4.9711    1.3417   14.7056  H     
27   H        -6.9016    4.0050   17.3790  H     
28   H        -6.3968    5.8601   15.8881  H     
29   H        -5.1842    6.4391   13.4688  H     
30   H        -5.5410    1.2013   11.9722  H     
31   H        -1.7799    3.1071   12.2993  H     
32   H        -0.7578    1.2570   11.1339  H     
33   H        -2.0941   -0.6198   10.3974  H     
34   H        -3.6412    3.7695   10.2953  H     
35   H        -2.8226    4.7035    8.5195  H     
36   H        -2.9920    6.1818    9.1604  H     
37   H        -7.8535    1.1379   18.9310  H     
38   H        -8.5238    1.6799   17.4766  H     
39   H        -3.6511   -2.4727   11.7039  H     
40   H        -5.3350   -2.8062   11.2644  H     
41   H        -4.9898   -1.7503   12.6439  H     
@<TRIPOS>BOND
     1    1    2 2
     2    1    5 1
     3    2    3 1
     4    2   21 1
     5    3    4 2
     6    4    6 1
     7    5    6 2
     8    5    7 1
     9    6    9 1
    10    7    8 2
    11    7   10 1
    12    8    9 1
    13    8   16 1
    14   10   12 2
    15   10   13 1
    16   11   12 1
    17   11   15 2
    18   11   24 1
    19   13   14 2
    20   14   15 1
    21   16   17 2
    22   16   18 am
    23   18   19 1
    24   20   21 am
    25   21   22 2
    26   21   23 2
    27   24   25 1
    28    1   26 1
    29    3   27 1
    30    4   28 1
    31    9   29 1
    32   12   30 1
    33   13   31 1
    34   14   32 1
    35   15   33 1
    36   18   34 1
    37   19   35 1
    38   19   36 1
    39   20   37 1
    40   20   38 1
    41   25   39 1
    42   25   40 1
    43   25   41 1
@<TRIPOS>PROPERTY_DATA
  Total_Score	| 6.9758
  Crash		| -1.7919
  Polar		| 2.7117
  FragIndex	| 1
  FragRMSD	| 0.967

