@<TRIPOS>MOLECULE
BindingDB_26655
 33 35 0 0 0
SMALL
NO_CHARGES


@<TRIPOS>ATOM
1    C        76.3804   34.3984    0.8437  C     
2    C        76.3473   32.9108   -1.0755  C     
3    C        75.7281   33.9104   -1.8531  C     
4    C        75.7579   35.4021    0.0808  C     
5    C        75.4401   35.1803   -1.2877  C     
6    C        74.9051   36.2711   -1.9780  C     
7    C        74.6948   37.4811   -1.3763  C     
8    C        74.9821   37.6361   -0.0575  C     
9    O        75.4629   36.6092    0.6833  O     
10   O        74.6386   36.1606   -3.1721  O     
11   C        74.8034   38.8340    0.6421  C     
12   C        73.9721   40.0395    2.6209  C     
13   C        74.1491   38.8406    1.8980  C     
14   C        75.3174   40.0567    0.1579  C     
15   C        75.1308   41.2499    0.8828  C     
16   C        74.4429   41.2505    2.1030  C     
17   O        74.0969   38.4722   -2.0401  O     
18   C        76.6737   33.1521    0.2713  C     
19   O        74.2456   42.4039    2.7822  O     
20   O        73.3346   40.0339    3.8095  O     
21   O        77.2791   32.1906    1.0128  O     
22   O        75.4387   33.5962   -3.1386  O     
23   O        76.6982   34.6360    2.1340  O     
24   H        76.5809   32.0050   -1.4994  H     
25   H        73.7697   37.9699    2.2856  H     
26   H        75.8546   40.0903   -0.7169  H     
27   H        75.5113   42.1276    0.5299  H     
28   H        74.5265   38.5259   -2.9376  H     
29   H        73.6516   42.9492    2.2112  H     
30   H        73.9930   39.6369    4.4434  H     
31   H        76.8209   31.3385    0.7888  H     
32   H        74.4592   33.6726   -3.2098  H     
33   H        77.6388   34.9753    2.1036  H     
@<TRIPOS>BOND
     1    1    4 1
     2    1   18 2
     3    1   23 1
     4    2    3 2
     5    2   18 1
     6    3    5 1
     7    3   22 1
     8    4    5 2
     9    4    9 1
    10    5    6 1
    11    6    7 1
    12    6   10 2
    13    7    8 2
    14    7   17 1
    15    8    9 1
    16    8   11 1
    17   11   13 2
    18   11   14 1
    19   12   13 1
    20   12   16 2
    21   12   20 1
    22   14   15 2
    23   15   16 1
    24   16   19 1
    25   18   21 1
    26    2   24 1
    27   13   25 1
    28   14   26 1
    29   15   27 1
    30   17   28 1
    31   19   29 1
    32   20   30 1
    33   21   31 1
    34   22   32 1
    35   23   33 1
@<TRIPOS>PROPERTY_DATA
  Total_Score	| 5.1587
  Crash		| -1.0543
  Polar		| 3.0576
  FragIndex	| 1
  FragRMSD	| 1.403

