@<TRIPOS>MOLECULE
BindingDB_26662
 31 33 0 0 0
SMALL
NO_CHARGES


@<TRIPOS>ATOM
1    C        76.1849   34.4465    0.6259  C     
2    C        76.2016   33.1237   -1.4287  C     
3    C        75.6621   34.2137   -2.1274  C     
4    C        75.6106   35.5173   -0.0771  C     
5    C        75.3788   35.4295   -1.4676  C     
6    C        74.8887   36.5778   -2.0982  C     
7    C        74.7297   37.7590   -1.4155  C     
8    C        74.8200   37.7714   -0.0504  C     
9    O        75.2637   36.6516    0.6089  O     
10   O        74.5879   36.5156   -3.2879  O     
11   C        74.5887   38.9106    0.7528  C     
12   C        73.6138   41.1276    1.2334  C     
13   C        73.7150   39.9875    0.4132  C     
14   C        75.2699   39.0148    1.9950  C     
15   C        75.1275   40.1303    2.8365  C     
16   C        74.3005   41.2008    2.4595  C     
17   C        76.4863   33.2522   -0.0510  C     
18   O        74.1695   42.2655    3.2862  O     
19   O        74.4146   38.9603   -2.0240  O     
20   O        76.4514   31.9852   -2.1171  O     
21   O        72.9506   39.8531   -0.7425  O     
22   H        76.3801   34.5324    1.6236  H     
23   H        75.4743   34.1103   -3.1278  H     
24   H        73.0345   41.9240    0.9398  H     
25   H        75.9181   38.2787    2.2974  H     
26   H        75.6316   40.1614    3.7301  H     
27   H        76.9111   32.4717    0.4573  H     
28   H        73.3277   42.0936    3.7596  H     
29   H        74.5022   38.7777   -3.0525  H     
30   H        76.7184   31.3177   -1.4545  H     
31   H        72.7340   40.8201   -0.9771  H     
@<TRIPOS>BOND
     1    1    4 1
     2    1   17 2
     3    2    3 2
     4    2   17 1
     5    2   20 1
     6    3    5 1
     7    4    5 2
     8    4    9 1
     9    5    6 1
    10    6    7 1
    11    6   10 2
    12    7    8 2
    13    7   19 1
    14    8    9 1
    15    8   11 1
    16   11   13 2
    17   11   14 1
    18   12   13 1
    19   12   16 2
    20   13   21 1
    21   14   15 2
    22   15   16 1
    23   16   18 1
    24    1   22 1
    25    3   23 1
    26   12   24 1
    27   14   25 1
    28   15   26 1
    29   17   27 1
    30   18   28 1
    31   19   29 1
    32   20   30 1
    33   21   31 1
@<TRIPOS>PROPERTY_DATA
  Total_Score	| 3.6259
  Crash		| -1.7231
  Polar		| 2.6602
  FragIndex	| 1
  FragRMSD	| 0.615

