@<TRIPOS>MOLECULE
BindingDB_23408
 33 35 0 0 0
SMALL
NO_CHARGES


@<TRIPOS>ATOM
1    C        76.1084   34.4321    0.9734  C     
2    C        76.5021   33.2331    0.3604  C     
3    C        76.3477   33.0840   -1.0328  C     
4    C        75.7827   34.1179   -1.8074  C     
5    C        75.5682   35.4773    0.2087  C     
6    C        75.3845   35.3391   -1.1906  C     
7    C        74.8161   36.4473   -1.8402  C     
8    C        74.5125   37.6120   -1.1651  C     
9    C        74.7165   37.6989    0.1767  C     
10   O        74.5361   36.3694   -3.0284  O     
11   O        75.2138   36.6373    0.8690  O     
12   O        73.8870   38.5980   -1.8061  O     
13   O        75.6694   33.8791   -3.1359  O     
14   O        77.0337   32.2468    1.1303  O     
15   O        76.7950   31.9373   -1.6195  O     
16   C        74.4257   38.8221    0.9811  C     
17   C        74.2545   41.2575    1.3475  C     
18   C        74.5603   40.1569    0.5186  C     
19   C        74.0270   38.6478    2.3342  C     
20   C        73.7487   39.7452    3.1741  C     
21   C        73.8418   41.0565    2.6780  C     
22   O        74.3377   42.5231    0.8691  O     
23   O        73.5230   42.1203    3.4599  O     
24   H        76.2016   34.5411    1.9830  H     
25   H        74.2999   38.6714   -2.7029  H     
26   H        75.4690   34.7556   -3.5522  H     
27   H        76.6027   31.4111    0.8481  H     
28   H        76.0277   31.3343   -1.6268  H     
29   H        74.8967   40.3450   -0.4226  H     
30   H        73.9107   37.7161    2.7221  H     
31   H        73.4574   39.5869    4.1423  H     
32   H        73.5238   42.6511    0.3355  H     
33   H        72.6332   41.9322    3.8340  H     
@<TRIPOS>BOND
     1    1    2 2
     2    1    5 1
     3    2    3 1
     4    2   14 1
     5    3    4 2
     6    3   15 1
     7    4    6 1
     8    4   13 1
     9    5    6 2
    10    5   11 1
    11    6    7 1
    12    7    8 1
    13    7   10 2
    14    8    9 2
    15    8   12 1
    16    9   11 1
    17    9   16 1
    18   16   18 2
    19   16   19 1
    20   17   18 1
    21   17   21 2
    22   17   22 1
    23   19   20 2
    24   20   21 1
    25   21   23 1
    26    1   24 1
    27   12   25 1
    28   13   26 1
    29   14   27 1
    30   15   28 1
    31   18   29 1
    32   19   30 1
    33   20   31 1
    34   22   32 1
    35   23   33 1
@<TRIPOS>PROPERTY_DATA
  Total_Score	| 5.8263
  Crash		| -1.5431
  Polar		| 4.1906
  FragIndex	| 1
  FragRMSD	| 1.433

