@<TRIPOS>MOLECULE
BindingDB_26656
 32 34 0 0 0
SMALL
NO_CHARGES


@<TRIPOS>ATOM
1    C        76.3333   34.3139    0.9239  C     
2    C        76.3602   32.8877   -1.0488  C     
3    C        75.7757   33.9197   -1.8103  C     
4    C        75.7527   35.3508    0.1692  C     
5    C        75.4797   35.1774   -1.2138  C     
6    C        74.9534   36.2891   -1.8834  C     
7    C        74.6558   37.4458   -1.2175  C     
8    C        74.8976   37.5698    0.1096  C     
9    O        75.4993   36.5515    0.7871  O     
10   O        74.7743   36.2559   -3.0953  O     
11   C        74.5602   38.7047    0.8847  C     
12   C        74.1984   41.1253    1.1838  C     
13   C        74.4929   40.0185    0.3579  C     
14   C        74.3189   38.5574    2.2762  C     
15   C        74.0113   39.6538    3.1001  C     
16   C        73.9324   40.9435    2.5515  C     
17   C        76.6460   33.0836    0.3158  C     
18   O        73.6476   42.0331    3.3179  O     
19   O        74.1906   42.3756    0.6722  O     
20   O        77.2567   32.1143    1.0469  O     
21   O        75.5497   33.6795   -3.1284  O     
22   O        73.8242   39.4415    4.4271  O     
23   H        76.5482   34.4601    1.9131  H     
24   H        76.5979   32.0029   -1.4989  H     
25   H        74.2062   38.1789   -1.7128  H     
26   H        74.6971   40.1896   -0.6312  H     
27   H        74.3544   37.6294    2.7115  H     
28   H        72.7500   41.8691    3.7174  H     
29   H        73.4250   42.3850    0.0526  H     
30   H        76.8069   31.2790    0.8345  H     
31   H        74.5729   33.5463   -3.2024  H     
32   H        73.1260   40.0690    4.7133  H     
@<TRIPOS>BOND
     1    1    4 1
     2    1   17 2
     3    2    3 2
     4    2   17 1
     5    3    5 1
     6    3   21 1
     7    4    5 2
     8    4    9 1
     9    5    6 1
    10    6    7 1
    11    6   10 2
    12    7    8 2
    13    8    9 1
    14    8   11 1
    15   11   13 2
    16   11   14 1
    17   12   13 1
    18   12   16 2
    19   12   19 1
    20   14   15 2
    21   15   16 1
    22   15   22 1
    23   16   18 1
    24   17   20 1
    25    1   23 1
    26    2   24 1
    27    7   25 1
    28   13   26 1
    29   14   27 1
    30   18   28 1
    31   19   29 1
    32   20   30 1
    33   21   31 1
    34   22   32 1
@<TRIPOS>PROPERTY_DATA
  Total_Score	| 5.6003
  Crash		| -0.7376
  Polar		| 3.3641
  FragIndex	| 1
  FragRMSD	| 0.220

