@<TRIPOS>MOLECULE
BindingDB_7457
 31 33 0 0 0
SMALL
NO_CHARGES


@<TRIPOS>ATOM
1    C        75.8064   33.9261   -1.8852  C     
2    C        76.3682   32.8954   -1.1081  C     
3    C        76.6920   33.1295    0.2433  C     
4    C        76.4454   34.3952    0.8098  C     
5    O        77.2393   32.1526    1.0117  O     
6    C        75.5593   35.2027   -1.3230  C     
7    C        75.8790   35.4258    0.0358  C     
8    C        75.0221   36.2865   -2.0213  C     
9    C        74.9840   37.6212   -0.0655  C     
10   C        74.7001   37.4621   -1.3842  C     
11   O        74.7991   36.1707   -3.2185  O     
12   O        73.9523   38.3578   -2.0326  O     
13   O        75.6689   36.6581    0.6085  O     
14   C        74.6130   38.7330    0.7115  C     
15   C        74.1949   38.5416    2.0529  C     
16   C        74.7043   40.0691    0.2418  C     
17   C        74.3869   41.1642    1.0683  C     
18   C        73.9810   40.9449    2.3986  C     
19   C        73.8855   39.6285    2.8849  C     
20   O        73.6641   42.0028    3.1912  O     
21   O        74.4795   42.4385    0.6109  O     
22   H        75.5843   33.7380   -2.8644  H     
23   H        76.5503   31.9829   -1.5342  H     
24   H        76.6818   34.5742    1.7878  H     
25   H        76.7705   31.3288    0.7731  H     
26   H        74.3821   38.5080   -2.9078  H     
27   H        74.1206   37.5980    2.4468  H     
28   H        75.0542   40.2601   -0.6968  H     
29   H        73.5821   39.4603    3.8454  H     
30   H        72.8445   41.7520    3.6649  H     
31   H        73.6240   42.6120    0.1418  H     
@<TRIPOS>BOND
     1    1    2 1
     2    1    6 2
     3    2    3 2
     4    3    4 1
     5    3    5 1
     6    4    7 2
     7    6    7 1
     8    6    8 1
     9    7   13 1
    10    8   10 1
    11    8   11 2
    12    9   10 2
    13    9   13 1
    14    9   14 1
    15   10   12 1
    16   14   15 1
    17   14   16 2
    18   15   19 2
    19   16   17 1
    20   17   18 2
    21   17   21 1
    22   18   19 1
    23   18   20 1
    24    1   22 1
    25    2   23 1
    26    4   24 1
    27    5   25 1
    28   12   26 1
    29   15   27 1
    30   16   28 1
    31   19   29 1
    32   20   30 1
    33   21   31 1
@<TRIPOS>PROPERTY_DATA
  Total_Score	| 6.5079
  Crash		| -0.7988
  Polar		| 4.3210
  FragIndex	| 1
  FragRMSD	| 0.144

