@<TRIPOS>MOLECULE
BindingDB_26658
 32 34 0 0 0
SMALL
NO_CHARGES


@<TRIPOS>ATOM
1    C        76.3870   34.3810    0.8025  C     
2    C        76.3699   32.8952   -1.1212  C     
3    C        75.7465   33.8924   -1.8984  C     
4    C        75.7887   35.3940    0.0295  C     
5    C        75.4639   35.1689   -1.3351  C     
6    C        74.9044   36.2571   -2.0224  C     
7    C        74.6408   37.4513   -1.3888  C     
8    C        74.9727   37.6134   -0.0856  C     
9    O        75.5383   36.6069    0.6287  O     
10   O        74.6788   36.1703   -3.2237  O     
11   C        74.7320   38.7821    0.6476  C     
12   C        74.9866   41.1999    1.0135  C     
13   C        75.2437   40.0452    0.2474  C     
14   C        74.0361   38.7088    1.8783  C     
15   C        73.8045   39.8583    2.6550  C     
16   C        74.2578   41.1142    2.2125  C     
17   C        76.6835   33.1323    0.2313  C     
18   O        74.0332   42.2465    2.9295  O     
19   O        77.2712   32.1772    0.9985  O     
20   O        75.4517   33.5706   -3.1864  O     
21   O        73.9527   38.4195   -2.0136  O     
22   O        76.0598   40.1790   -0.8316  O     
23   H        76.6143   34.5599    1.7832  H     
24   H        76.6022   31.9934   -1.5441  H     
25   H        75.3578   42.1052    0.7081  H     
26   H        73.6833   37.8090    2.2241  H     
27   H        73.3110   39.7843    3.5499  H     
28   H        73.2288   42.0794    3.4673  H     
29   H        76.7913   31.3442    0.8073  H     
30   H        74.4757   33.6390   -3.2667  H     
31   H        74.3423   38.5169   -2.9089  H     
32   H        75.5097   39.9327   -1.6062  H     
@<TRIPOS>BOND
     1    1    4 1
     2    1   17 2
     3    2    3 2
     4    2   17 1
     5    3    5 1
     6    3   20 1
     7    4    5 2
     8    4    9 1
     9    5    6 1
    10    6    7 1
    11    6   10 2
    12    7    8 2
    13    7   21 1
    14    8    9 1
    15    8   11 1
    16   11   13 2
    17   11   14 1
    18   12   13 1
    19   12   16 2
    20   13   22 1
    21   14   15 2
    22   15   16 1
    23   16   18 1
    24   17   19 1
    25    1   23 1
    26    2   24 1
    27   12   25 1
    28   14   26 1
    29   15   27 1
    30   18   28 1
    31   19   29 1
    32   20   30 1
    33   21   31 1
    34   22   32 1
@<TRIPOS>PROPERTY_DATA
  Total_Score	| 5.5308
  Crash		| -1.2524
  Polar		| 3.0639
  FragIndex	| 1
  FragRMSD	| 0.237

