@<TRIPOS>MOLECULE
BindingDB_15236
 33 35 0 0 0
SMALL
NO_CHARGES


@<TRIPOS>ATOM
1    C        75.8052   33.9386   -1.8218  C     
2    C        76.3866   32.9289   -1.0342  C     
3    C        76.5964   33.1279    0.3446  C     
4    C        76.2371   34.3546    0.9308  C     
5    O        77.1681   32.1592    1.1086  O     
6    C        75.4591   35.1938   -1.2384  C     
7    C        75.6855   35.3807    0.1471  C     
8    C        74.9206   36.2889   -1.9333  C     
9    C        74.8458   37.6065    0.0329  C     
10   C        74.6027   37.4659   -1.2979  C     
11   O        74.7403   36.2119   -3.1433  O     
12   O        73.9427   38.4206   -1.9549  O     
13   O        75.3938   36.5768    0.7505  O     
14   C        74.5639   38.7660    0.7913  C     
15   C        74.7459   40.0768    0.2870  C     
16   C        74.1480   38.6292    2.1442  C     
17   C        73.9114   39.7554    2.9562  C     
18   C        74.0643   41.0509    2.4259  C     
19   O        73.8409   42.1392    3.2194  O     
20   O        73.5399   39.5637    4.2511  O     
21   O        75.6149   33.6594   -3.1387  O     
22   C        74.4805   41.2047    1.0861  C     
23   O        74.6484   42.4527    0.5770  O     
24   H        76.6671   32.0455   -1.4645  H     
25   H        76.3896   34.5022    1.9271  H     
26   H        76.7522   31.3103    0.8280  H     
27   H        74.2751   38.4178   -2.8855  H     
28   H        75.1052   40.2147   -0.6536  H     
29   H        74.0066   37.7060    2.5560  H     
30   H        73.4615   42.8333    2.6253  H     
31   H        73.1799   40.4263    4.5684  H     
32   H        74.6443   33.7575   -3.2779  H     
33   H        73.8078   42.6381    0.0917  H     
@<TRIPOS>BOND
     1    1    2 1
     2    1    6 2
     3    1   21 1
     4    2    3 2
     5    3    4 1
     6    3    5 1
     7    4    7 2
     8    6    7 1
     9    6    8 1
    10    7   13 1
    11    8   10 1
    12    8   11 2
    13    9   10 2
    14    9   13 1
    15    9   14 1
    16   10   12 1
    17   14   15 1
    18   14   16 2
    19   15   22 2
    20   16   17 1
    21   17   18 2
    22   17   20 1
    23   18   19 1
    24   18   22 1
    25   22   23 1
    26    2   24 1
    27    4   25 1
    28    5   26 1
    29   12   27 1
    30   15   28 1
    31   16   29 1
    32   19   30 1
    33   20   31 1
    34   21   32 1
    35   23   33 1
@<TRIPOS>PROPERTY_DATA
  Total_Score	| 5.9718
  Crash		| -1.0488
  Polar		| 4.1962
  FragIndex	| 1
  FragRMSD	| 0.078

