@<TRIPOS>MOLECULE
BindingDB_7462
 31 33 0 0 0
SMALL
NO_CHARGES


@<TRIPOS>ATOM
1    C        75.7758   33.8954   -1.8428  C     
2    C        76.3770   32.8956   -1.0521  C     
3    C        76.6273   33.1162    0.3152  C     
4    C        76.2690   34.3457    0.8950  C     
5    O        77.2219   32.1700    1.0870  O     
6    C        75.4402   35.1538   -1.2715  C     
7    C        75.6920   35.3577    0.1089  C     
8    C        74.8764   36.2405   -1.9586  C     
9    C        74.9078   37.5917   -0.0115  C     
10   C        74.6395   37.4444   -1.3352  C     
11   O        74.5834   36.1334   -3.1409  O     
12   O        75.3810   36.5518    0.7210  O     
13   C        74.7192   38.7784    0.7051  C     
14   C        75.2027   40.0266    0.2349  C     
15   C        74.0803   38.7566    1.9713  C     
16   C        73.9118   39.9339    2.7228  C     
17   C        74.3710   41.1664    2.2254  C     
18   C        75.0247   41.2052    0.9828  C     
19   O        74.2068   42.3194    2.9270  O     
20   O        75.5594   33.5844   -3.1473  O     
21   O        74.0498   38.4385   -2.0089  O     
22   H        76.6507   32.0049   -1.4779  H     
23   H        76.4336   34.5098    1.8913  H     
24   H        76.8044   31.3169    0.8462  H     
25   H        75.7137   40.0826   -0.6486  H     
26   H        73.7204   37.8787    2.3578  H     
27   H        73.4536   39.8891    3.6373  H     
28   H        75.3823   42.0926    0.6215  H     
29   H        73.3976   42.2020    3.4733  H     
30   H        75.3910   34.4325   -3.6044  H     
31   H        74.4291   38.4438   -2.9147  H     
@<TRIPOS>BOND
     1    1    2 1
     2    1    6 2
     3    1   20 1
     4    2    3 2
     5    3    4 1
     6    3    5 1
     7    4    7 2
     8    6    7 1
     9    6    8 1
    10    7   12 1
    11    8   10 1
    12    8   11 2
    13    9   10 2
    14    9   12 1
    15    9   13 1
    16   10   21 1
    17   13   14 1
    18   13   15 2
    19   14   18 2
    20   15   16 1
    21   16   17 2
    22   17   18 1
    23   17   19 1
    24    2   22 1
    25    4   23 1
    26    5   24 1
    27   14   25 1
    28   15   26 1
    29   16   27 1
    30   18   28 1
    31   19   29 1
    32   20   30 1
    33   21   31 1
@<TRIPOS>PROPERTY_DATA
  Total_Score	| 5.1266
  Crash		| -0.9837
  Polar		| 3.0437
  FragIndex	| 1
  FragRMSD	| 0.244

