@<TRIPOS>MOLECULE
BindingDB_7459
 31 33 0 0 0
SMALL
NO_CHARGES


@<TRIPOS>ATOM
1    C        75.8226   33.9324   -1.8214  C     
2    C        76.4217   32.8954   -1.0813  C     
3    C        76.7289   33.0813    0.2832  C     
4    C        76.4489   34.3132    0.8987  C     
5    O        77.2942   32.0928    1.0171  O     
6    C        75.5301   35.1764   -1.2072  C     
7    C        75.8490   35.3513    0.1620  C     
8    C        74.9538   36.2764   -1.8515  C     
9    C        74.9628   37.5519    0.1422  C     
10   C        74.6537   37.4223   -1.1698  C     
11   O        74.7160   36.2460   -3.0525  O     
12   O        75.5790   36.5426    0.8114  O     
13   C        74.6429   38.6966    0.8873  C     
14   C        74.2204   38.5679    2.2354  C     
15   C        74.7421   40.0021    0.3433  C     
16   C        74.4039   41.1336    1.1040  C     
17   C        73.9691   40.9883    2.4333  C     
18   C        73.8875   39.7010    3.0023  C     
19   O        73.6408   42.0863    3.1526  O     
20   O        75.5458   33.6776   -3.1247  O     
21   O        74.4972   42.3799    0.5783  O     
22   H        76.6458   32.0074   -1.5304  H     
23   H        76.6793   34.4538    1.8841  H     
24   H        76.8312   31.2687    0.7599  H     
25   H        74.1339   38.1364   -1.6306  H     
26   H        74.1316   37.6467    2.6705  H     
27   H        75.0883   40.1353   -0.6067  H     
28   H        73.5683   39.5873    3.9667  H     
29   H        74.2143   42.0601    3.9449  H     
30   H        74.5685   33.6870   -3.1855  H     
31   H        73.6435   42.5256    0.1214  H     
@<TRIPOS>BOND
     1    1    2 1
     2    1    6 2
     3    1   20 1
     4    2    3 2
     5    3    4 1
     6    3    5 1
     7    4    7 2
     8    6    7 1
     9    6    8 1
    10    7   12 1
    11    8   10 1
    12    8   11 2
    13    9   10 2
    14    9   12 1
    15    9   13 1
    16   13   14 1
    17   13   15 2
    18   14   18 2
    19   15   16 1
    20   16   17 2
    21   16   21 1
    22   17   18 1
    23   17   19 1
    24    2   22 1
    25    4   23 1
    26    5   24 1
    27   10   25 1
    28   14   26 1
    29   15   27 1
    30   18   28 1
    31   19   29 1
    32   20   30 1
    33   21   31 1
@<TRIPOS>PROPERTY_DATA
  Total_Score	| 5.2145
  Crash		| -0.6991
  Polar		| 3.3545
  FragIndex	| 1
  FragRMSD	| 0.150

