@<TRIPOS>MOLECULE
BindingDB_26660
 29 31 0 0 0
SMALL
NO_CHARGES


@<TRIPOS>ATOM
1    C        75.0413   39.0866    2.6152  C     
2    C        73.9311   41.1608    1.9697  C     
3    C        73.7291   40.6529    0.6784  C     
4    C        74.8401   38.5738    1.3198  C     
5    C        74.1998   39.3606    0.3333  C     
6    C        74.0772   38.7956   -0.9408  C     
7    C        74.6769   37.6091   -1.2572  C     
8    C        75.2430   36.8640   -0.2695  C     
9    O        75.2311   37.2870    1.0300  O     
10   O        73.3435   39.3300   -1.7666  O     
11   C        75.8170   35.6080   -0.4714  C     
12   C        77.3944   34.1171   -1.6214  C     
13   C        76.7638   35.3684   -1.5005  C     
14   C        75.5151   34.5515    0.4207  C     
15   C        76.1410   33.2950    0.2887  C     
16   C        77.0763   33.0785   -0.7355  C     
17   C        74.5863   40.3815    2.9377  C     
18   O        74.7684   40.8954    4.1849  O     
19   O        74.6419   37.1505   -2.5125  O     
20   H        75.5042   38.5216    3.3286  H     
21   H        73.6015   42.1000    2.2061  H     
22   H        73.2558   41.2347   -0.0093  H     
23   H        78.0883   33.9666   -2.3525  H     
24   H        77.0366   36.1183   -2.1458  H     
25   H        74.8417   34.6792    1.1765  H     
26   H        75.9291   32.5476    0.9568  H     
27   H        77.5375   32.1672   -0.8208  H     
28   H        74.3093   40.2541    4.7878  H     
29   H        74.5384   37.9290   -3.1147  H     
@<TRIPOS>BOND
     1    1    4 1
     2    1   17 2
     3    2    3 2
     4    2   17 1
     5    3    5 1
     6    4    5 2
     7    4    9 1
     8    5    6 1
     9    6    7 1
    10    6   10 2
    11    7    8 2
    12    7   19 1
    13    8    9 1
    14    8   11 1
    15   11   13 2
    16   11   14 1
    17   12   13 1
    18   12   16 2
    19   14   15 2
    20   15   16 1
    21   17   18 1
    22    1   20 1
    23    2   21 1
    24    3   22 1
    25   12   23 1
    26   13   24 1
    27   14   25 1
    28   15   26 1
    29   16   27 1
    30   18   28 1
    31   19   29 1
@<TRIPOS>PROPERTY_DATA
  Total_Score	| 2.8569
  Crash		| -0.9993
  Polar		| 0.9157
  FragIndex	| 1
  FragRMSD	| 1.350

