@<TRIPOS>MOLECULE
BindingDB_26659
 29 31 0 0 0
SMALL
NO_CHARGES


@<TRIPOS>ATOM
1    C        76.3549   34.3520    0.9083  C     
2    C        76.3684   32.9159   -1.0650  C     
3    C        75.7860   33.9539   -1.8172  C     
4    C        75.7874   35.3976    0.1539  C     
5    C        75.5038   35.2102   -1.2238  C     
6    C        74.9665   36.2976   -1.9121  C     
7    C        74.6820   37.4665   -1.2554  C     
8    C        74.9515   37.6362    0.0627  C     
9    O        75.5313   36.6085    0.7662  O     
10   O        74.7296   36.2203   -3.1107  O     
11   C        74.6216   38.7975    0.7946  C     
12   C        74.3963   41.2493    1.0110  C     
13   C        74.6874   40.1029    0.2374  C     
14   C        74.2489   38.6890    2.1600  C     
15   C        73.9460   39.8254    2.9313  C     
16   C        74.0106   41.1009    2.3513  C     
17   C        76.6565   33.1144    0.3004  C     
18   O        77.2382   32.1353    1.0504  O     
19   O        74.4799   42.5144    0.5294  O     
20   H        76.5673   34.4919    1.8984  H     
21   H        76.5958   32.0257   -1.5167  H     
22   H        75.5893   33.7892   -2.8162  H     
23   H        74.2013   38.1831   -1.7514  H     
24   H        74.9927   40.2433   -0.7318  H     
25   H        74.1832   37.7677    2.6149  H     
26   H        73.6800   39.7207    3.9125  H     
27   H        73.7922   41.9304    2.9257  H     
28   H        76.7646   31.3093    0.8382  H     
29   H        73.6641   42.6438   -0.0208  H     
@<TRIPOS>BOND
     1    1    4 1
     2    1   17 2
     3    2    3 2
     4    2   17 1
     5    3    5 1
     6    4    5 2
     7    4    9 1
     8    5    6 1
     9    6    7 1
    10    6   10 2
    11    7    8 2
    12    8    9 1
    13    8   11 1
    14   11   13 2
    15   11   14 1
    16   12   13 1
    17   12   16 2
    18   12   19 1
    19   14   15 2
    20   15   16 1
    21   17   18 1
    22    1   20 1
    23    2   21 1
    24    3   22 1
    25    7   23 1
    26   13   24 1
    27   14   25 1
    28   15   26 1
    29   16   27 1
    30   18   28 1
    31   19   29 1
@<TRIPOS>PROPERTY_DATA
  Total_Score	| 5.5533
  Crash		| -0.6115
  Polar		| 3.3214
  FragIndex	| 1
  FragRMSD	| 0.085

