@<TRIPOS>MOLECULE
BindingDB_26657
 30 32 0 0 0
SMALL
NO_CHARGES


@<TRIPOS>ATOM
1    C        76.2161   34.4459    0.8719  C     
2    C        76.4129   32.9762   -1.0604  C     
3    C        75.8470   33.9777   -1.8755  C     
4    C        75.6496   35.4355    0.0512  C     
5    C        75.4601   35.2277   -1.3302  C     
6    C        74.9102   36.2863   -2.0536  C     
7    C        74.5944   37.4796   -1.4715  C     
8    C        74.7747   37.6665   -0.1286  C     
9    O        75.2723   36.6247    0.6210  O     
10   O        74.6895   36.1270   -3.2544  O     
11   C        74.4968   38.8416    0.6597  C     
12   C        74.1807   39.8068    2.9375  C     
13   C        74.4666   38.7204    2.0879  C     
14   C        74.2274   40.1487    0.1746  C     
15   C        73.9656   41.2420    1.0057  C     
16   C        73.9162   41.0729    2.3913  C     
17   C        76.5870   33.2085    0.3164  C     
18   O        73.6771   42.1135    3.2456  O     
19   O        77.1336   32.2701    1.1339  O     
20   O        73.9924   38.4364   -2.1768  O     
21   H        76.3530   34.6216    1.8618  H     
22   H        76.7052   32.0952   -1.4710  H     
23   H        75.7326   33.7875   -2.8693  H     
24   H        74.1916   39.6743    3.9442  H     
25   H        74.6832   37.8506    2.5504  H     
26   H        74.1891   40.3421   -0.8474  H     
27   H        73.8070   42.1696    0.5953  H     
28   H        73.5160   42.9086    2.6849  H     
29   H        76.7464   31.3984    0.8772  H     
30   H        74.4426   38.4762   -3.1093  H     
@<TRIPOS>BOND
     1    1    4 1
     2    1   17 2
     3    2    3 2
     4    2   17 1
     5    3    5 1
     6    4    5 2
     7    4    9 1
     8    5    6 1
     9    6    7 1
    10    6   10 2
    11    7    8 2
    12    7   20 1
    13    8    9 1
    14    8   11 1
    15   11   13 2
    16   11   14 1
    17   12   13 1
    18   12   16 2
    19   14   15 2
    20   15   16 1
    21   16   18 1
    22   17   19 1
    23    1   21 1
    24    2   22 1
    25    3   23 1
    26   12   24 1
    27   13   25 1
    28   14   26 1
    29   15   27 1
    30   18   28 1
    31   19   29 1
    32   20   30 1
@<TRIPOS>PROPERTY_DATA
  Total_Score	| 5.1755
  Crash		| -0.7611
  Polar		| 3.1026
  FragIndex	| 1
  FragRMSD	| 0.232

