@<TRIPOS>MOLECULE
BindingDB_7458
 30 32 0 0 0
SMALL
NO_CHARGES


@<TRIPOS>ATOM
1    C        75.6505   33.8646   -1.8243  C     
2    C        76.2685   32.8535   -1.0608  C     
3    C        76.6329   33.0812    0.2794  C     
4    C        76.3683   34.3261    0.8649  C     
5    O        77.2642   32.1301    1.0083  O     
6    C        75.3904   35.1352   -1.2420  C     
7    C        75.7422   35.3424    0.1196  C     
8    C        74.8153   36.2313   -1.8958  C     
9    C        74.9652   37.5718    0.0414  C     
10   C        74.6305   37.4238   -1.2623  C     
11   O        74.4395   36.1438   -3.0583  O     
12   O        75.4913   36.5444    0.7517  O     
13   C        74.7514   38.7540    0.7533  C     
14   C        75.1688   40.0226    0.2718  C     
15   C        74.1068   38.7154    2.0190  C     
16   C        73.8671   39.8887    2.7525  C     
17   C        74.2704   41.1389    2.2518  C     
18   C        74.9283   41.1961    1.0079  C     
19   O        74.0273   42.2536    2.9785  O     
20   O        75.3151   33.5495   -3.1043  O     
21   H        76.4716   31.9541   -1.4969  H     
22   H        76.6272   34.4917    1.8412  H     
23   H        76.7937   31.2899    0.8212  H     
24   H        74.1946   38.1745   -1.7640  H     
25   H        75.6679   40.1013   -0.6153  H     
26   H        73.7814   37.8293    2.4176  H     
27   H        73.3922   39.8294    3.6596  H     
28   H        75.2510   42.0981    0.6423  H     
29   H        73.7050   42.9279    2.3364  H     
30   H        75.3945   34.3777   -3.6160  H     
@<TRIPOS>BOND
     1    1    2 1
     2    1    6 2
     3    1   20 1
     4    2    3 2
     5    3    4 1
     6    3    5 1
     7    4    7 2
     8    6    7 1
     9    6    8 1
    10    7   12 1
    11    8   10 1
    12    8   11 2
    13    9   10 2
    14    9   12 1
    15    9   13 1
    16   13   14 1
    17   13   15 2
    18   14   18 2
    19   15   16 1
    20   16   17 2
    21   17   18 1
    22   17   19 1
    23    2   21 1
    24    4   22 1
    25    5   23 1
    26   10   24 1
    27   14   25 1
    28   15   26 1
    29   16   27 1
    30   18   28 1
    31   19   29 1
    32   20   30 1
@<TRIPOS>PROPERTY_DATA
  Total_Score	| 4.0233
  Crash		| -0.9252
  Polar		| 2.1303
  FragIndex	| 1
  FragRMSD	| 0.226

