@<TRIPOS>MOLECULE
BindingDB_7460
 32 34 0 0 0
SMALL
NO_CHARGES


@<TRIPOS>ATOM
1    C        75.7771   33.9554   -1.8005  C     
2    C        76.3517   32.9398   -1.0141  C     
3    C        76.6106   33.1501    0.3522  C     
4    C        76.2955   34.3928    0.9305  C     
5    O        77.1651   32.1770    1.1243  O     
6    C        75.4763   35.2206   -1.2286  C     
7    C        75.7408   35.4202    0.1493  C     
8    C        74.9543   36.3199   -1.9239  C     
9    C        74.8797   37.6340    0.0430  C     
10   C        74.6177   37.4893   -1.2850  C     
11   O        74.7888   36.2618   -3.1382  O     
12   O        73.9131   38.4278   -1.9248  O     
13   O        75.4790   36.6296    0.7506  O     
14   C        74.5584   38.7660    0.8145  C     
15   C        74.1405   38.6071    2.1624  C     
16   C        74.7061   40.0823    0.3140  C     
17   C        74.4202   41.2017    1.1246  C     
18   C        73.9961   41.0251    2.4589  C     
19   C        73.8685   39.7207    2.9706  C     
20   O        73.7257   42.1104    3.2360  O     
21   O        74.5554   42.4546    0.6191  O     
22   O        75.5488   33.6657   -3.1144  O     
23   H        76.5968   32.0397   -1.4435  H     
24   H        76.4849   34.5567    1.9242  H     
25   H        76.7083   31.3418    0.8732  H     
26   H        74.3266   38.5289   -2.8219  H     
27   H        74.0097   37.6781    2.5611  H     
28   H        75.0503   40.2436   -0.6297  H     
29   H        73.5736   39.5849    3.9359  H     
30   H        72.8878   41.8928    3.7154  H     
31   H        73.6900   42.6399    0.1794  H     
32   H        74.5711   33.7431   -3.2262  H     
@<TRIPOS>BOND
     1    1    2 1
     2    1    6 2
     3    1   22 1
     4    2    3 2
     5    3    4 1
     6    3    5 1
     7    4    7 2
     8    6    7 1
     9    6    8 1
    10    7   13 1
    11    8   10 1
    12    8   11 2
    13    9   10 2
    14    9   13 1
    15    9   14 1
    16   10   12 1
    17   14   15 1
    18   14   16 2
    19   15   19 2
    20   16   17 1
    21   17   18 2
    22   17   21 1
    23   18   19 1
    24   18   20 1
    25    2   23 1
    26    4   24 1
    27    5   25 1
    28   12   26 1
    29   15   27 1
    30   16   28 1
    31   19   29 1
    32   20   30 1
    33   21   31 1
    34   22   32 1
@<TRIPOS>PROPERTY_DATA
  Total_Score	| 6.4826
  Crash		| -0.7963
  Polar		| 4.2295
  FragIndex	| 1
  FragRMSD	| 0.073

