@<TRIPOS>MOLECULE
BindingDB_26661
 31 33 0 0 0
SMALL
NO_CHARGES


@<TRIPOS>ATOM
1    C        76.4100   34.3230    0.9178  C     
2    C        76.3925   32.8910   -1.0534  C     
3    C        75.8185   33.9346   -1.8077  C     
4    C        75.8371   35.3635    0.1667  C     
5    C        75.5406   35.1858   -1.2065  C     
6    C        74.9706   36.2770   -1.8689  C     
7    C        74.6593   37.4248   -1.2011  C     
8    C        74.9391   37.5673    0.1165  C     
9    O        75.5730   36.5645    0.7853  O     
10   O        74.7418   36.2206   -3.0699  O     
11   C        74.5973   38.6989    0.8825  C     
12   C        73.8906   39.6521    3.0506  C     
13   C        74.2299   38.5453    2.2506  C     
14   C        74.6148   40.0244    0.3589  C     
15   C        74.2942   41.1393    1.1554  C     
16   C        73.9217   40.9539    2.4996  C     
17   C        76.6878   33.0863    0.3099  C     
18   O        77.2497   32.1058    1.0560  O     
19   O        73.5304   39.4717    4.3486  O     
20   O        73.6090   42.0325    3.2617  O     
21   O        74.3865   42.3973    0.6459  O     
22   H        76.6218   34.4639    1.9071  H     
23   H        76.6050   31.9992   -1.5045  H     
24   H        75.6056   33.7767   -2.7981  H     
25   H        74.1438   38.1237   -1.6800  H     
26   H        74.1760   37.6124    2.6801  H     
27   H        74.9049   40.1943   -0.6030  H     
28   H        76.8035   31.2752    0.8013  H     
29   H        74.3722   39.2275    4.8105  H     
30   H        72.7724   41.7870    3.7247  H     
31   H        73.6428   42.4817    0.0135  H     
@<TRIPOS>BOND
     1    1    4 1
     2    1   17 2
     3    2    3 2
     4    2   17 1
     5    3    5 1
     6    4    5 2
     7    4    9 1
     8    5    6 1
     9    6    7 1
    10    6   10 2
    11    7    8 2
    12    8    9 1
    13    8   11 1
    14   11   13 2
    15   11   14 1
    16   12   13 1
    17   12   16 2
    18   12   19 1
    19   14   15 2
    20   15   16 1
    21   15   21 1
    22   16   20 1
    23   17   18 1
    24    1   22 1
    25    2   23 1
    26    3   24 1
    27    7   25 1
    28   13   26 1
    29   14   27 1
    30   18   28 1
    31   19   29 1
    32   20   30 1
    33   21   31 1
@<TRIPOS>PROPERTY_DATA
  Total_Score	| 5.3761
  Crash		| -0.7167
  Polar		| 3.4350
  FragIndex	| 1
  FragRMSD	| 0.170

