@<TRIPOS>MOLECULE
BindingDB_11429
 71 75 0 0 0
SMALL
NO_CHARGES


@<TRIPOS>ATOM
1    C         1.9510   64.4013    7.5079  C     
2    C         1.5030   63.4193    8.3149  C     
3    C         0.3193   63.5221    9.0277  C     
4    C         0.0446   65.6745    8.1613  C     
5    C        -0.4999   66.9282    7.9261  C     
6    C         0.4239   67.5268    7.0755  C     
7    N         3.0159   64.3100    6.6802  N     
8    C         3.9684   63.3662    6.3905  C     
9    C         4.3063   62.1603    7.0677  C     
10   C         4.7060   63.6516    5.2046  C     
11   C         5.6582   62.7558    4.6807  C     
12   C         5.8987   61.5293    5.3271  C     
13   C         5.2331   61.2559    6.5375  C     
14   S         6.9620   60.3376    4.6290  S     
15   O         6.9771   60.5153    3.0450  O     
16   O         8.4671   60.6503    5.0488  O     
17   N         6.5686   58.7317    5.0154  N     
18   C         7.6091   57.8387    5.4434  C     
19   C         5.3261   58.2109    4.5228  C     
20   N         1.2104   65.5471    7.4794  N     
21   N        -0.4161   64.6602    8.9270  N     
22   N         1.4277   66.6569    6.8307  N     
23   N        -0.0951   62.4563    9.7474  N     
24   C        -1.3341   62.3451   10.4474  C     
25   C        -1.3161   63.1800   11.7619  C     
26   C        -1.6130   60.8469   10.7398  C     
27   C        -2.9337   60.6603   11.5260  C     
28   C        -2.9463   61.4983   12.8315  C     
29   C        -2.6326   62.9989   12.5592  C     
30   N        -4.2557   61.3591   13.4874  N     
31   C        -1.7810   67.4813    8.4551  C     
32   C        -3.0339   66.6523    8.0588  C     
33   C        -1.8193   67.5867   10.0037  C     
34   C        -3.2999   67.4173   10.3808  C     
35   C        -3.8241   66.3934    9.3631  C     
36   H         2.0075   62.5964    8.4078  H     
37   H         0.3419   68.4678    6.6870  H     
38   H         3.0643   65.0561    6.0631  H     
39   H         3.9220   61.8814    7.9628  H     
40   H         4.5289   64.5085    4.6863  H     
41   H         6.1497   62.9999    3.8137  H     
42   H         5.4415   60.3900    7.0404  H     
43   H         8.1776   57.5035    4.5729  H     
44   H         7.1981   56.9617    5.9516  H     
45   H         8.2872   58.3331    6.1422  H     
46   H         4.5294   58.9528    4.6062  H     
47   H         5.0148   57.3278    5.0840  H     
48   H         5.4546   57.9327    3.4726  H     
49   H         0.4744   61.6659    9.7174  H     
50   H        -2.1344   62.7188    9.7938  H     
51   H        -0.4706   62.8660   12.3888  H     
52   H        -1.1792   64.2373   11.5241  H     
53   H        -1.6898   60.2973    9.7928  H     
54   H        -0.7793   60.4179   11.3194  H     
55   H        -3.7764   60.9657   10.8890  H     
56   H        -3.0593   59.6058   11.7757  H     
57   H        -2.1883   61.1092   13.5189  H     
58   H        -2.5392   63.5240   13.5144  H     
59   H        -3.4606   63.4430   11.9924  H     
60   H        -5.0000   61.3951   12.7864  H     
61   H        -4.3883   62.1236   14.1439  H     
62   H        -4.2938   60.4677   13.9859  H     
63   H        -1.9160   68.4916    8.0552  H     
64   H        -3.6609   67.2137    7.3581  H     
65   H        -2.7762   65.6911    7.5965  H     
66   H        -1.2364   66.7873   10.4717  H     
67   H        -1.4310   68.5425   10.3594  H     
68   H        -3.4141   67.0642   11.4068  H     
69   H        -3.8252   68.3666   10.2595  H     
70   H        -4.9037   66.4974    9.2153  H     
71   H        -3.6180   65.3816    9.7248  H     
@<TRIPOS>BOND
     1    1    2 2
     2    1    7 1
     3    1   20 1
     4    2    3 1
     5    3   21 2
     6    3   23 1
     7    4    5 2
     8    4   20 1
     9    4   21 1
    10    5    6 1
    11    5   31 1
    12    6   22 2
    13    7    8 1
    14    8    9 1
    15    8   10 2
    16    9   13 2
    17   10   11 1
    18   11   12 2
    19   12   13 1
    20   12   14 1
    21   14   15 2
    22   14   16 2
    23   14   17 1
    24   17   18 1
    25   17   19 1
    26   20   22 1
    27   24   23 1
    28   24   25 1
    29   24   26 1
    30   25   29 1
    31   26   27 1
    32   27   28 1
    33   28   29 1
    34   28   30 1
    35   31   32 1
    36   31   33 1
    37   32   35 1
    38   33   34 1
    39   34   35 1
    40    2   36 1
    41    6   37 1
    42    7   38 1
    43    9   39 1
    44   10   40 1
    45   11   41 1
    46   13   42 1
    47   18   43 1
    48   18   44 1
    49   18   45 1
    50   19   46 1
    51   19   47 1
    52   19   48 1
    53   23   49 1
    54   24   50 1
    55   25   51 1
    56   25   52 1
    57   26   53 1
    58   26   54 1
    59   27   55 1
    60   27   56 1
    61   28   57 1
    62   29   58 1
    63   29   59 1
    64   30   60 1
    65   30   61 1
    66   30   62 1
    67   31   63 1
    68   32   64 1
    69   32   65 1
    70   33   66 1
    71   33   67 1
    72   34   68 1
    73   34   69 1
    74   35   70 1
    75   35   71 1
@<TRIPOS>PROPERTY_DATA
  Total_Score	| 11.5207
  Crash		| -1.8954
  Polar		| 3.0580
  FragIndex	| 1
  FragRMSD	| 0.669

