@<TRIPOS>MOLECULE
BindingDB_11433
 73 76 0 0 0
SMALL
NO_CHARGES


@<TRIPOS>ATOM
1    C         1.8047   64.4028    7.3093  C     
2    C         1.3767   63.4199    8.1282  C     
3    C         0.1891   63.5336    8.8456  C     
4    C        -0.0200   65.7215    8.0570  C     
5    C        -0.5134   67.0054    7.9029  C     
6    C         0.3977   67.5936    7.0352  C     
7    N         2.8492   64.2911    6.4778  N     
8    C         3.7940   63.3407    6.1975  C     
9    C         4.5812   63.6681    5.0673  C     
10   C         4.0765   62.0935    6.8437  C     
11   C         5.1380   61.2821    6.4029  C     
12   C         5.9178   61.6434    5.2894  C     
13   C         5.6186   62.8387    4.6164  C     
14   S         7.1980   60.5947    4.7409  S     
15   O         7.8391   61.1347    3.3870  O     
16   O         8.3262   60.7250    5.8562  O     
17   N         6.7852   58.9594    4.5845  N     
18   C         5.4766   58.5303    4.9909  C     
19   C         7.8544   58.0054    4.4763  C     
20   N         1.1012   65.5696    7.3170  N     
21   N        -0.4922   64.7058    8.8132  N     
22   N         1.3503   66.6957    6.7096  N     
23   N        -0.2568   62.4729    9.5580  N     
24   C        -1.3460   62.4960   10.4867  C     
25   C        -0.8905   63.2921   11.7402  C     
26   C        -1.7847   61.0393   10.8272  C     
27   C        -2.8000   60.9926   12.0028  C     
28   C        -2.2175   61.7045   13.2604  C     
29   C        -1.9047   63.1867   12.9014  C     
30   C        -1.7052   67.6123    8.5499  C     
31   C        -2.9952   66.8207    8.1904  C     
32   C        -1.5040   67.7267   10.0860  C     
33   N        -3.0651   61.6860   14.4781  N     
34   C        -3.5916   60.4057   14.9983  C     
35   C        -2.6235   59.2002   14.9172  C     
36   H         1.9285   62.6361    8.2591  H     
37   H         0.3656   68.5656    6.7135  H     
38   H         2.9381   65.0676    5.9085  H     
39   H         4.4062   64.5200    4.5294  H     
40   H         3.5456   61.7150    7.6293  H     
41   H         5.3177   60.3956    6.8887  H     
42   H         6.1526   63.1188    3.7922  H     
43   H         5.4479   58.4312    6.0799  H     
44   H         5.2187   57.5675    4.5410  H     
45   H         4.7109   59.2514    4.6867  H     
46   H         8.6438   58.3664    3.8163  H     
47   H         7.5015   57.0569    4.0693  H     
48   H         8.2798   57.8211    5.4634  H     
49   H         0.2672   61.6565    9.4997  H     
50   H        -2.2171   62.9995   10.0536  H     
51   H         0.0721   62.9156   12.0879  H     
52   H        -0.7605   64.3494   11.4821  H     
53   H        -2.2355   60.5818    9.9404  H     
54   H        -0.9045   60.4438   11.0936  H     
55   H        -3.7360   61.4784   11.6991  H     
56   H        -3.0189   59.9455   12.2290  H     
57   H        -1.2809   61.2087   13.5337  H     
58   H        -1.4956   63.7041   13.7677  H     
59   H        -2.8273   63.6980   12.6173  H     
60   H        -1.8315   68.6284    8.1586  H     
61   H        -3.1422   66.8003    7.1082  H     
62   H        -3.8679   67.3004    8.6384  H     
63   H        -2.9427   65.7945    8.5562  H     
64   H        -1.4514   66.7373   10.5491  H     
65   H        -2.3314   68.2785   10.5387  H     
66   H        -0.5773   68.2624   10.3070  H     
67   H        -2.4998   62.1053   15.2154  H     
68   H        -3.8561   62.3061   14.3187  H     
69   H        -3.8362   60.5761   16.0491  H     
70   H        -4.5212   60.1639   14.4895  H     
71   H        -2.5728   58.8056   13.9002  H     
72   H        -2.9724   58.3978   15.5773  H     
73   H        -1.6184   59.5008   15.2247  H     
@<TRIPOS>BOND
     1    1    2 2
     2    1    7 1
     3    1   20 1
     4    2    3 1
     5    3   21 2
     6    3   23 1
     7    4    5 2
     8    4   20 1
     9    4   21 1
    10    5    6 1
    11    5   30 1
    12    6   22 2
    13    7    8 1
    14    8    9 1
    15    8   10 2
    16    9   13 2
    17   10   11 1
    18   11   12 2
    19   12   13 1
    20   12   14 1
    21   14   15 2
    22   14   16 2
    23   14   17 1
    24   17   18 1
    25   17   19 1
    26   20   22 1
    27   24   23 1
    28   24   25 1
    29   24   26 1
    30   25   29 1
    31   26   27 1
    32   27   28 1
    33   28   29 1
    34   28   33 1
    35   30   31 1
    36   30   32 1
    37   33   34 1
    38   34   35 1
    39    2   36 1
    40    6   37 1
    41    7   38 1
    42    9   39 1
    43   10   40 1
    44   11   41 1
    45   13   42 1
    46   18   43 1
    47   18   44 1
    48   18   45 1
    49   19   46 1
    50   19   47 1
    51   19   48 1
    52   23   49 1
    53   24   50 1
    54   25   51 1
    55   25   52 1
    56   26   53 1
    57   26   54 1
    58   27   55 1
    59   27   56 1
    60   28   57 1
    61   29   58 1
    62   29   59 1
    63   30   60 1
    64   31   61 1
    65   31   62 1
    66   31   63 1
    67   32   64 1
    68   32   65 1
    69   32   66 1
    70   33   67 1
    71   33   68 1
    72   34   69 1
    73   34   70 1
    74   35   71 1
    75   35   72 1
    76   35   73 1
@<TRIPOS>PROPERTY_DATA
  Total_Score	| 10.6563
  Crash		| -3.2022
  Polar		| 4.3766
  FragIndex	| 1
  FragRMSD	| 0.858

