@<TRIPOS>MOLECULE
BindingDB_11435
 66 69 0 0 0
SMALL
NO_CHARGES


@<TRIPOS>ATOM
1    C         1.8345   64.5673    7.3178  C     
2    C         1.3481   63.4459    7.9108  C     
3    C         0.1690   63.4991    8.6224  C     
4    C        -0.0547   65.7546    8.0863  C     
5    C        -0.5933   67.0283    7.9804  C     
6    C         0.3625   67.7210    7.2422  C     
7    N         2.8730   64.5741    6.4560  N     
8    C         3.9413   63.7475    6.3033  C     
9    C         4.4778   63.6966    4.9938  C     
10   C         4.5408   62.9583    7.3085  C     
11   C         5.5694   62.0535    6.9943  C     
12   C         6.0059   61.9152    5.6564  C     
13   C         5.4852   62.7646    4.6675  C     
14   S         7.1197   60.6509    5.2586  S     
15   O         7.4921   60.6190    3.7085  O     
16   O         8.4953   60.9629    5.9849  O     
17   N         6.5145   59.1420    5.7261  N     
18   C         7.2816   58.3313    6.6276  C     
19   C         5.4131   58.5951    4.9760  C     
20   N         1.1216   65.7224    7.4175  N     
21   N        -0.5287   64.6314    8.6853  N     
22   N         1.3793   66.8957    6.9253  N     
23   C        -1.1392   62.3893   10.3308  C     
24   C        -0.3817   62.9081   11.5909  C     
25   C        -1.7018   60.9528   10.6032  C     
26   C        -2.6309   60.9384   11.8549  C     
27   C        -1.9144   61.5122   13.1139  C     
28   C        -1.3026   62.9096   12.8399  C     
29   C        -1.8846   67.5338    8.5058  C     
30   C        -3.0857   66.6477    8.0651  C     
31   C        -1.8404   67.7103   10.0435  C     
32   N        -2.8300   61.5932   14.2625  N     
33   O        -0.3025   62.3504    9.1512  O     
34   H         1.7622   62.5469    7.7482  H     
35   H         0.3055   68.7065    6.9807  H     
36   H         2.8872   65.3366    5.8299  H     
37   H         4.0865   64.2790    4.2407  H     
38   H         4.2471   63.0565    8.2847  H     
39   H         5.9534   61.4726    7.7369  H     
40   H         5.7859   62.6847    3.6845  H     
41   H         8.2333   58.0631    6.1665  H     
42   H         6.7648   57.4055    6.8959  H     
43   H         7.4672   58.8812    7.5480  H     
44   H         4.6933   59.3737    4.6982  H     
45   H         4.8679   57.8415    5.5570  H     
46   H         5.7924   58.1230    4.0637  H     
47   H        -2.0058   63.0311   10.1364  H     
48   H         0.4922   62.2846   11.7912  H     
49   H        -0.0372   63.9290   11.4189  H     
50   H        -2.2680   60.6189    9.7329  H     
51   H        -0.8776   60.2519   10.7571  H     
52   H        -3.5259   61.5305   11.6478  H     
53   H        -2.9492   59.9104   12.0485  H     
54   H        -1.1081   60.8224   13.3918  H     
55   H        -0.7133   63.2358   13.6994  H     
56   H        -2.1079   63.6409   12.6905  H     
57   H        -2.0579   68.5294    8.0834  H     
58   H        -3.1369   66.5892    6.9750  H     
59   H        -4.0320   67.0740    8.4213  H     
60   H        -3.0026   65.6378    8.4671  H     
61   H        -1.6735   66.7548   10.5494  H     
62   H        -2.7835   68.1327   10.4091  H     
63   H        -1.0366   68.3982   10.3275  H     
64   H        -3.5738   62.2718   14.0784  H     
65   H        -2.3016   61.9084   15.0788  H     
66   H        -3.2378   60.6708   14.4513  H     
@<TRIPOS>BOND
     1    1    2 2
     2    1    7 1
     3    1   20 1
     4    2    3 1
     5    3   21 2
     6    3   33 1
     7    4    5 2
     8    4   20 1
     9    4   21 1
    10    5    6 1
    11    5   29 1
    12    6   22 2
    13    7    8 1
    14    8    9 1
    15    8   10 2
    16    9   13 2
    17   10   11 1
    18   11   12 2
    19   12   13 1
    20   12   14 1
    21   14   15 2
    22   14   16 2
    23   14   17 1
    24   17   18 1
    25   17   19 1
    26   20   22 1
    27   23   24 1
    28   23   25 1
    29   23   33 1
    30   24   28 1
    31   25   26 1
    32   26   27 1
    33   27   28 1
    34   27   32 1
    35   29   30 1
    36   29   31 1
    37    2   34 1
    38    6   35 1
    39    7   36 1
    40    9   37 1
    41   10   38 1
    42   11   39 1
    43   13   40 1
    44   18   41 1
    45   18   42 1
    46   18   43 1
    47   19   44 1
    48   19   45 1
    49   19   46 1
    50   23   47 1
    51   24   48 1
    52   24   49 1
    53   25   50 1
    54   25   51 1
    55   26   52 1
    56   26   53 1
    57   27   54 1
    58   28   55 1
    59   28   56 1
    60   29   57 1
    61   30   58 1
    62   30   59 1
    63   30   60 1
    64   31   61 1
    65   31   62 1
    66   31   63 1
    67   32   64 1
    68   32   65 1
    69   32   66 1
@<TRIPOS>PROPERTY_DATA
  Total_Score	| 10.9795
  Crash		| -1.5133
  Polar		| 3.5978
  FragIndex	| 1
  FragRMSD	| 0.371

