@<TRIPOS>MOLECULE
BindingDB_11436
 67 70 0 0 0
SMALL
NO_CHARGES


@<TRIPOS>ATOM
1    C         1.7918   64.5504    7.2668  C     
2    C         1.4775   63.4605    8.0151  C     
3    C         0.3862   63.4924    8.8932  C     
4    C        -0.0783   65.6845    8.1663  C     
5    C        -0.7081   66.9106    8.0152  C     
6    C         0.0923   67.5801    7.0958  C     
7    N         2.7599   64.5599    6.3328  N     
8    C         3.8724   63.7903    6.2171  C     
9    C         4.4295   63.0338    7.2764  C     
10   C         4.4980   63.7424    4.9521  C     
11   C         5.5433   62.8382    4.7020  C     
12   C         6.0319   62.0108    5.7384  C     
13   C         5.4882   62.1434    7.0353  C     
14   S         7.2000   60.7602    5.3991  S     
15   O         7.5103   60.7948    3.8386  O     
16   O         8.5479   61.1012    6.1640  O     
17   N         6.6912   59.2007    5.8286  N     
18   C         5.7496   59.0500    6.9028  C     
19   C         7.5578   58.1057    5.4917  C     
20   N         1.0029   65.6474    7.3557  N     
21   N        -0.3925   64.6132    8.9390  N     
22   N         1.1127   66.7833    6.7288  N     
23   C        -1.0067   62.2331   10.5399  C     
24   C        -0.5428   61.9080   11.9884  C     
25   C        -1.9123   61.0936   10.0001  C     
26   C        -3.1542   60.9010   10.9065  C     
27   C        -2.7474   60.6069   12.3738  C     
28   C        -1.7409   61.6420   12.9529  C     
29   C        -1.9608   67.4053    8.6448  C     
30   C        -3.1706   66.5112    8.2561  C     
31   C        -1.8105   67.5421   10.1818  C     
32   N         0.1135   62.3971    9.6509  N     
33   N        -2.4282   62.8920   13.3250  N     
34   H         2.0030   62.6157    7.9221  H     
35   H        -0.0588   68.5280    6.7509  H     
36   H         2.6118   65.1796    5.5979  H     
37   H         4.0290   63.1149    8.2217  H     
38   H         4.1333   64.3048    4.1753  H     
39   H         5.9183   62.7566    3.7529  H     
40   H         5.8221   61.5600    7.8107  H     
41   H         6.1964   59.4010    7.8405  H     
42   H         5.4295   58.0107    7.0359  H     
43   H         4.8455   59.6228    6.6966  H     
44   H         7.9254   58.1956    4.4685  H     
45   H         7.0458   57.1471    5.5574  H     
46   H         8.4147   58.0942    6.1664  H     
47   H        -1.6085   63.1469   10.5816  H     
48   H         0.0915   61.0184   11.9683  H     
49   H         0.0576   62.7342   12.3764  H     
50   H        -2.2375   61.3322    8.9889  H     
51   H        -1.3545   60.1569    9.9596  H     
52   H        -3.7732   61.7992   10.8734  H     
53   H        -3.7551   60.0744   10.5209  H     
54   H        -3.6466   60.5722   12.9961  H     
55   H        -2.2943   59.6148   12.4126  H     
56   H        -1.3428   61.2316   13.8861  H     
57   H        -2.1696   68.4096    8.2564  H     
58   H        -3.2686   66.4621    7.1649  H     
59   H        -4.0931   66.9264    8.6594  H     
60   H        -3.0528   65.5011    8.6394  H     
61   H        -1.6061   66.5693   10.6440  H     
62   H        -2.7323   67.9395   10.6187  H     
63   H        -0.9974   68.2240   10.4245  H     
64   H         0.7069   61.6337    9.5520  H     
65   H        -1.8213   63.4244   13.9515  H     
66   H        -3.3018   62.6783   13.8167  H     
67   H        -2.6381   63.4434   12.4930  H     
@<TRIPOS>BOND
     1    1    2 2
     2    1    7 1
     3    1   20 1
     4    2    3 1
     5    3   21 2
     6    3   32 1
     7    4    5 2
     8    4   20 1
     9    4   21 1
    10    5    6 1
    11    5   29 1
    12    6   22 2
    13    7    8 1
    14    8    9 1
    15    8   10 2
    16    9   13 2
    17   10   11 1
    18   11   12 2
    19   12   13 1
    20   12   14 1
    21   14   15 2
    22   14   16 2
    23   14   17 1
    24   17   18 1
    25   17   19 1
    26   20   22 1
    27   23   24 1
    28   23   25 1
    29   23   32 1
    30   24   28 1
    31   25   26 1
    32   26   27 1
    33   27   28 1
    34   28   33 1
    35   29   30 1
    36   29   31 1
    37    2   34 1
    38    6   35 1
    39    7   36 1
    40    9   37 1
    41   10   38 1
    42   11   39 1
    43   13   40 1
    44   18   41 1
    45   18   42 1
    46   18   43 1
    47   19   44 1
    48   19   45 1
    49   19   46 1
    50   23   47 1
    51   24   48 1
    52   24   49 1
    53   25   50 1
    54   25   51 1
    55   26   52 1
    56   26   53 1
    57   27   54 1
    58   27   55 1
    59   28   56 1
    60   29   57 1
    61   30   58 1
    62   30   59 1
    63   30   60 1
    64   31   61 1
    65   31   62 1
    66   31   63 1
    67   32   64 1
    68   33   65 1
    69   33   66 1
    70   33   67 1
@<TRIPOS>PROPERTY_DATA
  Total_Score	| 11.1183
  Crash		| -1.5501
  Polar		| 2.0660
  FragIndex	| 1
  FragRMSD	| 0.632

