@<TRIPOS>MOLECULE
BindingDB_11428
 67 70 0 0 0
SMALL
NO_CHARGES


@<TRIPOS>ATOM
1    C         1.6923   64.5269    7.2048  C     
2    C         1.2359   63.4109    7.8374  C     
3    C         0.1109   63.5065    8.6776  C     
4    C        -0.0906   65.7824    8.1242  C     
5    C        -0.5948   67.0726    8.0391  C     
6    C         0.3091   67.7271    7.2145  C     
7    N         2.6900   64.5248    6.3017  N     
8    C         3.7976   63.7496    6.1988  C     
9    C         4.4845   63.7726    4.9647  C     
10   C         4.2759   62.8971    7.2256  C     
11   C         5.3137   61.9775    6.9680  C     
12   C         5.9311   61.9341    5.6953  C     
13   C         5.5383   62.8794    4.7182  C     
14   S         7.0824   60.6811    5.3177  S     
15   O         7.6129   60.7763    3.8234  O     
16   O         8.3386   60.9906    6.2427  O     
17   N         6.5100   59.1092    5.5970  N     
18   C         7.4805   58.0541    5.6418  C     
19   C         5.1814   58.8045    5.1449  C     
20   N         1.0202   65.6992    7.3583  N     
21   N        -0.5463   64.6969    8.7947  N     
22   N         1.2652   66.8619    6.8260  N     
23   C        -1.8295   67.6216    8.6546  C     
24   C        -3.0811   66.8140    8.2210  C     
25   C        -1.7042   67.7191   10.1968  C     
26   N        -0.3139   62.4084    9.3591  N     
27   C        -1.3433   62.4192   10.3585  C     
28   C        -0.8378   63.1529   11.6402  C     
29   C        -1.7976   60.9676   10.6923  C     
30   C        -2.8067   60.9107   11.8720  C     
31   C        -2.2287   61.6153   13.1310  C     
32   C        -1.8534   63.0844   12.8039  C     
33   N        -3.1617   61.5850   14.2677  N     
34   H         1.7267   62.5233    7.6971  H     
35   H         0.2531   68.7070    6.9449  H     
36   H         2.5813   65.1719    5.5787  H     
37   H         4.1796   64.4142    4.2162  H     
38   H         3.7775   62.9193    8.1361  H     
39   H         5.5842   61.3143    7.6994  H     
40   H         5.9777   62.8901    3.7949  H     
41   H         7.8553   57.8543    4.6335  H     
42   H         7.0402   57.1353    6.0383  H     
43   H         8.3247   58.3117    6.2860  H     
44   H         4.4695   59.5859    5.4159  H     
45   H         4.8225   57.8762    5.5947  H     
46   H         5.1746   58.6902    4.0584  H     
47   H        -1.9710   68.6407    8.2846  H     
48   H        -3.2059   66.8619    7.1355  H     
49   H        -3.9776   67.2238    8.6877  H     
50   H        -2.9978   65.7671    8.5201  H     
51   H        -1.6424   66.7260   10.6490  H     
52   H        -2.5708   68.2418   10.6106  H     
53   H        -0.8094   68.2834   10.4668  H     
54   H         0.1654   61.5733    9.2093  H     
55   H        -2.2204   62.9446    9.9646  H     
56   H         0.1041   62.6990   11.9634  H     
57   H        -0.6393   64.2056   11.4222  H     
58   H        -2.2556   60.5163    9.8079  H     
59   H        -0.9211   60.3709   10.9538  H     
60   H        -3.7453   61.3916   11.5822  H     
61   H        -3.0288   59.8654   12.1108  H     
62   H        -1.3320   61.0753   13.4503  H     
63   H        -1.4102   63.5578   13.6804  H     
64   H        -2.7529   63.6482   12.5425  H     
65   H        -3.9738   62.1752   14.0780  H     
66   H        -2.6721   61.9584   15.0879  H     
67   H        -3.4629   60.6223   14.4485  H     
@<TRIPOS>BOND
     1    1    2 2
     2    1    7 1
     3    1   20 1
     4    2    3 1
     5    3   21 2
     6    3   26 1
     7    4    5 2
     8    4   20 1
     9    4   21 1
    10    5    6 1
    11    5   23 1
    12    6   22 2
    13    7    8 1
    14    8    9 1
    15    8   10 2
    16    9   13 2
    17   10   11 1
    18   11   12 2
    19   12   13 1
    20   12   14 1
    21   14   15 2
    22   14   16 2
    23   14   17 1
    24   17   18 1
    25   17   19 1
    26   20   22 1
    27   23   24 1
    28   23   25 1
    29   27   26 1
    30   27   28 1
    31   27   29 1
    32   28   32 1
    33   29   30 1
    34   30   31 1
    35   31   32 1
    36   31   33 1
    37    2   34 1
    38    6   35 1
    39    7   36 1
    40    9   37 1
    41   10   38 1
    42   11   39 1
    43   13   40 1
    44   18   41 1
    45   18   42 1
    46   18   43 1
    47   19   44 1
    48   19   45 1
    49   19   46 1
    50   23   47 1
    51   24   48 1
    52   24   49 1
    53   24   50 1
    54   25   51 1
    55   25   52 1
    56   25   53 1
    57   26   54 1
    58   27   55 1
    59   28   56 1
    60   28   57 1
    61   29   58 1
    62   29   59 1
    63   30   60 1
    64   30   61 1
    65   31   62 1
    66   32   63 1
    67   32   64 1
    68   33   65 1
    69   33   66 1
    70   33   67 1
@<TRIPOS>PROPERTY_DATA
  Total_Score	| 11.1699
  Crash		| -1.7518
  Polar		| 3.1148
  FragIndex	| 1
  FragRMSD	| 0.681

