@<TRIPOS>MOLECULE
BindingDB_50325166
 38 41 0 0 0
SMALL
NO_CHARGES


@<TRIPOS>ATOM
1    C         0.6715   -5.1136   19.4097  C     
2    C         0.7954   -4.0502   20.3276  C     
3    C         2.0042   -3.3183   20.3512  C     
4    C         1.7157   -5.4240   18.5265  C     
5    C         2.9301   -4.6960   18.5340  C     
6    C         3.0766   -3.6240   19.4769  C     
7    C         5.1686   -4.3038   17.7530  C     
8    C         4.0078   -4.9918   17.6494  C     
9    C         5.2807   -3.2700   18.6556  C     
10   N         4.2753   -2.9246   19.4876  N     
11   C         4.7345   -1.8823   20.1587  C     
12   N         5.9520   -1.6031   19.7532  N     
13   N         6.3169   -2.4348   18.8348  N     
14   O         4.1681   -1.2263   21.0192  O     
15   C         3.8812   -6.0007   16.5947  C     
16   C        -0.2758   -3.7262   21.2123  C     
17   C        -0.7090   -2.3857   21.3589  C     
18   C        -1.7520   -2.0613   22.2417  C     
19   C        -2.4029   -3.0578   23.0031  C     
20   C        -1.9663   -4.3972   22.8590  C     
21   C        -0.9216   -4.7270   21.9740  C     
22   C        -3.5057   -2.7007   23.9335  C     
23   C        -4.6335   -2.3336   23.2526  C     
24   N        -5.5711   -2.0200   22.6615  N     
25   H        -0.1891   -5.6684   19.3630  H     
26   H         2.1114   -2.5642   21.0322  H     
27   H         1.5678   -6.1963   17.8739  H     
28   H         5.9432   -4.4926   17.1603  H     
29   H         6.4965   -0.8653   20.0808  H     
30   H         3.6826   -6.9784   17.0362  H     
31   H         4.7781   -6.1029   15.9769  H     
32   H         3.0542   -5.7380   15.9301  H     
33   H        -0.2748   -1.6388   20.8119  H     
34   H        -2.0394   -1.0808   22.3234  H     
35   H        -2.4149   -5.1431   23.3924  H     
36   H        -0.6234   -5.7065   21.9068  H     
37   H        -3.7596   -3.5387   24.5889  H     
38   H        -3.1911   -1.8612   24.5640  H     
@<TRIPOS>BOND
     1    1    2 2
     2    1    4 1
     3    2    3 1
     4    2   16 1
     5    3    6 2
     6    4    5 2
     7    5    6 1
     8    5    8 1
     9    6   10 1
    10    7    8 2
    11    7    9 1
    12    8   15 1
    13    9   10 1
    14    9   13 2
    15   10   11 1
    16   11   12 1
    17   11   14 2
    18   12   13 1
    19   16   17 2
    20   16   21 1
    21   17   18 1
    22   18   19 2
    23   19   20 1
    24   19   22 1
    25   20   21 2
    26   22   23 1
    27   23   24 3
    28    1   25 1
    29    3   26 1
    30    4   27 1
    31    7   28 1
    32   12   29 1
    33   15   30 1
    34   15   31 1
    35   15   32 1
    36   17   33 1
    37   18   34 1
    38   20   35 1
    39   21   36 1
    40   22   37 1
    41   22   38 1
@<TRIPOS>PROPERTY_DATA
  Total_Score	| 4.1474
  Crash		| -0.2518
  Polar		| 1.5086
  FragIndex	| 1
  FragRMSD	| 0.593

