@<TRIPOS>MOLECULE
BindingDB_50325169
 38 41 0 0 0
SMALL
NO_CHARGES


@<TRIPOS>ATOM
1    C         0.7314   -5.1263   19.3148  C     
2    C         0.8363   -4.1141   20.2919  C     
3    C         2.0333   -3.3661   20.3386  C     
4    C         1.7882   -5.3960   18.4311  C     
5    C         3.0012   -4.6611   18.4773  C     
6    C         3.1105   -3.6145   19.4489  C     
7    C         5.2555   -4.2373   17.7608  C     
8    C         4.1056   -4.9363   17.6176  C     
9    C         5.3327   -3.2144   18.6795  C     
10   N         4.2997   -2.8980   19.4907  N     
11   C         4.7119   -1.8453   20.1795  C     
12   N         5.9424   -1.5459   19.8195  N     
13   N         6.3526   -2.3672   18.8985  N     
14   O         4.1046   -1.1962   21.0189  O     
15   C         4.0332   -5.9523   16.5679  C     
16   C        -0.2239   -3.8909   21.2228  C     
17   C        -0.7314   -2.5911   21.4828  C     
18   C        -1.7678   -2.3935   22.4180  C     
19   C        -2.3195   -3.4830   23.1337  C     
20   C        -1.8340   -4.7817   22.8698  C     
21   C        -0.7883   -4.9754   21.9470  C     
22   C        -3.4107   -3.2976   24.1094  C     
23   O        -3.3006   -4.2091   25.2194  O     
24   H        -0.1215   -5.6831   19.2412  H     
25   H         2.1362   -2.6559   21.0604  H     
26   H         1.6502   -6.1553   17.7560  H     
27   H         6.0489   -4.4129   17.1884  H     
28   H         6.4676   -0.8079   20.1756  H     
29   H         3.8470   -6.9343   17.0190  H     
30   H         4.9427   -6.0336   15.9714  H     
31   H         3.2186   -5.7206   15.8786  H     
32   H        -0.3624   -1.7716   20.9959  H     
33   H        -2.1220   -1.4420   22.5805  H     
34   H        -2.2172   -5.5962   23.3633  H     
35   H        -0.4081   -5.9224   21.8343  H     
36   H        -3.4287   -2.2758   24.4997  H     
37   H        -4.3638   -3.4716   23.5827  H     
38   H        -4.1090   -4.0290   25.7710  H     
@<TRIPOS>BOND
     1    1    2 2
     2    1    4 1
     3    2    3 1
     4    2   16 1
     5    3    6 2
     6    4    5 2
     7    5    6 1
     8    5    8 1
     9    6   10 1
    10    7    8 2
    11    7    9 1
    12    8   15 1
    13    9   10 1
    14    9   13 2
    15   10   11 1
    16   11   12 1
    17   11   14 2
    18   12   13 1
    19   16   17 2
    20   16   21 1
    21   17   18 1
    22   18   19 2
    23   19   20 1
    24   19   22 1
    25   20   21 2
    26   22   23 1
    27    1   24 1
    28    3   25 1
    29    4   26 1
    30    7   27 1
    31   12   28 1
    32   15   29 1
    33   15   30 1
    34   15   31 1
    35   17   32 1
    36   18   33 1
    37   20   34 1
    38   21   35 1
    39   22   36 1
    40   22   37 1
    41   23   38 1
@<TRIPOS>PROPERTY_DATA
  Total_Score	| 5.1472
  Crash		| -0.3017
  Polar		| 2.7122
  FragIndex	| 1
  FragRMSD	| 0.290

