@<TRIPOS>MOLECULE
BindingDB_50379571
 34 37 0 0 0
SMALL
NO_CHARGES


@<TRIPOS>ATOM
1    C         0.8654   -5.1559   19.2599  C     
2    C         0.9405   -4.1007   20.1998  C     
3    C         2.1387   -3.3494   20.2522  C     
4    C         1.9311   -5.4413   18.3960  C     
5    C         3.1389   -4.6954   18.4408  C     
6    C         3.2301   -3.6243   19.3921  C     
7    C         5.3862   -4.2366   17.7255  C     
8    C         4.2566   -4.9741   17.5964  C     
9    C         4.8229   -1.8532   20.1395  C     
10   N         6.0508   -1.5442   19.7757  N     
11   N         6.4564   -2.3545   18.8548  N     
12   C         5.4434   -3.2050   18.6383  C     
13   N         4.4102   -2.8947   19.4426  N     
14   O         4.2239   -1.2176   20.9889  O     
15   C         4.2288   -6.0186   16.5533  C     
16   O         3.5559   -5.5424   15.3860  O     
17   C        -0.1488   -3.7942   21.0648  C     
18   C        -0.6021   -2.4574   21.2074  C     
19   C        -1.6764   -2.1741   22.0663  C     
20   N        -2.2678   -3.1777   22.7638  N     
21   C        -1.8721   -4.4686   22.6627  C     
22   C        -0.8010   -4.8065   21.8053  C     
23   H         0.0122   -5.7166   19.1915  H     
24   H         2.2174   -2.6077   20.9486  H     
25   H         1.8090   -6.2148   17.7427  H     
26   H         6.1770   -4.3982   17.1452  H     
27   H         6.5754   -0.8066   20.1412  H     
28   H         5.2322   -6.3095   16.2221  H     
29   H         3.7528   -6.9233   16.9403  H     
30   H         2.6066   -5.7840   15.4461  H     
31   H        -0.1696   -1.6939   20.6840  H     
32   H        -2.0153   -1.2135   22.1715  H     
33   H        -2.3409   -5.1862   23.2122  H     
34   H        -0.4987   -5.7815   21.7523  H     
@<TRIPOS>BOND
     1    1    2 2
     2    1    4 1
     3    2    3 1
     4    2   17 1
     5    3    6 2
     6    4    5 2
     7    5    6 1
     8    5    8 1
     9    6   13 1
    10    7    8 2
    11    7   12 1
    12    8   15 1
    13    9   10 1
    14    9   13 1
    15    9   14 2
    16   10   11 1
    17   11   12 2
    18   12   13 1
    19   15   16 1
    20   17   18 2
    21   17   22 1
    22   18   19 1
    23   19   20 2
    24   20   21 1
    25   21   22 2
    26    1   23 1
    27    3   24 1
    28    4   25 1
    29    7   26 1
    30   10   27 1
    31   15   28 1
    32   15   29 1
    33   16   30 1
    34   18   31 1
    35   19   32 1
    36   21   33 1
    37   22   34 1
@<TRIPOS>PROPERTY_DATA
  Total_Score	| 5.1717
  Crash		| -0.3153
  Polar		| 2.8146
  FragIndex	| 1
  FragRMSD	| 0.693

