@<TRIPOS>MOLECULE
BindingDB_50325149
 38 41 0 0 0
SMALL
NO_CHARGES


@<TRIPOS>ATOM
1    C         0.8041   -5.1599   19.4356  C     
2    C         0.8855   -4.0655   20.3191  C     
3    C         2.0833   -3.3157   20.3389  C     
4    C         1.8712   -5.4794   18.5784  C     
5    C         3.0708   -4.7213   18.5776  C     
6    C         3.1744   -3.6218   19.4906  C     
7    C         5.3026   -4.2654   17.7960  C     
8    C         4.1730   -5.0066   17.7133  C     
9    C         5.3779   -3.2154   18.6866  C     
10   N         4.3555   -2.8934   19.5025  N     
11   C         4.7792   -1.8352   20.1779  C     
12   N         5.9974   -1.5393   19.7901  N     
13   N         6.3935   -2.3631   18.8772  N     
14   O         4.1899   -1.1873   21.0262  O     
15   C         4.1146   -6.0770   16.7162  C     
16   C        -0.2006   -3.7156   21.1743  C     
17   C        -0.6491   -2.3735   21.2553  C     
18   C        -1.6894   -2.0108   22.1263  C     
19   C        -2.2883   -2.9779   22.9593  C     
20   C        -1.8691   -4.3189   22.8705  C     
21   C        -0.8386   -4.6850   21.9850  C     
22   O        -3.3057   -2.6522   23.8177  O     
23   C        -2.8528   -2.0158   25.0296  C     
24   H        -0.0499   -5.7246   19.3896  H     
25   H         2.1610   -2.5407   20.9982  H     
26   H         1.7503   -6.2761   17.9521  H     
27   H         6.0884   -4.4413   17.2139  H     
28   H         6.5255   -0.7958   20.1332  H     
29   H         3.9671   -7.0344   17.2154  H     
30   H         5.0199   -6.1630   16.1103  H     
31   H         3.2829   -5.8980   16.0317  H     
32   H        -0.2229   -1.6442   20.6751  H     
33   H        -2.0017   -1.0373   22.1678  H     
34   H        -2.3074   -5.0316   23.4596  H     
35   H        -0.5369   -5.6637   21.9595  H     
36   H        -2.1246   -2.6336   25.5669  H     
37   H        -3.7189   -1.8695   25.6760  H     
38   H        -2.4155   -1.0355   24.8154  H     
@<TRIPOS>BOND
     1    1    2 2
     2    1    4 1
     3    2    3 1
     4    2   16 1
     5    3    6 2
     6    4    5 2
     7    5    6 1
     8    5    8 1
     9    6   10 1
    10    7    8 2
    11    7    9 1
    12    8   15 1
    13    9   10 1
    14    9   13 2
    15   10   11 1
    16   11   12 1
    17   11   14 2
    18   12   13 1
    19   16   17 2
    20   16   21 1
    21   17   18 1
    22   18   19 2
    23   19   20 1
    24   19   22 1
    25   20   21 2
    26   22   23 1
    27    1   24 1
    28    3   25 1
    29    4   26 1
    30    7   27 1
    31   12   28 1
    32   15   29 1
    33   15   30 1
    34   15   31 1
    35   17   32 1
    36   18   33 1
    37   20   34 1
    38   21   35 1
    39   23   36 1
    40   23   37 1
    41   23   38 1
@<TRIPOS>PROPERTY_DATA
  Total_Score	| 4.4539
  Crash		| -0.3634
  Polar		| 1.6241
  FragIndex	| 1
  FragRMSD	| 0.201

