@<TRIPOS>MOLECULE
BindingDB_50325167
 41 44 0 0 0
SMALL
NO_CHARGES


@<TRIPOS>ATOM
1    C         0.7647   -5.1737   19.3343  C     
2    C         0.8474   -4.1447   20.2978  C     
3    C         2.0379   -3.3849   20.3406  C     
4    C         1.8293   -5.4470   18.4592  C     
5    C         3.0266   -4.6904   18.4997  C     
6    C         3.1249   -3.6347   19.4652  C     
7    C         5.2687   -4.2183   17.7654  C     
8    C         4.1293   -4.9345   17.6320  C     
9    C         5.3309   -3.1931   18.6895  C     
10   N         4.2974   -2.8954   19.5037  N     
11   C         4.7032   -1.8378   20.1830  C     
12   N         5.9225   -1.5152   19.8074  N     
13   N         6.3331   -2.3262   18.8911  N     
14   O         4.0892   -1.1969   21.0205  O     
15   C         4.0636   -5.9325   16.5620  C     
16   C        -0.2162   -3.9080   21.2268  C     
17   C        -0.7126   -2.6056   21.4866  C     
18   C        -1.7266   -2.3855   22.4347  C     
19   C        -2.2990   -3.4686   23.1422  C     
20   C        -1.8297   -4.7709   22.8721  C     
21   C        -0.7963   -4.9822   21.9478  C     
22   C        -3.4128   -3.2692   24.1008  C     
23   O        -3.2494   -4.1688   25.2251  O     
24   C        -4.2692   -4.0472   26.2280  C     
25   H        -0.0825   -5.7456   19.2526  H     
26   H         2.1254   -2.6615   21.0534  H     
27   H         1.7129   -6.2091   17.7949  H     
28   H         6.0641   -4.3760   17.1846  H     
29   H         6.4302   -0.7596   20.1452  H     
30   H         3.9467   -6.9305   16.9913  H     
31   H         4.9518   -5.9570   15.9209  H     
32   H         3.2090   -5.7214   15.9127  H     
33   H        -0.3362   -1.7973   20.9753  H     
34   H        -2.0516   -1.4331   22.5955  H     
35   H        -2.2211   -5.5784   23.3650  H     
36   H        -0.4433   -5.9421   21.8219  H     
37   H        -3.4421   -2.2358   24.4575  H     
38   H        -4.3501   -3.4869   23.5838  H     
39   H        -4.2363   -3.0607   26.6984  H     
40   H        -4.0855   -4.8030   26.9947  H     
41   H        -5.2647   -4.2197   25.8064  H     
@<TRIPOS>BOND
     1    1    2 2
     2    1    4 1
     3    2    3 1
     4    2   16 1
     5    3    6 2
     6    4    5 2
     7    5    6 1
     8    5    8 1
     9    6   10 1
    10    7    8 2
    11    7    9 1
    12    8   15 1
    13    9   10 1
    14    9   13 2
    15   10   11 1
    16   11   12 1
    17   11   14 2
    18   12   13 1
    19   16   17 2
    20   16   21 1
    21   17   18 1
    22   18   19 2
    23   19   20 1
    24   19   22 1
    25   20   21 2
    26   22   23 1
    27   23   24 1
    28    1   25 1
    29    3   26 1
    30    4   27 1
    31    7   28 1
    32   12   29 1
    33   15   30 1
    34   15   31 1
    35   15   32 1
    36   17   33 1
    37   18   34 1
    38   20   35 1
    39   21   36 1
    40   22   37 1
    41   22   38 1
    42   24   39 1
    43   24   40 1
    44   24   41 1
@<TRIPOS>PROPERTY_DATA
  Total_Score	| 5.3038
  Crash		| -0.3022
  Polar		| 2.7400
  FragIndex	| 1
  FragRMSD	| 0.291

