@<TRIPOS>MOLECULE
BindingDB_50325145
 31 34 0 0 0
SMALL
NO_CHARGES


@<TRIPOS>ATOM
1    C         0.8108   -5.2089   19.4917  C     
2    C         0.8769   -4.0898   20.3439  C     
3    C         2.0539   -3.3093   20.3459  C     
4    C         1.8841   -5.5216   18.6417  C     
5    C         3.0735   -4.7457   18.6252  C     
6    C         3.1583   -3.6248   19.5155  C     
7    C         5.2891   -4.2646   17.8186  C     
8    C         4.1764   -5.0316   17.7649  C     
9    C         5.3563   -3.2039   18.6963  C     
10   N         4.3328   -2.8840   19.5152  N     
11   C         4.7582   -1.8328   20.1889  C     
12   N         5.9747   -1.5302   19.7942  N     
13   N         6.3722   -2.3458   18.8754  N     
14   O         4.1715   -1.1972   21.0487  O     
15   C         4.1519   -6.1406   16.8087  C     
16   C        -0.2150   -3.7591   21.1855  C     
17   C        -0.8213   -2.5188   21.3372  C     
18   N        -1.8213   -2.6665   22.2199  N     
19   N        -1.8870   -3.8887   22.6439  N     
20   C        -0.9292   -4.6014   22.0297  C     
21   H        -0.0344   -5.7887   19.4588  H     
22   H         2.1006   -2.5113   20.9868  H     
23   H         1.7765   -6.3315   18.0262  H     
24   H         6.0713   -4.4367   17.2278  H     
25   H         6.5051   -0.7928   20.1412  H     
26   H         4.0123   -7.0827   17.3457  H     
27   H         5.0717   -6.2363   16.2186  H     
28   H         3.3265   -5.9954   16.1044  H     
29   H        -0.5814   -1.6544   20.8466  H     
30   H        -2.4169   -1.9529   22.5031  H     
31   H        -0.7385   -5.5930   22.1913  H     
@<TRIPOS>BOND
     1    1    2 2
     2    1    4 1
     3    2    3 1
     4    2   16 1
     5    3    6 2
     6    4    5 2
     7    5    6 1
     8    5    8 1
     9    6   10 1
    10    7    8 2
    11    7    9 1
    12    8   15 1
    13    9   10 1
    14    9   13 2
    15   10   11 1
    16   11   12 1
    17   11   14 2
    18   12   13 1
    19   16   17 2
    20   16   20 1
    21   17   18 1
    22   18   19 1
    23   19   20 2
    24    1   21 1
    25    3   22 1
    26    4   23 1
    27    7   24 1
    28   12   25 1
    29   15   26 1
    30   15   27 1
    31   15   28 1
    32   17   29 1
    33   18   30 1
    34   20   31 1
@<TRIPOS>PROPERTY_DATA
  Total_Score	| 3.9204
  Crash		| -0.3126
  Polar		| 1.6104
  FragIndex	| 1
  FragRMSD	| 0.952

