@<TRIPOS>MOLECULE
BindingDB_50325172
 33 36 0 0 0
SMALL
NO_CHARGES


@<TRIPOS>ATOM
1    C         0.8712   -5.2353   19.4044  C     
2    C         0.9299   -4.1462   20.2999  C     
3    C         2.1046   -3.3584   20.3075  C     
4    C         1.9461   -5.5317   18.5528  C     
5    C         3.1314   -4.7540   18.5595  C     
6    C         3.2038   -3.6424   19.4607  C     
7    C         5.3520   -4.2597   17.7765  C     
8    C         4.2464   -5.0391   17.7144  C     
9    C         5.3995   -3.1988   18.6550  C     
10   N         4.3707   -2.8897   19.4696  N     
11   C         4.7779   -1.8268   20.1427  C     
12   N         5.9963   -1.5157   19.7619  N     
13   N         6.4052   -2.3347   18.8504  N     
14   O         4.1810   -1.1864   20.9929  O     
15   C         4.2364   -6.1645   16.7767  C     
16   C        -0.1680   -3.8524   21.1661  C     
17   C        -0.8496   -4.8749   21.8734  C     
18   C        -1.9348   -4.5716   22.7155  C     
19   C        -2.3396   -3.2332   22.8451  C     
20   N        -1.6802   -2.2627   22.1654  N     
21   C        -0.6282   -2.5249   21.3490  C     
22   H         0.0330   -5.8201   19.3520  H     
23   H         2.1637   -2.5803   20.9644  H     
24   H         1.8423   -6.3315   17.9267  H     
25   H         6.1444   -4.4280   17.1997  H     
26   H         6.5171   -0.7696   20.1114  H     
27   H         4.0934   -7.0954   17.3258  H     
28   H         5.1607   -6.2682   16.2026  H     
29   H         3.4205   -6.0427   16.0620  H     
30   H        -0.5487   -5.8505   21.7943  H     
31   H        -2.4211   -5.3131   23.2239  H     
32   H        -3.1268   -2.9861   23.4465  H     
33   H        -0.1918   -1.7427   20.8567  H     
@<TRIPOS>BOND
     1    1    2 2
     2    1    4 1
     3    2    3 1
     4    2   16 1
     5    3    6 2
     6    4    5 2
     7    5    6 1
     8    5    8 1
     9    6   10 1
    10    7    8 2
    11    7    9 1
    12    8   15 1
    13    9   10 1
    14    9   13 2
    15   10   11 1
    16   11   12 1
    17   11   14 2
    18   12   13 1
    19   16   17 2
    20   16   21 1
    21   17   18 1
    22   18   19 2
    23   19   20 1
    24   20   21 2
    25    1   22 1
    26    3   23 1
    27    4   24 1
    28    7   25 1
    29   12   26 1
    30   15   27 1
    31   15   28 1
    32   15   29 1
    33   17   30 1
    34   18   31 1
    35   19   32 1
    36   21   33 1
@<TRIPOS>PROPERTY_DATA
  Total_Score	| 4.2484
  Crash		| -0.3239
  Polar		| 1.6673
  FragIndex	| 1
  FragRMSD	| 0.267

