@<TRIPOS>MOLECULE
BindingDB_50325170
 38 41 0 0 0
SMALL
NO_CHARGES


@<TRIPOS>ATOM
1    C         0.9062   -5.1783   19.2987  C     
2    C         0.9447   -4.1262   20.2351  C     
3    C         2.1420   -3.3772   20.3486  C     
4    C         2.0548   -5.5245   18.5625  C     
5    C         3.2625   -4.7818   18.6711  C     
6    C         3.2750   -3.6485   19.5455  C     
7    C         5.4990   -4.2434   17.9628  C     
8    C         4.4447   -5.0918   17.9376  C     
9    C         5.4642   -3.1299   18.7718  C     
10   N         4.4097   -2.8495   19.5605  N     
11   C         4.7523   -1.7440   20.1971  C     
12   N         5.9554   -1.3799   19.8187  N     
13   N         6.4231   -2.2098   18.9440  N     
14   O         4.1090   -1.1114   21.0211  O     
15   C         4.5715   -6.3449   17.1961  C     
16   C        -0.1985   -3.7876   21.0253  C     
17   C        -0.5411   -2.4134   21.1307  C     
18   C        -1.6274   -1.9896   21.9112  C     
19   C        -2.4032   -2.9334   22.6003  C     
20   C        -2.0753   -4.3001   22.5208  C     
21   C        -0.9834   -4.7565   21.7336  C     
22   C        -0.6616   -6.2137   21.6922  C     
23   O        -0.8171   -6.8998   22.9353  O     
24   H         0.0353   -5.7113   19.1631  H     
25   H         2.1772   -2.6176   21.0283  H     
26   H         1.9803   -6.3204   17.9244  H     
27   H         6.3218   -4.4195   17.4379  H     
28   H         6.4349   -0.6014   20.1556  H     
29   H         4.4127   -7.1831   17.8806  H     
30   H         5.5555   -6.4779   16.7382  H     
31   H         3.8242   -6.3742   16.3997  H     
32   H         0.0010   -1.7005   20.6362  H     
33   H        -1.8519   -0.9947   21.9847  H     
34   H        -3.1957   -2.6255   23.1710  H     
35   H        -2.6422   -4.9563   23.0611  H     
36   H        -1.2702   -6.7027   20.9291  H     
37   H         0.3818   -6.3448   21.4117  H     
38   H        -1.2355   -7.7592   22.7122  H     
@<TRIPOS>BOND
     1    1    2 2
     2    1    4 1
     3    2    3 1
     4    2   16 1
     5    3    6 2
     6    4    5 2
     7    5    6 1
     8    5    8 1
     9    6   10 1
    10    7    8 2
    11    7    9 1
    12    8   15 1
    13    9   10 1
    14    9   13 2
    15   10   11 1
    16   11   12 1
    17   11   14 2
    18   12   13 1
    19   16   17 2
    20   16   21 1
    21   17   18 1
    22   18   19 2
    23   19   20 1
    24   20   21 2
    25   21   22 1
    26   22   23 1
    27    1   24 1
    28    3   25 1
    29    4   26 1
    30    7   27 1
    31   12   28 1
    32   15   29 1
    33   15   30 1
    34   15   31 1
    35   17   32 1
    36   18   33 1
    37   19   34 1
    38   20   35 1
    39   22   36 1
    40   22   37 1
    41   23   38 1
@<TRIPOS>PROPERTY_DATA
  Total_Score	| 5.9107
  Crash		| -0.8270
  Polar		| 2.9347
  FragIndex	| 1
  FragRMSD	| 0.345

