@<TRIPOS>MOLECULE
BindingDB_50325168
 38 41 0 0 0
SMALL
NO_CHARGES


@<TRIPOS>ATOM
1    C         0.9662   -5.3648   19.3422  C     
2    C         0.9397   -4.3227   20.3176  C     
3    C         2.1093   -3.5079   20.3716  C     
4    C         2.0936   -5.6303   18.5553  C     
5    C         3.2554   -4.8291   18.6388  C     
6    C         3.2355   -3.7141   19.5381  C     
7    C         5.4519   -4.1981   17.9014  C     
8    C         4.4248   -5.0782   17.8594  C     
9    C         5.4014   -3.1119   18.7420  C     
10   N         4.3475   -2.8793   19.5485  N     
11   C         4.6665   -1.7759   20.2064  C     
12   N         5.8574   -1.3753   19.8232  N     
13   N         6.3361   -2.1677   18.9265  N     
14   O         4.0158   -1.1687   21.0421  O     
15   C         4.5673   -6.2934   17.0492  C     
16   C        -0.2086   -4.1198   21.2012  C     
17   C        -0.8373   -2.8462   21.3735  C     
18   C        -1.9569   -2.6517   22.2207  C     
19   C        -2.5081   -3.7591   22.9126  C     
20   C        -1.9247   -5.0318   22.7593  C     
21   C        -0.8028   -5.2113   21.9302  C     
22   C        -2.5944   -1.3121   22.3627  C     
23   O        -2.3240   -0.7799   23.6646  O     
24   H         0.1626   -5.9645   19.1697  H     
25   H         2.1600   -2.7566   21.0553  H     
26   H         2.0528   -6.4109   17.8980  H     
27   H         6.2690   -4.3309   17.3578  H     
28   H         6.3256   -0.5902   20.1542  H     
29   H         4.4471   -7.1729   17.6841  H     
30   H         5.5472   -6.3691   16.5682  H     
31   H         3.8040   -6.3078   16.2612  H     
32   H        -0.5044   -2.0263   20.8525  H     
33   H        -3.3359   -3.6488   23.5201  H     
34   H        -2.3280   -5.8361   23.2548  H     
35   H        -0.4326   -6.1687   21.8805  H     
36   H        -2.2172   -0.6034   21.6183  H     
37   H        -3.6773   -1.4134   22.2142  H     
38   H        -2.1974    0.1862   23.5028  H     
@<TRIPOS>BOND
     1    1    2 2
     2    1    4 1
     3    2    3 1
     4    2   16 1
     5    3    6 2
     6    4    5 2
     7    5    6 1
     8    5    8 1
     9    6   10 1
    10    7    8 2
    11    7    9 1
    12    8   15 1
    13    9   10 1
    14    9   13 2
    15   10   11 1
    16   11   12 1
    17   11   14 2
    18   12   13 1
    19   16   17 2
    20   16   21 1
    21   17   18 1
    22   18   19 2
    23   18   22 1
    24   19   20 1
    25   20   21 2
    26   22   23 1
    27    1   24 1
    28    3   25 1
    29    4   26 1
    30    7   27 1
    31   12   28 1
    32   15   29 1
    33   15   30 1
    34   15   31 1
    35   17   32 1
    36   19   33 1
    37   20   34 1
    38   21   35 1
    39   22   36 1
    40   22   37 1
    41   23   38 1
@<TRIPOS>PROPERTY_DATA
  Total_Score	| 5.4373
  Crash		| -0.7505
  Polar		| 2.6609
  FragIndex	| 1
  FragRMSD	| 0.441

