@<TRIPOS>MOLECULE
BindingDB_50325165
 43 46 0 0 0
SMALL
NO_CHARGES


@<TRIPOS>ATOM
1    C         0.4821   -4.8952   19.4752  C     
2    C         0.7250   -3.8282   20.3612  C     
3    C         1.9892   -3.1979   20.3343  C     
4    C         1.4789   -5.3386   18.5980  C     
5    C         2.7624   -4.7353   18.5780  C     
6    C         3.0112   -3.6398   19.4635  C     
7    C         5.0122   -4.5665   17.7503  C     
8    C         3.8067   -5.1805   17.7194  C     
9    C         5.2222   -3.5029   18.6075  C     
10   N         4.2634   -3.0475   19.4353  N     
11   C         4.8214   -2.0326   20.0712  C     
12   N         6.0586   -1.8900   19.6608  N     
13   N         6.3368   -2.7743   18.7589  N     
14   O         4.3374   -1.2959   20.9217  O     
15   C         3.6194   -6.3005   16.7957  C     
16   C        -0.3018   -3.3735   21.2285  C     
17   C        -0.9536   -4.2520   22.1233  C     
18   C        -1.9731   -3.7822   22.9677  C     
19   C        -2.3942   -2.4341   22.9219  C     
20   C        -1.7894   -1.5779   21.9780  C     
21   C        -0.7251   -2.0264   21.1825  C     
22   C        -3.4788   -1.9588   23.8179  C     
23   N        -3.4982   -0.5039   24.1146  N     
24   C        -2.4516    0.0008   25.0206  C     
25   H        -0.4401   -5.3432   19.4402  H     
26   H         2.1575   -2.4180   20.9669  H     
27   H         1.2426   -6.1096   17.9745  H     
28   H         5.7653   -4.8567   17.1679  H     
29   H         6.6817   -1.2103   19.9778  H     
30   H         3.3452   -7.1929   17.3575  H     
31   H         4.5116   -6.5447   16.2146  H     
32   H         2.8218   -6.0678   16.0882  H     
33   H        -0.6707   -5.2332   22.1801  H     
34   H        -2.4093   -4.4392   23.6134  H     
35   H        -2.1107   -0.6129   21.8757  H     
36   H        -0.2844   -1.3706   20.5320  H     
37   H        -4.4361   -2.2031   23.3574  H     
38   H        -3.4311   -2.4900   24.7695  H     
39   H        -3.4282    0.0312   23.2441  H     
40   H        -4.3953   -0.2889   24.5554  H     
41   H        -2.4572   -0.5330   25.9699  H     
42   H        -2.6227    1.0579   25.2251  H     
43   H        -1.4759   -0.0988   24.5519  H     
@<TRIPOS>BOND
     1    1    2 2
     2    1    4 1
     3    2    3 1
     4    2   16 1
     5    3    6 2
     6    4    5 2
     7    5    6 1
     8    5    8 1
     9    6   10 1
    10    7    8 2
    11    7    9 1
    12    8   15 1
    13    9   10 1
    14    9   13 2
    15   10   11 1
    16   11   12 1
    17   11   14 2
    18   12   13 1
    19   16   17 2
    20   16   21 1
    21   17   18 1
    22   18   19 2
    23   19   20 1
    24   19   22 1
    25   20   21 2
    26   22   23 1
    27   23   24 1
    28    1   25 1
    29    3   26 1
    30    4   27 1
    31    7   28 1
    32   12   29 1
    33   15   30 1
    34   15   31 1
    35   15   32 1
    36   17   33 1
    37   18   34 1
    38   20   35 1
    39   21   36 1
    40   22   37 1
    41   22   38 1
    42   23   39 1
    43   23   40 1
    44   24   41 1
    45   24   42 1
    46   24   43 1
@<TRIPOS>PROPERTY_DATA
  Total_Score	| 4.7637
  Crash		| -1.0078
  Polar		| 2.4059
  FragIndex	| 1
  FragRMSD	| 0.577

