@<TRIPOS>MOLECULE
BindingDB_50325171
 33 36 0 0 0
SMALL
NO_CHARGES


@<TRIPOS>ATOM
1    C         0.6425   -5.0970   19.4000  C     
2    C         0.7638   -4.0303   20.3162  C     
3    C         1.9766   -3.3085   20.3395  C     
4    C         1.6938   -5.4294   18.5345  C     
5    C         2.9154   -4.7077   18.5429  C     
6    C         3.0478   -3.6226   19.4706  C     
7    C         5.1634   -4.3282   17.7881  C     
8    C         4.0071   -5.0255   17.6815  C     
9    C         5.2655   -3.2840   18.6862  C     
10   N         4.2462   -2.9261   19.4900  N     
11   C         4.6831   -1.8680   20.1547  C     
12   N         5.9161   -1.6106   19.7798  N     
13   N         6.3034   -2.4571   18.8824  N     
14   O         4.0942   -1.1771   20.9685  O     
15   C         3.9127   -6.0659   16.6520  C     
16   C        -0.3076   -3.6895   21.1931  C     
17   C        -0.9564   -4.6807   21.9644  C     
18   C        -2.0200   -4.3244   22.8162  C     
19   N        -2.4228   -3.0303   22.8891  N     
20   C        -1.8260   -2.0463   22.1719  C     
21   C        -0.7518   -2.3499   21.3178  C     
22   H        -0.2244   -5.6392   19.3494  H     
23   H         2.0809   -2.5585   21.0228  H     
24   H         1.5476   -6.2124   17.8902  H     
25   H         5.9440   -4.5207   17.2040  H     
26   H         6.4495   -0.8674   20.1081  H     
27   H         3.7259   -7.0339   17.1168  H     
28   H         4.8152   -6.1699   16.0441  H     
29   H         3.0930   -5.8326   15.9718  H     
30   H        -0.6554   -5.6582   21.9305  H     
31   H        -2.4853   -5.0327   23.3853  H     
32   H        -2.1583   -1.0843   22.2612  H     
33   H        -0.3141   -1.5963   20.7846  H     
@<TRIPOS>BOND
     1    1    2 2
     2    1    4 1
     3    2    3 1
     4    2   16 1
     5    3    6 2
     6    4    5 2
     7    5    6 1
     8    5    8 1
     9    6   10 1
    10    7    8 2
    11    7    9 1
    12    8   15 1
    13    9   10 1
    14    9   13 2
    15   10   11 1
    16   11   12 1
    17   11   14 2
    18   12   13 1
    19   16   17 2
    20   16   21 1
    21   17   18 1
    22   18   19 2
    23   19   20 1
    24   20   21 2
    25    1   22 1
    26    3   23 1
    27    4   24 1
    28    7   25 1
    29   12   26 1
    30   15   27 1
    31   15   28 1
    32   15   29 1
    33   17   30 1
    34   18   31 1
    35   20   32 1
    36   21   33 1
@<TRIPOS>PROPERTY_DATA
  Total_Score	| 4.3198
  Crash		| -0.2259
  Polar		| 1.4842
  FragIndex	| 1
  FragRMSD	| 0.605

