@<TRIPOS>MOLECULE
BindingDB_50325160
 36 39 0 0 0
SMALL
NO_CHARGES


@<TRIPOS>ATOM
1    C         0.6548   -5.1300   19.1982  C     
2    C         0.8002   -4.1655   20.2169  C     
3    C         2.0167   -3.4501   20.2907  C     
4    C         1.7060   -5.4062   18.3107  C     
5    C         2.9402   -4.7120   18.3894  C     
6    C         3.0820   -3.6961   19.3910  C     
7    C         5.1955   -4.3021   17.6629  C     
8    C         4.0369   -4.9859   17.5176  C     
9    C         5.2962   -3.3069   18.6130  C     
10   N         4.2795   -2.9958   19.4419  N     
11   C         4.7171   -1.9674   20.1500  C     
12   N         5.9467   -1.6868   19.7842  N     
13   N         6.3291   -2.4840   18.8418  N     
14   O         4.1279   -1.3143   20.9973  O     
15   C         3.9473   -5.9881   16.4541  C     
16   C        -0.2571   -3.9159   21.1427  C     
17   C        -0.6749   -2.5801   21.3695  C     
18   C        -1.7137   -2.2886   22.2702  C     
19   C        -2.3527   -3.3283   22.9639  C     
20   C        -1.9548   -4.6590   22.7544  C     
21   C        -0.9142   -4.9623   21.8511  C     
22   N        -0.5704   -6.2604   21.7167  N     
23   H        -0.2222   -5.6492   19.0980  H     
24   H         2.1292   -2.7560   21.0298  H     
25   H         1.5474   -6.1280   17.6046  H     
26   H         5.9801   -4.4716   17.0763  H     
27   H         6.4841   -0.9630   20.1493  H     
28   H         3.7383   -6.9666   16.8876  H     
29   H         4.8613   -6.0836   15.8622  H     
30   H         3.1421   -5.7228   15.7669  H     
31   H        -0.2345   -1.8034   20.8685  H     
32   H        -2.0036   -1.3199   22.4206  H     
33   H        -3.1061   -3.1169   23.6215  H     
34   H        -2.4258   -5.4060   23.2722  H     
35   H        -1.0598   -6.9448   22.2001  H     
36   H         0.1444   -6.5256   21.1145  H     
@<TRIPOS>BOND
     1    1    2 2
     2    1    4 1
     3    2    3 1
     4    2   16 1
     5    3    6 2
     6    4    5 2
     7    5    6 1
     8    5    8 1
     9    6   10 1
    10    7    8 2
    11    7    9 1
    12    8   15 1
    13    9   10 1
    14    9   13 2
    15   10   11 1
    16   11   12 1
    17   11   14 2
    18   12   13 1
    19   16   17 2
    20   16   21 1
    21   17   18 1
    22   18   19 2
    23   19   20 1
    24   20   21 2
    25   21   22 1
    26    1   23 1
    27    3   24 1
    28    4   25 1
    29    7   26 1
    30   12   27 1
    31   15   28 1
    32   15   29 1
    33   15   30 1
    34   17   31 1
    35   18   32 1
    36   19   33 1
    37   20   34 1
    38   22   35 1
    39   22   36 1
@<TRIPOS>PROPERTY_DATA
  Total_Score	| 4.8663
  Crash		| -0.3840
  Polar		| 1.9347
  FragIndex	| 1
  FragRMSD	| 0.628

