@<TRIPOS>MOLECULE
BindingDB_50325143
 35 38 0 0 0
SMALL
NO_CHARGES


@<TRIPOS>ATOM
1    C         0.9244   -5.2980   19.4896  C     
2    C         0.9202   -4.2023   20.3920  C     
3    C         2.1194   -3.4329   20.4058  C     
4    C         2.0323   -5.6003   18.6823  C     
5    C         3.1996   -4.8041   18.6728  C     
6    C         3.2288   -3.6819   19.5591  C     
7    C         5.4015   -4.2416   17.8731  C     
8    C         4.3295   -5.0633   17.8306  C     
9    C         5.4073   -3.1563   18.7240  C     
10   N         4.3675   -2.8828   19.5417  N     
11   C         4.7286   -1.7832   20.1820  C     
12   N         5.9228   -1.4136   19.7802  N     
13   N         6.3663   -2.2333   18.8852  N     
14   O         4.1011   -1.1552   21.0230  O     
15   C         4.3644   -6.2054   16.9105  C     
16   C        -0.2330   -3.8904   21.2384  C     
17   C        -0.7727   -2.5714   21.3400  C     
18   C        -1.8722   -2.2511   22.1606  C     
19   C        -2.5107   -3.2650   22.8842  C     
20   C        -2.0380   -4.5804   22.8045  C     
21   C        -0.9088   -4.8792   22.0167  C     
22   O        -2.3031   -0.9716   22.2777  O     
23   H         0.1117   -5.9076   19.3792  H     
24   H         2.2079   -2.6762   21.0706  H     
25   H         1.9595   -6.4180   18.0809  H     
26   H         6.2024   -4.3907   17.3024  H     
27   H         6.4079   -0.6351   20.1053  H     
28   H         4.2744   -7.1315   17.4791  H     
29   H         5.2832   -6.2809   16.3190  H     
30   H         3.5342   -6.1345   16.2049  H     
31   H        -0.3877   -1.8001   20.8036  H     
32   H        -3.3210   -3.0450   23.4655  H     
33   H        -2.5142   -5.3212   23.3273  H     
34   H        -0.5917   -5.8467   22.0484  H     
35   H        -2.5767   -0.7092   21.3733  H     
@<TRIPOS>BOND
     1    1    2 2
     2    1    4 1
     3    2    3 1
     4    2   16 1
     5    3    6 2
     6    4    5 2
     7    5    6 1
     8    5    8 1
     9    6   10 1
    10    7    8 2
    11    7    9 1
    12    8   15 1
    13    9   10 1
    14    9   13 2
    15   10   11 1
    16   11   12 1
    17   11   14 2
    18   12   13 1
    19   16   17 2
    20   16   21 1
    21   17   18 1
    22   18   19 2
    23   18   22 1
    24   19   20 1
    25   20   21 2
    26    1   23 1
    27    3   24 1
    28    4   25 1
    29    7   26 1
    30   12   27 1
    31   15   28 1
    32   15   29 1
    33   15   30 1
    34   17   31 1
    35   19   32 1
    36   20   33 1
    37   21   34 1
    38   22   35 1
@<TRIPOS>PROPERTY_DATA
  Total_Score	| 4.1790
  Crash		| -0.5524
  Polar		| 1.7409
  FragIndex	| 1
  FragRMSD	| 0.283

