@<TRIPOS>MOLECULE
BindingDB_50325159
 35 38 0 0 0
SMALL
NO_CHARGES


@<TRIPOS>ATOM
1    C         0.6630   -5.0727   19.3790  C     
2    C         0.7819   -4.0101   20.2994  C     
3    C         1.9965   -3.2869   20.3217  C     
4    C         1.7109   -5.3938   18.5023  C     
5    C         2.9338   -4.6740   18.5194  C     
6    C         3.0736   -3.6000   19.4567  C     
7    C         5.1855   -4.3065   17.7687  C     
8    C         4.0180   -4.9780   17.6457  C     
9    C         5.2946   -3.2707   18.6729  C     
10   N         4.2752   -2.9101   19.4780  N     
11   C         4.7304   -1.8678   20.1548  C     
12   N         5.9619   -1.6140   19.7795  N     
13   N         6.3396   -2.4514   18.8698  N     
14   O         4.1482   -1.1893   20.9892  O     
15   C         3.8991   -5.9842   16.5870  C     
16   C        -0.2864   -3.6845   21.1870  C     
17   C        -0.7298   -2.3438   21.3394  C     
18   C        -1.7852   -2.0242   22.2107  C     
19   C        -2.4212   -3.0383   22.9573  C     
20   C        -1.9889   -4.3762   22.8217  C     
21   C        -0.9362   -4.6885   21.9427  C     
22   C        -3.4001   -2.7453   23.7669  C     
23   N        -4.2645   -2.4882   24.4783  N     
24   H        -0.2065   -5.6115   19.3202  H     
25   H         2.1009   -2.5321   21.0028  H     
26   H         1.5588   -6.1706   17.8582  H     
27   H         5.9713   -4.5181   17.1996  H     
28   H         6.5084   -0.8872   20.1224  H     
29   H         3.6932   -6.9602   17.0270  H     
30   H         4.7951   -6.0891   15.9710  H     
31   H         3.0806   -5.7123   15.9173  H     
32   H        -0.2927   -1.5884   20.8062  H     
33   H        -2.0802   -1.0472   22.2890  H     
34   H        -2.4295   -5.1293   23.3536  H     
35   H        -0.6307   -5.6632   21.8780  H     
@<TRIPOS>BOND
     1    1    2 2
     2    1    4 1
     3    2    3 1
     4    2   16 1
     5    3    6 2
     6    4    5 2
     7    5    6 1
     8    5    8 1
     9    6   10 1
    10    7    8 2
    11    7    9 1
    12    8   15 1
    13    9   10 1
    14    9   13 2
    15   10   11 1
    16   11   12 1
    17   11   14 2
    18   12   13 1
    19   16   17 2
    20   16   21 1
    21   17   18 1
    22   18   19 2
    23   19   20 1
    24   19   22 1
    25   20   21 2
    26   22   23 3
    27    1   24 1
    28    3   25 1
    29    4   26 1
    30    7   27 1
    31   12   28 1
    32   15   29 1
    33   15   30 1
    34   15   31 1
    35   17   32 1
    36   18   33 1
    37   20   34 1
    38   21   35 1
@<TRIPOS>PROPERTY_DATA
  Total_Score	| 4.3866
  Crash		| -0.1794
  Polar		| 1.4929
  FragIndex	| 1
  FragRMSD	| 0.600

