@<TRIPOS>MOLECULE
BindingDB_50325144
 32 35 0 0 0
SMALL
NO_CHARGES


@<TRIPOS>ATOM
1    C         0.9630   -5.2604   19.4596  C     
2    C         0.9748   -4.0999   20.2621  C     
3    C         2.1262   -3.2852   20.2316  C     
4    C         2.0551   -5.5776   18.6312  C     
5    C         3.2218   -4.7721   18.5991  C     
6    C         3.2558   -3.6132   19.4439  C     
7    C         5.4468   -4.2730   17.8317  C     
8    C         4.3513   -5.0664   17.7768  C     
9    C         5.4679   -3.1810   18.6778  C     
10   N         4.4162   -2.8558   19.4563  N     
11   C         4.8098   -1.7873   20.1306  C     
12   N         6.0342   -1.4754   19.7770  N     
13   N         6.4686   -2.3104   18.8865  N     
14   O         4.1972   -1.1622   20.9822  O     
15   C         4.3540   -6.2039   16.8539  C     
16   C        -0.1345   -3.7552   21.0801  C     
17   C        -0.6271   -2.4702   21.3299  C     
18   C        -1.7122   -2.5907   22.1822  C     
19   N        -1.8860   -3.8934   22.4575  N     
20   C        -0.9596   -4.6145   21.8116  C     
21   H         0.1453   -5.8744   19.4511  H     
22   H         2.1471   -2.4549   20.8235  H     
23   H         1.9819   -6.4222   18.0550  H     
24   H         6.2504   -4.4528   17.2794  H     
25   H         6.5537   -0.7326   20.1406  H     
26   H         4.2429   -7.1315   17.4173  H     
27   H         5.2669   -6.2927   16.2605  H     
28   H         3.5191   -6.1088   16.1545  H     
29   H        -0.2723   -1.5941   20.9370  H     
30   H        -2.2839   -1.8259   22.5445  H     
31   H        -2.5732   -4.2514   23.0399  H     
32   H        -0.8577   -5.6307   21.8794  H     
@<TRIPOS>BOND
     1    1    2 2
     2    1    4 1
     3    2    3 1
     4    2   16 1
     5    3    6 2
     6    4    5 2
     7    5    6 1
     8    5    8 1
     9    6   10 1
    10    7    8 2
    11    7    9 1
    12    8   15 1
    13    9   10 1
    14    9   13 2
    15   10   11 1
    16   11   12 1
    17   11   14 2
    18   12   13 1
    19   16   17 1
    20   16   20 2
    21   17   18 2
    22   18   19 1
    23   19   20 1
    24    1   21 1
    25    3   22 1
    26    4   23 1
    27    7   24 1
    28   12   25 1
    29   15   26 1
    30   15   27 1
    31   15   28 1
    32   17   29 1
    33   18   30 1
    34   19   31 1
    35   20   32 1
@<TRIPOS>PROPERTY_DATA
  Total_Score	| 4.0893
  Crash		| -0.2708
  Polar		| 1.7446
  FragIndex	| 1
  FragRMSD	| 0.653

