@<TRIPOS>MOLECULE
BindingDB_30430
 59 62 0 0 0
SMALL
NO_CHARGES


@<TRIPOS>ATOM
1    C        96.2612    8.1656   54.7461  C     
2    C        96.1517    8.5318   53.4165  C     
3    N        95.2664    9.4284   53.1368  N     
4    N        94.4369    9.9739   53.9593  N     
5    C        94.4366    9.5700   55.2445  C     
6    C        95.4108    8.6766   55.6837  C     
7    O        93.5681    9.9775   56.0102  O     
8    C        93.5734   10.9991   53.4180  C     
9    O        97.3390    7.4758   55.1216  O     
10   C        95.5786    8.3938   57.0555  C     
11   S        96.1388    6.6543   59.0262  S     
12   N        95.8760    7.1272   57.4335  N     
13   N        95.4539    9.3906   57.9792  N     
14   C        95.5691    9.2767   59.3386  C     
15   C        95.9000    8.0697   60.0008  C     
16   O        95.0684    5.5553   59.4465  O     
17   O        97.6304    6.1326   59.2102  O     
18   C        96.0242    8.0347   61.4069  C     
19   C        95.3398   10.4384   60.1081  C     
20   C        95.4500   10.3989   61.5097  C     
21   C        95.8200    9.2065   62.1645  C     
22   C        92.0938   10.5630   53.2180  C     
23   C        91.8806    9.3111   52.3095  C     
24   C        90.3716    8.9420   52.2291  C     
25   C        92.4760    9.4961   50.8843  C     
26   C        96.8766    7.9971   52.3466  C     
27   C        96.8798    8.4530   51.0124  C     
28   C        97.6700    7.7106   50.1136  C     
29   C        98.3223    6.6228   50.6888  C     
30   S        97.8976    6.6051   52.3524  S     
31   O        95.9091    9.1994   63.5341  O     
32   C        97.2416    9.4396   64.0394  C     
33   C        97.2439    9.6075   65.4838  C     
34   N        98.3434    9.6420   66.2202  N     
35   O        96.1817    9.7789   66.0668  O     
36   O        99.5439    9.4723   65.7327  O     
37   H        93.5937   11.8586   54.0921  H     
38   H        93.9472   11.3624   52.4541  H     
39   H        96.9975    6.6304   55.4807  H     
40   H        95.2659   10.2802   57.6362  H     
41   H        96.2569    7.1587   61.8806  H     
42   H        95.0828   11.3202   59.6561  H     
43   H        95.2626   11.2391   62.0576  H     
44   H        91.6532   10.3740   54.2044  H     
45   H        91.5453   11.4023   52.7798  H     
46   H        92.3903    8.4649   52.7791  H     
47   H        89.9750    8.7632   53.2307  H     
48   H        90.2311    8.0303   51.6423  H     
49   H        89.7998    9.7467   51.7654  H     
50   H        92.0841   10.3968   50.4093  H     
51   H        92.2417    8.6380   50.2552  H     
52   H        93.5632    9.5775   50.9336  H     
53   H        96.3439    9.2643   50.6964  H     
54   H        97.7500    7.9425   49.1205  H     
55   H        98.9335    5.9555   50.2139  H     
56   H        97.8705    8.5855   63.7815  H     
57   H        97.6750   10.3448   63.6023  H     
58   H        98.2643    9.7871   67.1797  H     
59   H       100.1271    9.4232   66.5235  H     
@<TRIPOS>BOND
     1    1    2 1
     2    1    6 2
     3    1    9 1
     4    2    3 2
     5    2   26 1
     6    3    4 1
     7    4    5 1
     8    4    8 1
     9    5    6 1
    10    5    7 2
    11    6   10 1
    12    8   22 1
    13   10   12 2
    14   10   13 1
    15   11   12 1
    16   11   15 1
    17   11   16 2
    18   11   17 2
    19   13   14 1
    20   14   15 1
    21   14   19 2
    22   15   18 2
    23   18   21 1
    24   19   20 1
    25   20   21 2
    26   21   31 1
    27   22   23 1
    28   23   24 1
    29   23   25 1
    30   26   27 2
    31   26   30 1
    32   27   28 1
    33   28   29 2
    34   29   30 1
    35   31   32 1
    36   32   33 1
    37   33   34 am
    38   33   35 2
    39   34   36 1
    40    8   37 1
    41    8   38 1
    42    9   39 1
    43   13   40 1
    44   18   41 1
    45   19   42 1
    46   20   43 1
    47   22   44 1
    48   22   45 1
    49   23   46 1
    50   24   47 1
    51   24   48 1
    52   24   49 1
    53   25   50 1
    54   25   51 1
    55   25   52 1
    56   27   53 1
    57   28   54 1
    58   29   55 1
    59   32   56 1
    60   32   57 1
    61   34   58 1
    62   36   59 1
@<TRIPOS>PROPERTY_DATA
  Total_Score	| 6.9942
  Crash		| -2.1364
  Polar		| 2.9798
  FragIndex	| 1
  FragRMSD	| 0.171

