@<TRIPOS>MOLECULE
BindingDB_30443
 55 58 0 0 0
SMALL
NO_CHARGES


@<TRIPOS>ATOM
1    C        95.8268    7.8255   54.6798  C     
2    C        95.9383    8.2865   53.3804  C     
3    N        95.2430    9.3465   53.1008  N     
4    N        94.5124   10.0220   53.9162  N     
5    C        94.4796    9.6707   55.2194  C     
6    C        95.1827    8.5459   55.6493  C     
7    O        93.8407   10.3517   56.0071  O     
8    C        93.8668   11.1828   53.3380  C     
9    O        96.3450    6.6338   54.9798  O     
10   C        95.3344    8.2206   57.0213  C     
11   S        96.0411    6.4254   58.9166  S     
12   N        95.8352    6.9973   57.3578  N     
13   N        95.0722    9.1292   58.0069  N     
14   C        95.3034    8.9811   59.3418  C     
15   C        95.7033    7.7680   59.9394  C     
16   O        95.0691    5.2156   59.2803  O     
17   O        97.5777    6.0978   59.1837  O     
18   C        95.8618    7.6707   61.3370  C     
19   C        95.1403   10.1166   60.1642  C     
20   C        95.3434   10.0297   61.5516  C     
21   C        95.6494    8.7950   62.1745  C     
22   C        92.7338   10.8217   52.3344  C     
23   C        91.8918    9.5563   52.6776  C     
24   C        91.0776    9.6929   53.9930  C     
25   C        90.9373    9.2154   51.4997  C     
26   C        96.7988    7.8085   52.3897  C     
27   C        96.9936    8.3341   51.0943  C     
28   C        97.9518    7.6919   50.3032  C     
29   C        98.5846    6.6123   50.9184  C     
30   S        97.9199    6.4969   52.5022  S     
31   C        95.7893    8.7057   63.5711  C     
32   C        96.3420    7.5493   64.2699  C     
33   O        95.3940    9.6251   64.2690  O     
34   H        93.4544   11.8539   54.0959  H     
35   H        94.6100   11.7774   52.8020  H     
36   H        97.2271    6.8679   55.3662  H     
37   H        94.7114    9.9897   57.7327  H     
38   H        96.1719    6.7787   61.7321  H     
39   H        94.8836   11.0159   59.7482  H     
40   H        95.2006   10.8729   62.1062  H     
41   H        92.0544   11.6815   52.2625  H     
42   H        93.1814   10.6888   51.3453  H     
43   H        92.5800    8.7136   52.7873  H     
44   H        91.7416    9.8098   54.8524  H     
45   H        90.4743    8.8005   54.1618  H     
46   H        90.4146   10.5528   53.9488  H     
47   H        90.1792    9.9894   51.3767  H     
48   H        90.4318    8.2629   51.6731  H     
49   H        91.4950    9.1333   50.5632  H     
50   H        96.4727    9.1475   50.7381  H     
51   H        98.1746    7.9719   49.3451  H     
52   H        99.3021    6.0118   50.5198  H     
53   H        95.7920    6.6462   63.9732  H     
54   H        96.2502    7.6467   65.3609  H     
55   H        97.4051    7.4344   64.0374  H     
@<TRIPOS>BOND
     1    1    2 1
     2    1    6 2
     3    1    9 1
     4    2    3 2
     5    2   26 1
     6    3    4 1
     7    4    5 1
     8    4    8 1
     9    5    6 1
    10    5    7 2
    11    6   10 1
    12    8   22 1
    13   10   12 2
    14   10   13 1
    15   11   12 1
    16   11   15 1
    17   11   16 2
    18   11   17 2
    19   13   14 1
    20   14   15 1
    21   14   19 2
    22   15   18 2
    23   18   21 1
    24   19   20 1
    25   20   21 2
    26   21   31 1
    27   22   23 1
    28   23   24 1
    29   23   25 1
    30   26   27 2
    31   26   30 1
    32   27   28 1
    33   28   29 2
    34   29   30 1
    35   31   32 1
    36   31   33 2
    37    8   34 1
    38    8   35 1
    39    9   36 1
    40   13   37 1
    41   18   38 1
    42   19   39 1
    43   20   40 1
    44   22   41 1
    45   22   42 1
    46   23   43 1
    47   24   44 1
    48   24   45 1
    49   24   46 1
    50   25   47 1
    51   25   48 1
    52   25   49 1
    53   27   50 1
    54   28   51 1
    55   29   52 1
    56   32   53 1
    57   32   54 1
    58   32   55 1
@<TRIPOS>PROPERTY_DATA
  Total_Score	| 5.9047
  Crash		| -2.5773
  Polar		| 1.6310
  FragIndex	| 1
  FragRMSD	| 0.654

