@<TRIPOS>MOLECULE
BindingDB_30435
 60 63 0 0 0
SMALL
NO_CHARGES


@<TRIPOS>ATOM
1    C        96.2929    8.1491   54.6509  C     
2    C        96.1857    8.5030   53.3185  C     
3    N        95.3250    9.4241   53.0357  N     
4    N        94.5053    9.9929   53.8625  N     
5    C        94.4850    9.5744   55.1430  C     
6    C        95.4345    8.6580   55.5785  C     
7    O        93.6207   10.0035   55.8979  O     
8    C        93.6662   11.0446   53.3315  C     
9    O        97.3756    7.4795   55.0480  O     
10   C        95.5874    8.3618   56.9402  C     
11   S        96.1203    6.6178   58.9112  S     
12   N        95.8797    7.0937   57.3138  N     
13   N        95.4427    9.3541   57.8603  N     
14   C        95.5178    9.2389   59.2167  C     
15   C        95.8351    8.0292   59.8715  C     
16   O        95.0630    5.5048   59.3305  O     
17   O        97.6270    6.1529   59.1191  O     
18   C        95.9068    7.9736   61.2731  C     
19   C        95.2540   10.3865   59.9920  C     
20   C        95.3070   10.3296   61.3943  C     
21   C        95.6377    9.1215   62.0492  C     
22   C        92.1800   10.6494   53.1341  C     
23   C        91.9326    9.3865   52.2513  C     
24   C        90.4191    9.0610   52.1560  C     
25   C        92.5418    9.5172   50.8275  C     
26   C        96.8926    7.9398   52.2579  C     
27   C        96.9233    8.3963   50.9268  C     
28   C        97.6983    7.6294   50.0403  C     
29   C        98.3087    6.5217   50.6216  C     
30   S        97.8671    6.5166   52.2798  S     
31   C        95.7096    9.0628   63.5274  C     
32   C        97.1013    9.4867   64.0791  C     
33   C        97.1556    9.6809   65.5175  C     
34   N        98.3090    9.6506   66.1467  N     
35   O        96.1528    9.9264   66.1753  O     
36   H        93.7193   11.9012   54.0055  H     
37   H        94.0532   11.4066   52.3786  H     
38   H        98.0595    8.1667   55.1904  H     
39   H        95.2519   10.2390   57.5152  H     
40   H        96.1379    7.0903   61.7325  H     
41   H        95.0139   11.2702   59.5319  H     
42   H        95.1093   11.1779   61.9323  H     
43   H        91.7346   10.4913   54.1209  H     
44   H        91.6590   11.5042   52.6871  H     
45   H        92.4114    8.5330   52.7405  H     
46   H        90.0003    8.9154   53.1533  H     
47   H        90.2567    8.1456   51.5830  H     
48   H        89.8776    9.8780   51.6690  H     
49   H        92.1170   10.3754   50.2961  H     
50   H        92.3480    8.6170   50.2425  H     
51   H        93.6246    9.6403   50.8725  H     
52   H        96.4212    9.2269   50.6111  H     
53   H        97.7989    7.8609   49.0508  H     
54   H        98.9055    5.8386   50.1552  H     
55   H        94.9385    9.7082   63.9456  H     
56   H        95.4912    8.0458   63.8695  H     
57   H        97.8308    8.7084   63.8071  H     
58   H        97.4207   10.4204   63.6008  H     
59   H        98.3567    9.8130   67.1060  H     
60   H        99.1252    9.4658   65.6521  H     
@<TRIPOS>BOND
     1    1    2 1
     2    1    6 2
     3    1    9 1
     4    2    3 2
     5    2   26 1
     6    3    4 1
     7    4    5 1
     8    4    8 1
     9    5    6 1
    10    5    7 2
    11    6   10 1
    12    8   22 1
    13   10   12 2
    14   10   13 1
    15   11   12 1
    16   11   15 1
    17   11   16 2
    18   11   17 2
    19   13   14 1
    20   14   15 1
    21   14   19 2
    22   15   18 2
    23   18   21 1
    24   19   20 1
    25   20   21 2
    26   21   31 1
    27   22   23 1
    28   23   24 1
    29   23   25 1
    30   26   27 2
    31   26   30 1
    32   27   28 1
    33   28   29 2
    34   29   30 1
    35   31   32 1
    36   32   33 1
    37   33   34 am
    38   33   35 2
    39    8   36 1
    40    8   37 1
    41    9   38 1
    42   13   39 1
    43   18   40 1
    44   19   41 1
    45   20   42 1
    46   22   43 1
    47   22   44 1
    48   23   45 1
    49   24   46 1
    50   24   47 1
    51   24   48 1
    52   25   49 1
    53   25   50 1
    54   25   51 1
    55   27   52 1
    56   28   53 1
    57   29   54 1
    58   31   55 1
    59   31   56 1
    60   32   57 1
    61   32   58 1
    62   34   59 1
    63   34   60 1
@<TRIPOS>PROPERTY_DATA
  Total_Score	| 6.8266
  Crash		| -2.5179
  Polar		| 2.4206
  FragIndex	| 1
  FragRMSD	| 0.131

