@<TRIPOS>MOLECULE
BindingDB_30424
 51 54 0 0 0
SMALL
NO_CHARGES


@<TRIPOS>ATOM
1    C        96.0839    8.0436   54.6894  C     
2    C        96.0591    8.4803   53.3782  C     
3    N        95.2528    9.4457   53.0926  N     
4    N        94.4016    9.9836   53.8983  N     
5    C        94.3054    9.5109   55.1555  C     
6    C        95.2370    8.5815   55.6218  C     
7    O        93.3560    9.8574   55.8499  O     
8    C        93.5886   11.0532   53.3673  C     
9    O        97.0885    7.2428   55.0511  O     
10   C        95.3772    8.3248   57.0136  C     
11   S        96.1969    6.7401   59.0394  S     
12   N        95.9005    7.1439   57.4352  N     
13   N        95.0148    9.2706   57.9304  N     
14   C        95.0958    9.1999   59.2888  C     
15   C        95.6402    8.0890   59.9768  C     
16   O        95.3781    5.4320   59.4498  O     
17   O        97.7665    6.5966   59.2804  O     
18   C        95.7472    8.0995   61.3786  C     
19   C        94.6297   10.3069   60.0316  C     
20   C        94.7307   10.3163   61.4338  C     
21   C        95.2979    9.2159   62.1073  C     
22   C        92.1087   10.6735   53.0978  C     
23   C        91.8861    9.3945   52.2310  C     
24   C        90.3703    9.0557   52.1377  C     
25   C        92.4937    9.5093   50.8027  C     
26   C        96.8218    7.9603   52.3385  C     
27   C        97.3342    6.6545   52.1865  C     
28   C        98.0313    6.4189   50.9919  C     
29   C        98.1145    7.5270   50.1416  C     
30   S        97.2689    8.8129   50.8983  S     
31   O        95.4354    9.2264   63.4508  O     
32   H        93.6104   11.8897   54.0683  H     
33   H        94.0131   11.4468   52.4356  H     
34   H        97.9098    7.7646   54.8810  H     
35   H        94.6771   10.1097   57.5814  H     
36   H        96.1564    7.2977   61.8668  H     
37   H        94.2184   11.1156   59.5531  H     
38   H        94.4018   11.1276   61.9560  H     
39   H        91.6090   10.5341   54.0598  H     
40   H        91.6248   11.5204   52.6046  H     
41   H        92.3694    8.5488   52.7346  H     
42   H        89.9567    8.8883   53.1352  H     
43   H        90.2080    8.1481   51.5548  H     
44   H        89.8163    9.8710   51.6696  H     
45   H        92.0590   10.3498   50.2620  H     
46   H        92.3161    8.6004   50.2284  H     
47   H        93.5719    9.6512   50.8468  H     
48   H        97.1879    5.9095   52.8719  H     
49   H        98.4410    5.5110   50.7538  H     
50   H        98.5805    7.5653   49.2344  H     
51   H        95.4118   10.1717   63.6972  H     
@<TRIPOS>BOND
     1    1    2 1
     2    1    6 2
     3    1    9 1
     4    2    3 2
     5    2   26 1
     6    3    4 1
     7    4    5 1
     8    4    8 1
     9    5    6 1
    10    5    7 2
    11    6   10 1
    12    8   22 1
    13   10   12 2
    14   10   13 1
    15   11   12 1
    16   11   15 1
    17   11   16 2
    18   11   17 2
    19   13   14 1
    20   14   15 1
    21   14   19 2
    22   15   18 2
    23   18   21 1
    24   19   20 1
    25   20   21 2
    26   21   31 1
    27   22   23 1
    28   23   24 1
    29   23   25 1
    30   26   27 2
    31   26   30 1
    32   27   28 1
    33   28   29 2
    34   29   30 1
    35    8   32 1
    36    8   33 1
    37    9   34 1
    38   13   35 1
    39   18   36 1
    40   19   37 1
    41   20   38 1
    42   22   39 1
    43   22   40 1
    44   23   41 1
    45   24   42 1
    46   24   43 1
    47   24   44 1
    48   25   45 1
    49   25   46 1
    50   25   47 1
    51   27   48 1
    52   28   49 1
    53   29   50 1
    54   31   51 1
@<TRIPOS>PROPERTY_DATA
  Total_Score	| 6.0127
  Crash		| -1.7872
  Polar		| 1.1469
  FragIndex	| 1
  FragRMSD	| 0.790

