@<TRIPOS>MOLECULE
BindingDB_30434
 55 58 0 0 0
SMALL
NO_CHARGES


@<TRIPOS>ATOM
1    C        95.6687    7.7177   54.5138  C     
2    C        95.8235    8.2436   53.2446  C     
3    N        95.1915    9.3420   52.9989  N     
4    N        94.4315    9.9890   53.8168  N     
5    C        94.3590    9.5748   55.1000  C     
6    C        95.0766    8.4445   55.5078  C     
7    O        93.6467   10.2025   55.8744  O     
8    C        93.6742   11.0942   53.2719  C     
9    O        96.1044    6.4818   54.7516  O     
10   C        95.3314    8.1585   56.8771  C     
11   S        96.7420    6.7569   58.7108  S     
12   N        96.2688    7.2193   57.1705  N     
13   N        94.7360    8.8555   57.8918  N     
14   C        95.0509    8.8193   59.2192  C     
15   C        96.0003    7.9210   59.7534  C     
16   O        96.1671    5.3172   59.0754  O     
17   O        98.3151    6.8935   58.8895  O     
18   C        96.2875    7.9090   61.1282  C     
19   C        94.4126    9.7343   60.0905  C     
20   C        94.6614    9.6865   61.4772  C     
21   C        95.5655    8.7419   62.0022  C     
22   C        92.1836   10.7392   53.0033  C     
23   C        91.9429    9.4317   52.1802  C     
24   C        90.4270    9.0954   52.1091  C     
25   C        92.5525    9.4997   50.7492  C     
26   C        96.6912    7.7781   52.2548  C     
27   C        97.2971    6.5209   52.0611  C     
28   C        98.1620    6.4191   50.9563  C     
29   C        98.2961    7.5926   50.2250  C     
30   S        97.2998    8.7692   50.9773  S     
31   O        95.6805    8.5024   63.3474  O     
32   C        95.1572    7.2256   63.8093  C     
33   C        95.3131    6.1418   62.9704  C     
34   N        95.4331    5.2707   62.2210  N     
35   H        93.7140   11.9397   53.9616  H     
36   H        94.1200   11.4604   52.3423  H     
37   H        97.0366    6.6030   55.0481  H     
38   H        94.0413    9.4835   57.6496  H     
39   H        96.9523    7.2281   61.5075  H     
40   H        93.7342   10.4122   59.7260  H     
41   H        94.1466   10.3082   62.1034  H     
42   H        91.6791   10.6498   53.9705  H     
43   H        91.7200   11.5826   52.4804  H     
44   H        92.4257    8.6020   52.7065  H     
45   H        90.0180    8.9740   53.1144  H     
46   H        90.2711    8.1570   51.5730  H     
47   H        89.8735    9.8862   51.5997  H     
48   H        92.1359   10.3355   50.1897  H     
49   H        92.3439    8.5801   50.2029  H     
50   H        93.6351    9.6209   50.7923  H     
51   H        97.1116    5.7089   52.6464  H     
52   H        98.6563    5.5598   50.7105  H     
53   H        98.8759    7.7411   49.3997  H     
54   H        95.6799    6.9909   64.7444  H     
55   H        94.0923    7.3198   64.0330  H     
@<TRIPOS>BOND
     1    1    2 1
     2    1    6 2
     3    1    9 1
     4    2    3 2
     5    2   26 1
     6    3    4 1
     7    4    5 1
     8    4    8 1
     9    5    6 1
    10    5    7 2
    11    6   10 1
    12    8   22 1
    13   10   12 2
    14   10   13 1
    15   11   12 1
    16   11   15 1
    17   11   16 2
    18   11   17 2
    19   13   14 1
    20   14   15 1
    21   14   19 2
    22   15   18 2
    23   18   21 1
    24   19   20 1
    25   20   21 2
    26   21   31 1
    27   22   23 1
    28   23   24 1
    29   23   25 1
    30   26   27 2
    31   26   30 1
    32   27   28 1
    33   28   29 2
    34   29   30 1
    35   31   32 1
    36   32   33 1
    37   33   34 3
    38    8   35 1
    39    8   36 1
    40    9   37 1
    41   13   38 1
    42   18   39 1
    43   19   40 1
    44   20   41 1
    45   22   42 1
    46   22   43 1
    47   23   44 1
    48   24   45 1
    49   24   46 1
    50   24   47 1
    51   25   48 1
    52   25   49 1
    53   25   50 1
    54   27   51 1
    55   28   52 1
    56   29   53 1
    57   32   54 1
    58   32   55 1
@<TRIPOS>PROPERTY_DATA
  Total_Score	| 6.4597
  Crash		| -3.5113
  Polar		| 1.6914
  FragIndex	| 1
  FragRMSD	| 0.949

