@<TRIPOS>MOLECULE
BindingDB_30425
 58 61 0 0 0
SMALL
NO_CHARGES


@<TRIPOS>ATOM
1    C        96.1997    8.1596   54.7201  C     
2    C        96.1249    8.5425   53.3911  C     
3    N        95.2672    9.4661   53.1032  N     
4    N        94.4323   10.0157   53.9165  N     
5    C        94.3804    9.5774   55.1899  C     
6    C        95.3275    8.6641   55.6437  C     
7    O        93.4851    9.9796   55.9243  O     
8    C        93.5868   11.0527   53.3700  C     
9    O        97.2781    7.4878   55.1211  O     
10   C        95.4582    8.3740   57.0133  C     
11   S        96.0876    6.6634   58.9931  S     
12   N        95.8210    7.1271   57.3997  N     
13   N        95.2465    9.3518   57.9387  N     
14   C        95.3412    9.2511   59.2962  C     
15   C        95.7362    8.0612   59.9506  C     
16   O        95.1020    5.4864   59.4093  O     
17   O        97.6173    6.2696   59.1923  O     
18   C        95.8629    8.0238   61.3540  C     
19   C        95.0502   10.3909   60.0731  C     
20   C        95.1819   10.3588   61.4717  C     
21   C        95.6061    9.1809   62.1167  C     
22   C        92.1117   10.6298   53.1401  C     
23   C        91.8939    9.3636   52.2520  C     
24   C        90.3839    9.0221   52.1557  C     
25   C        92.5129    9.5036   50.8328  C     
26   C        96.8528    7.9922   52.3309  C     
27   C        96.8793    8.4421   50.9959  C     
28   C        97.6784    7.6914   50.1177  C     
29   C        98.3150    6.6016   50.7090  C     
30   S        97.8638    6.5925   52.3637  S     
31   O        95.7237    9.2031   63.4806  O     
32   C        97.0464    9.5607   63.9406  C     
33   C        97.0905    9.7012   65.3797  C     
34   N        98.2447    9.7166   66.0162  N     
35   O        96.0647    9.8442   66.0309  O     
36   H        93.6032   11.9070   54.0508  H     
37   H        93.9837   11.4274   52.4225  H     
38   H        96.9376    6.6917   55.5789  H     
39   H        95.0133   10.2239   57.6016  H     
40   H        96.1489    7.1652   61.8311  H     
41   H        94.7550   11.2589   59.6129  H     
42   H        94.9732   11.2035   62.0117  H     
43   H        91.6529   10.4568   54.1158  H     
44   H        91.5835   11.4747   52.6872  H     
45   H        92.3802    8.5123   52.7403  H     
46   H        89.9641    8.8739   53.1551  H     
47   H        90.2280    8.1023   51.5876  H     
48   H        89.8373    9.8326   51.6698  H     
49   H        92.0791   10.3507   50.2997  H     
50   H        92.3390    8.5991   50.2526  H     
51   H        93.5922    9.6449   50.8939  H     
52   H        96.3541    9.2557   50.6679  H     
53   H        97.7838    7.9175   49.1267  H     
54   H        98.9333    5.9304   50.2559  H     
55   H        97.7543    8.7699   63.6535  H     
56   H        97.3806   10.5122   63.5014  H     
57   H        98.2775    9.8381   66.9817  H     
58   H        99.0754    9.6038   65.5186  H     
@<TRIPOS>BOND
     1    1    2 1
     2    1    6 2
     3    1    9 1
     4    2    3 2
     5    2   26 1
     6    3    4 1
     7    4    5 1
     8    4    8 1
     9    5    6 1
    10    5    7 2
    11    6   10 1
    12    8   22 1
    13   10   12 2
    14   10   13 1
    15   11   12 1
    16   11   15 1
    17   11   16 2
    18   11   17 2
    19   13   14 1
    20   14   15 1
    21   14   19 2
    22   15   18 2
    23   18   21 1
    24   19   20 1
    25   20   21 2
    26   21   31 1
    27   22   23 1
    28   23   24 1
    29   23   25 1
    30   26   27 2
    31   26   30 1
    32   27   28 1
    33   28   29 2
    34   29   30 1
    35   31   32 1
    36   32   33 1
    37   33   34 am
    38   33   35 2
    39    8   36 1
    40    8   37 1
    41    9   38 1
    42   13   39 1
    43   18   40 1
    44   19   41 1
    45   20   42 1
    46   22   43 1
    47   22   44 1
    48   23   45 1
    49   24   46 1
    50   24   47 1
    51   24   48 1
    52   25   49 1
    53   25   50 1
    54   25   51 1
    55   27   52 1
    56   28   53 1
    57   29   54 1
    58   32   55 1
    59   32   56 1
    60   34   57 1
    61   34   58 1
@<TRIPOS>PROPERTY_DATA
  Total_Score	| 7.1467
  Crash		| -1.9101
  Polar		| 2.5870
  FragIndex	| 1
  FragRMSD	| 0.140

