@<TRIPOS>MOLECULE
BindingDB_30437
 61 65 0 0 0
SMALL
NO_CHARGES


@<TRIPOS>ATOM
1    C        96.1512    8.0525   54.6281  C     
2    C        96.0828    8.4560   53.3048  C     
3    N        95.2546    9.4135   53.0274  N     
4    N        94.4453    9.9795   53.8592  N     
5    C        94.4200    9.5611   55.1392  C     
6    C        95.3480    8.6263   55.5717  C     
7    O        93.5555    9.9778   55.8976  O     
8    C        93.5933   11.0285   53.3461  C     
9    O        97.1834    7.2835   54.9944  O     
10   C        95.5776    8.4315   56.9447  C     
11   S        96.2116    6.8545   59.0183  S     
12   N        95.8282    7.1886   57.4179  N     
13   N        95.6125    9.5187   57.7702  N     
14   C        95.8807    9.5344   59.1057  C     
15   C        96.2194    8.3786   59.8459  C     
16   O        95.1121    5.9023   59.6664  O     
17   O        97.6722    6.2294   59.0870  O     
18   C        96.6191    8.4972   61.1911  C     
19   C        95.8565   10.7849   59.7534  C     
20   C        96.2310   10.8989   61.0962  C     
21   C        96.6631    9.7630   61.8251  C     
22   C        92.1062   10.6159   53.1783  C     
23   C        91.8587    9.3609   52.2847  C     
24   C        90.3417    9.0327   52.2050  C     
25   C        92.4580    9.5060   50.8606  C     
26   C        96.8168    7.9155   52.2491  C     
27   C        96.8801    8.3813   50.9258  C     
28   C        97.6869    7.6332   50.0476  C     
29   C        98.2905    6.5175   50.6369  C     
30   S        97.7901    6.4863   52.2789  S     
31   N        97.1058    9.9894   63.0970  N     
32   C        98.2179    9.5333   63.6694  C     
33   C        98.5894   10.0308   64.9766  C     
34   O        99.0423    8.8596   63.0647  O     
35   C        97.4932   10.2458   66.0319  C     
36   C        98.4472    9.0475   66.1532  C     
37   H        93.6537   11.8860   54.0228  H     
38   H        93.9681   11.3960   52.3832  H     
39   H        96.7915    6.5486   55.5103  H     
40   H        95.4339   10.3828   57.3596  H     
41   H        96.8707    7.6553   61.7181  H     
42   H        95.5860   11.6268   59.2362  H     
43   H        96.2367   11.8251   61.5273  H     
44   H        91.6987   10.4275   54.1802  H     
45   H        91.5545   11.4767   52.7677  H     
46   H        92.3419    8.4995   52.7638  H     
47   H        89.9586    8.8002   53.2032  H     
48   H        90.1733    8.1640   51.5681  H     
49   H        89.7722    9.8805   51.8045  H     
50   H        91.9802   10.3316   50.3270  H     
51   H        92.3095    8.5884   50.2912  H     
52   H        93.5339    9.6923   50.9046  H     
53   H        96.3812    9.2135   50.6081  H     
54   H        97.8176    7.8772   49.0691  H     
55   H        98.8993    5.8401   50.1759  H     
56   H        96.6063   10.6446   63.6106  H     
57   H        99.4605   10.6875   65.0675  H     
58   H        97.6655   11.0474   66.7557  H     
59   H        96.4667    9.9916   65.7507  H     
60   H        97.9753    8.0776   65.9621  H     
61   H        99.1664    9.1356   66.9707  H     
@<TRIPOS>BOND
     1    1    2 1
     2    1    6 2
     3    1    9 1
     4    2    3 2
     5    2   26 1
     6    3    4 1
     7    4    5 1
     8    4    8 1
     9    5    6 1
    10    5    7 2
    11    6   10 1
    12    8   22 1
    13   10   12 2
    14   10   13 1
    15   11   12 1
    16   11   15 1
    17   11   16 2
    18   11   17 2
    19   13   14 1
    20   14   15 1
    21   14   19 2
    22   15   18 2
    23   18   21 1
    24   19   20 1
    25   20   21 2
    26   21   31 1
    27   22   23 1
    28   23   24 1
    29   23   25 1
    30   26   27 2
    31   26   30 1
    32   27   28 1
    33   28   29 2
    34   29   30 1
    35   31   32 am
    36   32   33 1
    37   32   34 2
    38   33   35 1
    39   33   36 1
    40   35   36 1
    41    8   37 1
    42    8   38 1
    43    9   39 1
    44   13   40 1
    45   18   41 1
    46   19   42 1
    47   20   43 1
    48   22   44 1
    49   22   45 1
    50   23   46 1
    51   24   47 1
    52   24   48 1
    53   24   49 1
    54   25   50 1
    55   25   51 1
    56   25   52 1
    57   27   53 1
    58   28   54 1
    59   29   55 1
    60   31   56 1
    61   33   57 1
    62   35   58 1
    63   35   59 1
    64   36   60 1
    65   36   61 1
@<TRIPOS>PROPERTY_DATA
  Total_Score	| 5.4384
  Crash		| -2.2816
  Polar		| 0.9703
  FragIndex	| 1
  FragRMSD	| 0.486

