@<TRIPOS>MOLECULE
BindingDB_30438
 57 60 0 0 0
SMALL
NO_CHARGES


@<TRIPOS>ATOM
1    C        95.7731    7.6846   54.5665  C     
2    C        95.9444    8.1051   53.2689  C     
3    N        95.3638    9.2080   52.9234  N     
4    N        94.6132    9.9324   53.6886  N     
5    C        94.4500    9.5851   54.9845  C     
6    C        95.1275    8.4681   55.4813  C     
7    O        93.7318   10.2677   55.7055  O     
8    C        94.0356   11.1040   53.0533  C     
9    O        96.3389    6.5275   54.9442  O     
10   C        95.2748    8.2516   56.8689  C     
11   S        96.2002    6.6997   58.8606  S     
12   N        95.9447    7.1440   57.2689  N     
13   N        94.8202    9.1571   57.7945  N     
14   C        95.0348    9.1334   59.1467  C     
15   C        95.6669    8.0527   59.8048  C     
16   O        95.3838    5.3886   59.2491  O     
17   O        97.7665    6.5473   59.1333  O     
18   C        95.8612    8.0586   61.1934  C     
19   C        94.6118   10.2354   59.9248  C     
20   C        94.7701   10.2310   61.3240  C     
21   C        95.3761    9.1279   61.9734  C     
22   C        92.8619   10.7765   52.0884  C     
23   C        91.8976    9.6401   52.5705  C     
24   C        90.9512   10.1051   53.7096  C     
25   C        91.0693    9.0774   51.3863  C     
26   C        96.7726    7.5042   52.3334  C     
27   C        96.7582    6.1845   51.8313  C     
28   C        97.7769    5.8818   50.9110  C     
29   C        98.6377    6.9416   50.6290  C     
30   S        98.1112    8.2827   51.5692  S     
31   N        95.5181    9.0295   63.3265  N     
32   C        95.6103    7.9283   64.0516  C     
33   C        95.9040    8.0749   65.4520  C     
34   O        95.5461    6.8108   63.5514  O     
35   H        93.6762   11.8425   53.7701  H     
36   H        94.8218   11.5999   52.4770  H     
37   H        97.2035    6.8004   55.3403  H     
38   H        94.3390    9.9232   57.4453  H     
39   H        96.3105    7.2628   61.6444  H     
40   H        94.1590   11.0343   59.4701  H     
41   H        94.4405   11.0225   61.8791  H     
42   H        92.2823   11.6918   51.9216  H     
43   H        93.2923   10.4874   51.1257  H     
44   H        92.5072    8.8151   52.9559  H     
45   H        91.5196   10.3979   54.5945  H     
46   H        90.2843    9.2906   54.0022  H     
47   H        90.3539   10.9553   53.3845  H     
48   H        90.3893    9.8320   50.9990  H     
49   H        90.4932    8.2086   51.7044  H     
50   H        91.7374    8.7634   50.5790  H     
51   H        96.0624    5.4937   52.1096  H     
52   H        97.8847    4.9621   50.4867  H     
53   H        99.4513    6.9259   50.0228  H     
54   H        95.7036    9.8587   63.7946  H     
55   H        96.8686    8.5808   65.5638  H     
56   H        95.9562    7.1181   65.9821  H     
57   H        95.1309    8.6886   65.9158  H     
@<TRIPOS>BOND
     1    1    2 1
     2    1    6 2
     3    1    9 1
     4    2    3 2
     5    2   26 1
     6    3    4 1
     7    4    5 1
     8    4    8 1
     9    5    6 1
    10    5    7 2
    11    6   10 1
    12    8   22 1
    13   10   12 2
    14   10   13 1
    15   11   12 1
    16   11   15 1
    17   11   16 2
    18   11   17 2
    19   13   14 1
    20   14   15 1
    21   14   19 2
    22   15   18 2
    23   18   21 1
    24   19   20 1
    25   20   21 2
    26   21   31 1
    27   22   23 1
    28   23   24 1
    29   23   25 1
    30   26   27 2
    31   26   30 1
    32   27   28 1
    33   28   29 2
    34   29   30 1
    35   31   32 am
    36   32   33 1
    37   32   34 2
    38    8   35 1
    39    8   36 1
    40    9   37 1
    41   13   38 1
    42   18   39 1
    43   19   40 1
    44   20   41 1
    45   22   42 1
    46   22   43 1
    47   23   44 1
    48   24   45 1
    49   24   46 1
    50   24   47 1
    51   25   48 1
    52   25   49 1
    53   25   50 1
    54   27   51 1
    55   28   52 1
    56   29   53 1
    57   31   54 1
    58   33   55 1
    59   33   56 1
    60   33   57 1
@<TRIPOS>PROPERTY_DATA
  Total_Score	| 5.9719
  Crash		| -3.4646
  Polar		| 1.3015
  FragIndex	| 1
  FragRMSD	| 0.954

