@<TRIPOS>MOLECULE
BindingDB_30423
 50 53 0 0 0
SMALL
NO_CHARGES


@<TRIPOS>ATOM
1    C        96.1429    8.0564   54.7426  C     
2    C        96.0741    8.4526   53.4166  C     
3    N        95.2714    9.4250   53.1334  N     
4    N        94.4695   10.0077   53.9666  N     
5    C        94.4262    9.5833   55.2449  C     
6    C        95.3348    8.6255   55.6843  C     
7    O        93.5592   10.0148   55.9977  O     
8    C        93.6309   11.0588   53.4422  C     
9    O        97.1545    7.2623   55.0980  O     
10   C        95.4750    8.3309   57.0587  C     
11   S        96.0848    6.6113   59.0342  S     
12   N        95.8362    7.0815   57.4382  N     
13   N        95.2568    9.3067   57.9876  N     
14   C        95.3120    9.1890   59.3458  C     
15   C        95.6876    7.9933   60.0017  C     
16   O        95.1106    5.4137   59.4150  O     
17   O        97.6139    6.2383   59.2571  O     
18   C        95.7346    7.9337   61.4094  C     
19   C        94.9725   10.3187   60.1221  C     
20   C        95.0051   10.2559   61.5284  C     
21   C        95.3937    9.0670   62.1723  C     
22   C        92.1611   10.6341   53.1684  C     
23   C        91.9673    9.3696   52.2712  C     
24   C        90.4586    9.0286   52.1139  C     
25   C        92.6498    9.5148   50.8846  C     
26   C        96.7850    7.8964   52.3551  C     
27   C        97.1877    6.5655   52.1454  C     
28   C        97.8885    6.3260   50.9494  C     
29   C        98.0715    7.4549   50.1527  C     
30   S        97.3310    8.7689   50.9678  S     
31   H        93.6300   11.8940   54.1497  H     
32   H        94.0484   11.4623   52.5125  H     
33   H        97.7640    7.8318   55.6271  H     
34   H        95.0257   10.1855   57.6474  H     
35   H        96.0086    7.0700   61.8839  H     
36   H        94.6955   11.1944   59.6677  H     
37   H        94.7441   11.0745   62.0829  H     
38   H        95.4198    9.0266   63.1948  H     
39   H        91.6667   10.4599   54.1260  H     
40   H        91.6551   11.4844   52.7040  H     
41   H        92.4323    8.5178   52.7769  H     
42   H        89.9958    8.8744   53.0904  H     
43   H        90.3275    8.1100   51.5363  H     
44   H        89.9309    9.8388   51.6060  H     
45   H        92.3623   10.4480   50.4001  H     
46   H        92.3817    8.6905   50.2268  H     
47   H        93.7343    9.5012   51.0044  H     
48   H        96.9655    5.8055   52.7887  H     
49   H        98.2294    5.4013   50.6805  H     
50   H        98.5497    7.4984   49.2552  H     
@<TRIPOS>BOND
     1    1    2 1
     2    1    6 2
     3    1    9 1
     4    2    3 2
     5    2   26 1
     6    3    4 1
     7    4    5 1
     8    4    8 1
     9    5    6 1
    10    5    7 2
    11    6   10 1
    12    8   22 1
    13   10   12 2
    14   10   13 1
    15   11   12 1
    16   11   15 1
    17   11   16 2
    18   11   17 2
    19   13   14 1
    20   14   15 1
    21   14   19 2
    22   15   18 2
    23   18   21 1
    24   19   20 1
    25   20   21 2
    26   22   23 1
    27   23   24 1
    28   23   25 1
    29   26   27 2
    30   26   30 1
    31   27   28 1
    32   28   29 2
    33   29   30 1
    34    8   31 1
    35    8   32 1
    36    9   33 1
    37   13   34 1
    38   18   35 1
    39   19   36 1
    40   20   37 1
    41   21   38 1
    42   22   39 1
    43   22   40 1
    44   23   41 1
    45   24   42 1
    46   24   43 1
    47   24   44 1
    48   25   45 1
    49   25   46 1
    50   25   47 1
    51   27   48 1
    52   28   49 1
    53   29   50 1
@<TRIPOS>PROPERTY_DATA
  Total_Score	| 5.3511
  Crash		| -1.7042
  Polar		| 0.0047
  FragIndex	| 1
  FragRMSD	| 0.761

