@<TRIPOS>MOLECULE
BindingDB_30439
 61 65 0 0 0
SMALL
NO_CHARGES


@<TRIPOS>ATOM
1    C        96.2924    8.1479   54.5241  C     
2    C        96.1655    8.5629   53.2074  C     
3    N        95.2547    9.4510   52.9827  N     
4    N        94.4448    9.9587   53.8532  N     
5    C        94.4816    9.5216   55.1281  C     
6    C        95.4672    8.6119   55.5041  C     
7    O        93.6483    9.9324   55.9366  O     
8    C        93.6257   11.0766   53.4242  C     
9    O        97.3242    7.3833   54.8727  O     
10   C        95.6422    8.2859   56.8490  C     
11   S        96.1492    6.4447   58.7279  S     
12   N        95.8902    6.9999   57.1671  N     
13   N        95.5604    9.2513   57.8037  N     
14   C        95.6244    9.0719   59.1548  C     
15   C        95.9191    7.8235   59.7424  C     
16   O        95.0453    5.3785   59.1498  O     
17   O        97.6372    5.9171   58.9311  O     
18   C        96.0223    7.6871   61.1359  C     
19   C        95.3742   10.1716   60.0000  C     
20   C        95.4637   10.0287   61.3999  C     
21   C        95.8396    8.7967   61.9900  C     
22   C        92.1347   10.7080   53.1974  C     
23   C        91.8950    9.4280   52.3328  C     
24   C        90.3773    9.0810   52.2375  C     
25   C        92.5684    9.5630   50.9320  C     
26   C        96.9353    8.1404   52.1184  C     
27   C        96.7837    8.5222   50.7715  C     
28   C        97.7020    7.9647   49.8675  C     
29   C        98.6368    7.1113   50.4463  C     
30   S        98.2829    7.0597   52.1228  S     
31   N        96.0201    8.6691   63.3478  N     
32   C        96.7190    9.1815   65.4862  C     
33   C        96.7427    9.4914   64.0936  C     
34   C        95.5701    7.5468   64.1148  C     
35   C        95.7229    8.0091   65.5734  C     
36   O        97.4383   10.4050   63.6672  O     
37   H        93.6721   11.8665   54.1855  H     
38   H        94.0017   11.5288   52.4846  H     
39   H        96.9457    6.6510   55.4065  H     
40   H        95.4185   10.1585   57.4983  H     
41   H        96.2592    6.7747   61.5245  H     
42   H        95.1191   11.0795   59.6062  H     
43   H        95.2579   10.8376   61.9912  H     
44   H        91.6291   10.5598   54.1700  H     
45   H        91.6334   11.5557   52.6996  H     
46   H        92.3738    8.5798   52.8410  H     
47   H        90.0071    8.7907   53.2280  H     
48   H        90.2148    8.2493   51.5495  H     
49   H        89.8045    9.9411   51.8863  H     
50   H        92.3982   10.5709   50.5175  H     
51   H        92.2178    8.7936   50.2236  H     
52   H        93.6592    9.4320   51.0738  H     
53   H        96.0540    9.1628   50.4569  H     
54   H        97.6935    8.1731   48.8719  H     
55   H        99.3868    6.6186   49.9695  H     
56   H        97.7132    8.8815   65.8307  H     
57   H        96.3674   10.0450   66.0601  H     
58   H        94.5335    7.2815   63.8945  H     
59   H        96.2078    6.6763   63.9342  H     
60   H        96.0888    7.2044   66.2206  H     
61   H        94.7608    8.3644   65.9541  H     
@<TRIPOS>BOND
     1    1    2 1
     2    1    6 2
     3    1    9 1
     4    2    3 2
     5    2   26 1
     6    3    4 1
     7    4    5 1
     8    4    8 1
     9    5    6 1
    10    5    7 2
    11    6   10 1
    12    8   22 1
    13   10   12 2
    14   10   13 1
    15   11   12 1
    16   11   15 1
    17   11   16 2
    18   11   17 2
    19   13   14 1
    20   14   15 1
    21   14   19 2
    22   15   18 2
    23   18   21 1
    24   19   20 1
    25   20   21 2
    26   21   31 1
    27   22   23 1
    28   23   24 1
    29   23   25 1
    30   26   27 2
    31   26   30 1
    32   27   28 1
    33   28   29 2
    34   29   30 1
    35   31   33 1
    36   31   34 1
    37   32   33 1
    38   32   35 1
    39   33   36 2
    40   34   35 1
    41    8   37 1
    42    8   38 1
    43    9   39 1
    44   13   40 1
    45   18   41 1
    46   19   42 1
    47   20   43 1
    48   22   44 1
    49   22   45 1
    50   23   46 1
    51   24   47 1
    52   24   48 1
    53   24   49 1
    54   25   50 1
    55   25   51 1
    56   25   52 1
    57   27   53 1
    58   28   54 1
    59   29   55 1
    60   32   56 1
    61   32   57 1
    62   34   58 1
    63   34   59 1
    64   35   60 1
    65   35   61 1
@<TRIPOS>PROPERTY_DATA
  Total_Score	| 5.1099
  Crash		| -3.8251
  Polar		| 0.0005
  FragIndex	| 1
  FragRMSD	| 0.355

