@<TRIPOS>MOLECULE
BindingDB_30422
 54 57 0 0 0
SMALL
NO_CHARGES


@<TRIPOS>ATOM
1    C        95.7234    7.7911   54.7383  C     
2    C        95.9093    8.3100   53.4659  C     
3    N        95.2376    9.3736   53.1775  N     
4    N        94.4304   10.0002   53.9601  N     
5    C        94.3020    9.5888   55.2399  C     
6    C        95.0289    8.4854   55.6873  C     
7    O        93.5525   10.2175   55.9788  O     
8    C        93.7105   11.1125   53.3874  C     
9    O        96.1782    6.5677   55.0072  O     
10   C        95.1446    8.1596   57.0640  C     
11   S        96.0638    6.4739   58.9638  S     
12   N        95.8125    7.0256   57.3989  N     
13   N        94.6839    8.9880   58.0473  N     
14   C        94.9196    8.8881   59.3859  C     
15   C        95.5393    7.7659   59.9844  C     
16   O        95.2349    5.1434   59.2536  O     
17   O        97.6311    6.3086   59.2019  O     
18   C        95.7561    7.7171   61.3723  C     
19   C        94.5544    9.9773   60.2054  C     
20   C        94.7757    9.9311   61.5930  C     
21   C        95.3448    8.7868   62.1910  C     
22   O        95.5269    8.7532   63.5476  O     
23   C        92.2298   10.7654   53.0642  C     
24   C        92.0061    9.4622   52.2299  C     
25   C        90.4948    9.1115   52.1721  C     
26   C        92.6120    9.5350   50.7966  C     
27   C        96.8126    7.8587   52.4969  C     
28   C        96.8978    8.2957   51.1606  C     
29   C        97.9002    7.6973   50.3771  C     
30   C        98.6625    6.7509   51.0593  C     
31   S        98.0653    6.6796   52.6650  S     
32   C        95.4017    7.4301   64.0981  C     
33   H        93.7329   11.9610   54.0769  H     
34   H        94.1951   11.4727   52.4766  H     
35   H        97.0470    6.7297   55.4515  H     
36   H        94.1832    9.7697   57.7678  H     
37   H        96.2121    6.9045   61.7948  H     
38   H        94.1180   10.8139   59.7987  H     
39   H        94.5017   10.7236   62.1736  H     
40   H        91.6909   10.6738   54.0108  H     
41   H        91.7923   11.6100   52.5217  H     
42   H        92.4949    8.6349   52.7513  H     
43   H        90.1034    8.9427   53.1832  H     
44   H        90.3324    8.1990   51.5856  H     
45   H        89.9256    9.9253   51.7131  H     
46   H        92.2339   10.4122   50.2640  H     
47   H        92.3605    8.6423   50.2193  H     
48   H        93.6994    9.5883   50.8392  H     
49   H        96.2828    9.0131   50.7716  H     
50   H        98.0576    7.9334   49.3977  H     
51   H        99.4357    6.2059   50.6788  H     
52   H        94.4269    6.9851   63.8650  H     
53   H        95.5013    7.5052   65.1808  H     
54   H        96.1948    6.7720   63.7303  H     
@<TRIPOS>BOND
     1    1    2 1
     2    1    6 2
     3    1    9 1
     4    2    3 2
     5    2   27 1
     6    3    4 1
     7    4    5 1
     8    4    8 1
     9    5    6 1
    10    5    7 2
    11    6   10 1
    12    8   23 1
    13   10   12 2
    14   10   13 1
    15   11   12 1
    16   11   15 1
    17   11   16 2
    18   11   17 2
    19   13   14 1
    20   14   15 1
    21   14   19 2
    22   15   18 2
    23   18   21 1
    24   19   20 1
    25   20   21 2
    26   21   22 1
    27   22   32 1
    28   23   24 1
    29   24   25 1
    30   24   26 1
    31   27   28 2
    32   27   31 1
    33   28   29 1
    34   29   30 2
    35   30   31 1
    36    8   33 1
    37    8   34 1
    38    9   35 1
    39   13   36 1
    40   18   37 1
    41   19   38 1
    42   20   39 1
    43   23   40 1
    44   23   41 1
    45   24   42 1
    46   25   43 1
    47   25   44 1
    48   25   45 1
    49   26   46 1
    50   26   47 1
    51   26   48 1
    52   28   49 1
    53   29   50 1
    54   30   51 1
    55   32   52 1
    56   32   53 1
    57   32   54 1
@<TRIPOS>PROPERTY_DATA
  Total_Score	| 5.6688
  Crash		| -2.7926
  Polar		| 0.8049
  FragIndex	| 1
  FragRMSD	| 0.474

