@<TRIPOS>MOLECULE
BindingDB_30444
 51 54 0 0 0
SMALL
NO_CHARGES


@<TRIPOS>ATOM
1    C        95.7509    7.7958   54.6662  C     
2    C        95.8933    8.2681   53.3750  C     
3    N        95.2326    9.3255   53.0616  N     
4    N        94.4725   10.0071   53.8514  N     
5    C        94.4477    9.6870   55.1639  C     
6    C        95.1071    8.5355   55.6222  C     
7    O        93.8983   10.4780   55.9237  O     
8    C        93.7228   11.0887   53.2451  C     
9    O        96.2706    6.6061   54.9334  O     
10   C        95.1894    8.2084   57.0069  C     
11   S        96.0978    6.5999   58.9851  S     
12   N        95.8656    7.1011   57.3989  N     
13   N        94.6547    9.0144   57.9765  N     
14   C        94.8719    8.9715   59.3309  C     
15   C        95.5427    7.9054   59.9747  C     
16   O        95.2477    5.2945   59.3421  O     
17   O        97.6578    6.4253   59.2798  O     
18   C        95.7886    7.9240   61.3643  C     
19   C        94.4629   10.0776   60.1075  C     
20   C        94.7172   10.1090   61.4903  C     
21   C        95.3901    9.0371   62.1256  C     
22   C        92.2291   10.7363   52.9850  C     
23   C        91.9716    9.4280   52.1564  C     
24   C        90.4534    9.0944   52.1084  C     
25   C        92.5739    9.4936   50.7088  C     
26   C        96.7673    7.7746   52.4207  C     
27   C        96.8711    6.4572   51.9463  C     
28   C        97.8296    6.2642   50.9525  C     
29   C        98.5398    7.4212   50.6048  C     
30   S        97.9190    8.7111   51.5408  S     
31   C        95.6287    9.0779   63.4074  C     
32   N        95.8359    9.1215   64.5331  N     
33   H        93.7617   11.9766   53.8902  H     
34   H        94.1677   11.3842   52.2883  H     
35   H        97.1464    6.7957   55.3228  H     
36   H        94.1222    9.7607   57.6705  H     
37   H        96.2994    7.1499   61.8067  H     
38   H        93.9815   10.8696   59.6665  H     
39   H        94.4395   10.9332   62.0215  H     
40   H        91.7569   10.6495   53.9689  H     
41   H        91.7422   11.5873   52.4842  H     
42   H        92.4608    8.5923   52.6705  H     
43   H        90.0475    9.0276   53.1246  H     
44   H        90.2855    8.1365   51.6090  H     
45   H        89.8965    9.8635   51.5606  H     
46   H        92.1151   10.2935   50.1247  H     
47   H        92.3902    8.5442   50.1978  H     
48   H        93.6656    9.6464   50.7440  H     
49   H        96.2600    5.7042   52.2627  H     
50   H        97.9887    5.3556   50.5051  H     
51   H        99.2685    7.4930   49.9050  H     
@<TRIPOS>BOND
     1    1    2 1
     2    1    6 2
     3    1    9 1
     4    2    3 2
     5    2   26 1
     6    3    4 1
     7    4    5 1
     8    4    8 1
     9    5    6 1
    10    5    7 2
    11    6   10 1
    12    8   22 1
    13   10   12 2
    14   10   13 1
    15   11   12 1
    16   11   15 1
    17   11   16 2
    18   11   17 2
    19   13   14 1
    20   14   15 1
    21   14   19 2
    22   15   18 2
    23   18   21 1
    24   19   20 1
    25   20   21 2
    26   21   31 1
    27   22   23 1
    28   23   24 1
    29   23   25 1
    30   26   27 2
    31   26   30 1
    32   27   28 1
    33   28   29 2
    34   29   30 1
    35   31   32 3
    36    8   33 1
    37    8   34 1
    38    9   35 1
    39   13   36 1
    40   18   37 1
    41   19   38 1
    42   20   39 1
    43   22   40 1
    44   22   41 1
    45   23   42 1
    46   24   43 1
    47   24   44 1
    48   24   45 1
    49   25   46 1
    50   25   47 1
    51   25   48 1
    52   27   49 1
    53   28   50 1
    54   29   51 1
@<TRIPOS>PROPERTY_DATA
  Total_Score	| 5.8714
  Crash		| -2.3205
  Polar		| 0.8836
  FragIndex	| 1
  FragRMSD	| 0.800

