@<TRIPOS>MOLECULE
BindingDB_30446
 56 60 0 0 0
SMALL
NO_CHARGES


@<TRIPOS>ATOM
1    C        96.0836    7.9299   54.7113  C     
2    C        96.0858    8.4325   53.4232  C     
3    N        95.3196    9.4496   53.2076  N     
4    N        94.4895    9.9594   54.0456  N     
5    C        94.2959    9.3436   55.2229  C     
6    C        95.2139    8.4064   55.6469  C     
7    O        93.2539    9.5233   55.8501  O     
8    C        93.7293   11.0740   53.5205  C     
9    O        97.0938    7.1379   55.0855  O     
10   C        95.3214    8.0876   57.0102  C     
11   S        95.9331    6.2840   58.9075  S     
12   N        95.7222    6.8368   57.3336  N     
13   N        95.0383    9.0141   57.9753  N     
14   C        95.1846    8.8547   59.3291  C     
15   C        95.6074    7.6455   59.9158  C     
16   O        94.8736    5.1597   59.3004  O     
17   O        97.4396    5.8349   59.1468  O     
18   C        95.7726    7.5265   61.3062  C     
19   C        94.9323    9.9504   60.1850  C     
20   C        95.1152    9.8343   61.5808  C     
21   C        95.5422    8.6147   62.1732  C     
22   C        92.1749   10.9260   53.4567  C     
23   C        91.5226   10.0578   52.2996  C     
24   C        92.3696    9.9417   51.0000  C     
25   C        91.0457    8.6378   52.7191  C     
26   C        96.8101    7.9470   52.3468  C     
27   C        97.4357    6.6997   52.1744  C     
28   C        98.0686    6.5024   50.9349  C     
29   C        97.9689    7.5780   50.0570  C     
30   S        97.0664    8.7961   50.8642  S     
31   C        95.7557    8.4890   63.5498  C     
32   N        96.1201    7.7934   65.5032  N     
33   C        95.9658    7.4051   64.2962  C     
34   N        95.8151    9.4402   64.3940  N     
35   N        96.0247    9.0071   65.5286  N     
36   H        93.9181   11.9564   54.1524  H     
37   H        94.1517   11.3148   52.5434  H     
38   H        96.6581    6.4059   55.5790  H     
39   H        94.7427    9.8829   57.6718  H     
40   H        96.0806    6.6256   61.6793  H     
41   H        94.6195   10.8433   59.7899  H     
42   H        94.9268   10.6583   62.1587  H     
43   H        91.8474   10.5816   54.4517  H     
44   H        91.7506   11.9322   53.3458  H     
45   H        90.5951   10.5763   51.9951  H     
46   H        92.7728   10.9208   50.7317  H     
47   H        91.7697    9.5774   50.1664  H     
48   H        93.2092    9.2498   51.1571  H     
49   H        91.8946    7.9725   52.9031  H     
50   H        90.4418    8.1697   51.9343  H     
51   H        90.4265    8.6906   53.6221  H     
52   H        97.4325    5.9640   52.8812  H     
53   H        98.5704    5.6397   50.6925  H     
54   H        98.3649    7.6422   49.1204  H     
55   H        95.9756    6.4544   64.0108  H     
56   H        95.7307   10.3439   64.1847  H     
@<TRIPOS>BOND
     1    1    2 1
     2    1    6 2
     3    1    9 1
     4    2    3 2
     5    2   26 1
     6    3    4 1
     7    4    5 1
     8    4    8 1
     9    5    6 1
    10    5    7 2
    11    6   10 1
    12    8   22 1
    13   10   12 2
    14   10   13 1
    15   11   12 1
    16   11   15 1
    17   11   16 2
    18   11   17 2
    19   13   14 1
    20   14   15 1
    21   14   19 2
    22   15   18 2
    23   18   21 1
    24   19   20 1
    25   20   21 2
    26   21   31 1
    27   22   23 1
    28   23   24 1
    29   23   25 1
    30   26   27 2
    31   26   30 1
    32   27   28 1
    33   28   29 2
    34   29   30 1
    35   31   33 2
    36   31   34 1
    37   32   33 1
    38   32   35 2
    39   34   35 1
    40    8   36 1
    41    8   37 1
    42    9   38 1
    43   13   39 1
    44   18   40 1
    45   19   41 1
    46   20   42 1
    47   22   43 1
    48   22   44 1
    49   23   45 1
    50   24   46 1
    51   24   47 1
    52   24   48 1
    53   25   49 1
    54   25   50 1
    55   25   51 1
    56   27   52 1
    57   28   53 1
    58   29   54 1
    59   33   55 1
    60   34   56 1
@<TRIPOS>PROPERTY_DATA
  Total_Score	| 6.1102
  Crash		| -3.0908
  Polar		| 1.3537
  FragIndex	| 1
  FragRMSD	| 0.878

