@<TRIPOS>MOLECULE
BindingDB_30407
 58 61 0 0 0
SMALL
NO_CHARGES


@<TRIPOS>ATOM
1    N        95.2136    9.2283   52.6469  N     
2    C        96.0308    8.2900   52.9987  C     
3    C        96.0914    7.9767   54.3360  C     
4    N        94.4145    9.8850   53.4235  N     
5    C        94.4592    9.6342   54.7471  C     
6    C        95.3377    8.6612   55.2446  C     
7    O        93.6888   10.2543   55.4700  O     
8    C        93.7012   10.9701   52.7790  C     
9    C        92.2241   11.2867   53.1613  C     
10   C        91.1042   10.1792   53.1495  C     
11   C        91.3748    8.9694   52.2146  C     
12   C        90.6979    9.6829   54.5768  C     
13   O        97.0663    7.1309   54.7170  O     
14   C        95.5256    8.4599   56.6294  C     
15   S        96.1758    6.8428   58.6927  S     
16   N        95.8321    7.2268   57.0874  N     
17   N        95.4168    9.5102   57.5038  N     
18   C        95.5371    9.4705   58.8634  C     
19   C        95.9275    8.3106   59.5678  C     
20   O        97.6975    6.3975   58.8492  O     
21   O        95.1421    5.7442   59.2127  O     
22   C        96.0651    8.3121   60.9615  C     
23   C        95.2518   10.6356   59.6044  C     
24   C        95.3080   10.6225   61.0132  C     
25   C        95.6812    9.4474   61.7056  C     
26   C        96.8446    7.7695   52.0135  C     
27   C        97.1542    6.4245   51.7264  C     
28   C        98.0380    6.2331   50.6503  C     
29   C        98.4902    7.4155   50.0525  C     
30   S        97.7432    8.7225   50.8778  S     
31   N        95.6386    9.4809   63.0730  N     
32   S        96.0799    8.2129   64.1040  S     
33   C        95.2510    6.6483   63.7605  C     
34   O        97.6620    8.0338   64.0915  O     
35   O        95.7094    8.6469   65.5889  O     
36   H        94.2884   11.8740   52.9625  H     
37   H        93.7169   10.8362   51.6861  H     
38   H        92.2475   11.7689   54.1414  H     
39   H        91.8945   12.0669   52.4631  H     
40   H        90.1939   10.6526   52.7637  H     
41   H        91.6811    9.3172   51.2242  H     
42   H        90.4714    8.3624   52.0994  H     
43   H        92.1544    8.3346   52.6343  H     
44   H        91.5207    9.1594   55.0583  H     
45   H        89.8419    9.0074   54.5177  H     
46   H        90.4047   10.5291   55.2026  H     
47   H        96.6368    6.5247   55.3533  H     
48   H        95.2099   10.3827   57.1375  H     
49   H        96.3971    7.4747   61.4308  H     
50   H        94.9516   11.4966   59.1219  H     
51   H        95.0600   11.4813   61.5224  H     
52   H        96.7593    5.6408   52.2488  H     
53   H        98.3480    5.3150   50.3421  H     
54   H        99.1322    7.5013   49.2744  H     
55   H        95.3376   10.3202   63.4797  H     
56   H        94.2411    6.6429   64.1895  H     
57   H        95.8486    5.8570   64.2139  H     
58   H        95.1697    6.4740   62.6803  H     
@<TRIPOS>BOND
     1    1    2 2
     2    1    4 1
     3    2    3 1
     4    2   26 1
     5    3    6 2
     6    3   13 1
     7    4    5 1
     8    4    8 1
     9    5    6 1
    10    5    7 2
    11    6   14 1
    12    8    9 1
    13    9   10 1
    14   10   11 1
    15   10   12 1
    16   14   16 2
    17   14   17 1
    18   15   16 1
    19   15   19 1
    20   15   20 2
    21   15   21 2
    22   17   18 1
    23   18   19 2
    24   18   23 1
    25   19   22 1
    26   22   25 2
    27   23   24 2
    28   24   25 1
    29   25   31 1
    30   26   27 2
    31   26   30 1
    32   27   28 1
    33   28   29 2
    34   29   30 1
    35   31   32 1
    36   32   33 1
    37   32   34 2
    38   32   35 2
    39    8   36 1
    40    8   37 1
    41    9   38 1
    42    9   39 1
    43   10   40 1
    44   11   41 1
    45   11   42 1
    46   11   43 1
    47   12   44 1
    48   12   45 1
    49   12   46 1
    50   13   47 1
    51   17   48 1
    52   22   49 1
    53   23   50 1
    54   24   51 1
    55   27   52 1
    56   28   53 1
    57   29   54 1
    58   31   55 1
    59   33   56 1
    60   33   57 1
    61   33   58 1
@<TRIPOS>PROPERTY_DATA
  Total_Score	| 7.6826
  Crash		| -2.5635
  Polar		| 2.2928
  FragIndex	| 1
  FragRMSD	| 1.044

