@<TRIPOS>MOLECULE
BindingDB_30445
 54 57 0 0 0
SMALL
NO_CHARGES


@<TRIPOS>ATOM
1    C        95.9230    8.2653   54.9654  C     
2    C        95.7859    8.7727   53.6798  C     
3    N        94.8565    9.6534   53.4985  N     
4    N        94.0104   10.0691   54.3751  N     
5    C        94.0902    9.5888   55.6356  C     
6    C        95.0939    8.6826   55.9661  C     
7    O        93.2153    9.8734   56.4445  O     
8    C        93.0020   11.0249   53.9457  C     
9    O        96.9846    7.5011   55.2465  O     
10   C        95.2825    8.2721   57.3052  C     
11   S        95.9643    6.3779   59.0771  S     
12   N        95.6497    6.9914   57.5441  N     
13   N        95.0975    9.1577   58.3208  N     
14   C        95.2455    8.9237   59.6633  C     
15   C        95.6615    7.6808   60.1820  C     
16   O        94.9834    5.1806   59.4296  O     
17   O        97.4937    5.9564   59.1796  O     
18   C        95.8089    7.4915   61.5710  C     
19   C        94.9717    9.9721   60.5648  C     
20   C        95.1166    9.7785   61.9560  C     
21   C        95.5418    8.5391   62.4937  C     
22   C        92.5752   11.0197   52.4500  C     
23   C        92.2193    9.6179   51.8527  C     
24   C        90.7507    9.2061   52.1479  C     
25   C        92.5345    9.5526   50.3335  C     
26   C        96.5062    8.3771   52.5534  C     
27   C        96.4916    9.0126   51.2932  C     
28   C        97.2590    8.4086   50.2873  C     
29   C        97.9171    7.2471   50.6873  C     
30   S        97.5254    7.0033   52.3452  S     
31   C        95.6848    8.3495   63.8788  C     
32   N        96.0085    7.1988   64.4257  N     
33   O        95.4886    9.2610   64.6741  O     
34   H        92.0913   10.9000   54.5323  H     
35   H        93.3859   12.0212   54.1798  H     
36   H        97.7071    8.1281   55.4697  H     
37   H        94.8375   10.0624   58.0734  H     
38   H        96.1068    6.5718   61.9015  H     
39   H        94.6601   10.8821   60.2195  H     
40   H        94.8971   10.5669   62.5741  H     
41   H        91.7221   11.6946   52.3216  H     
42   H        93.3957   11.4602   51.8796  H     
43   H        92.8529    8.8622   52.3239  H     
44   H        90.5920    9.1020   53.2232  H     
45   H        90.5235    8.2434   51.6875  H     
46   H        90.0527    9.9527   51.7625  H     
47   H        91.8991   10.2356   49.7655  H     
48   H        92.3837    8.5386   49.9595  H     
49   H        93.5799    9.8180   50.1479  H     
50   H        95.9625    9.8687   51.1184  H     
51   H        97.3193    8.7833   49.3358  H     
52   H        98.4962    6.6420   50.1035  H     
53   H        96.0810    7.1122   65.3904  H     
54   H        96.1643    6.4193   63.8714  H     
@<TRIPOS>BOND
     1    1    2 1
     2    1    6 2
     3    1    9 1
     4    2    3 2
     5    2   26 1
     6    3    4 1
     7    4    5 1
     8    4    8 1
     9    5    6 1
    10    5    7 2
    11    6   10 1
    12    8   22 1
    13   10   12 2
    14   10   13 1
    15   11   12 1
    16   11   15 1
    17   11   16 2
    18   11   17 2
    19   13   14 1
    20   14   15 1
    21   14   19 2
    22   15   18 2
    23   18   21 1
    24   19   20 1
    25   20   21 2
    26   21   31 1
    27   22   23 1
    28   23   24 1
    29   23   25 1
    30   26   27 2
    31   26   30 1
    32   27   28 1
    33   28   29 2
    34   29   30 1
    35   31   32 am
    36   31   33 2
    37    8   34 1
    38    8   35 1
    39    9   36 1
    40   13   37 1
    41   18   38 1
    42   19   39 1
    43   20   40 1
    44   22   41 1
    45   22   42 1
    46   23   43 1
    47   24   44 1
    48   24   45 1
    49   24   46 1
    50   25   47 1
    51   25   48 1
    52   25   49 1
    53   27   50 1
    54   28   51 1
    55   29   52 1
    56   32   53 1
    57   32   54 1
@<TRIPOS>PROPERTY_DATA
  Total_Score	| 5.0040
  Crash		| -3.0747
  Polar		| 1.0836
  FragIndex	| 1
  FragRMSD	| 0.645

