@<TRIPOS>MOLECULE
BindingDB_50326680
 61 64 0 0 0
SMALL
NO_CHARGES


@<TRIPOS>ATOM
1    N       126.9453    0.7859    6.5976  N     
2    C       127.2939   -0.4719    6.2128  C     
3    N       127.8703   -0.6694    4.9975  N     
4    C       128.1427    0.3592    4.1535  C     
5    C       127.8005    1.6651    4.5382  C     
6    N       128.0419    2.7624    3.7753  N     
7    C       127.7039    3.9958    4.1306  C     
8    C       127.0464    4.1681    5.3303  C     
9    N       126.8136    3.1266    6.1224  N     
10   C       127.1733    1.8558    5.7896  C     
11   C       128.0522    5.0869    3.2257  C     
12   C       133.3482    6.0444    7.0565  C     
13   C       132.2033    6.1054    6.2415  C     
14   C       131.7384    4.9883    5.5070  C     
15   C       130.5806    5.0574    4.7140  C     
16   C       129.7905    6.2370    4.6045  C     
17   C       130.2939    7.3623    5.3136  C     
18   C       131.4507    7.2991    6.1138  C     
19   O       133.7447    7.0581    7.6237  O     
20   C       135.1177    4.7147    8.1508  C     
21   C       135.5711    3.2303    8.1361  C     
22   C       136.3406    2.8354    9.3472  C     
23   C       137.7494    2.7339    9.3359  C     
24   C       138.4456    2.3226   10.4878  C     
25   C       137.7445    1.9994   11.6686  C     
26   C       136.3374    2.0817   11.6808  C     
27   C       135.6454    2.5037   10.5327  C     
28   S       138.6116    1.5121   13.0959  S     
29   O       139.7211    2.6148   13.3882  O     
30   O       139.4301    0.1674   12.8762  O     
31   N       128.6116    6.2746    3.8677  N     
32   N       134.0292    4.9152    7.2432  N     
33   N       137.6879    1.3990   14.4951  N     
34   N       128.7226    0.1272    2.9658  N     
35   N       127.0836   -1.5245    7.0202  N     
36   C       127.8827    7.5202    3.6881  C     
37   H       126.7481    5.0670    5.6222  H     
38   H       128.7786    4.7492    2.4783  H     
39   H       127.1445    5.2907    2.6534  H     
40   H       132.2376    4.0983    5.5274  H     
41   H       130.3346    4.2113    4.2030  H     
42   H       129.8087    8.2569    5.2867  H     
43   H       131.7353    8.1483    6.6091  H     
44   H       134.7932    5.0082    9.1524  H     
45   H       135.9601    5.3502    7.8626  H     
46   H       134.6993    2.5726    8.0724  H     
47   H       136.1588    3.0571    7.2281  H     
48   H       138.2794    2.9623    8.4914  H     
49   H       139.4658    2.2591   10.4602  H     
50   H       135.8046    1.8313   12.5172  H     
51   H       134.6238    2.5506   10.5611  H     
52   H       133.7290    4.1294    6.7627  H     
53   H       136.9834    0.7363   14.5491  H     
54   H       137.7235    2.1122   15.1504  H     
55   H       128.9181    0.8678    2.3698  H     
56   H       128.9139   -0.7766    2.6862  H     
57   H       126.7334   -1.3979    7.9187  H     
58   H       127.3387   -2.4156    6.7288  H     
59   H       127.0009    7.4437    3.0492  H     
60   H       128.5356    8.2637    3.2282  H     
61   H       127.5396    7.8895    4.6544  H     
@<TRIPOS>BOND
     1    1    2 1
     2    2    3 2
     3    3    4 1
     4    4    5 2
     5    5    6 1
     6    6    7 2
     7    7    8 1
     8    8    9 2
     9    9   10 1
    10    1   10 2
    11    5   10 1
    12    7   11 1
    13   12   13 1
    14   13   14 1
    15   14   15 2
    16   15   16 1
    17   16   17 2
    18   17   18 1
    19   13   18 2
    20   12   19 2
    21   20   21 1
    22   21   22 1
    23   22   23 1
    24   23   24 2
    25   24   25 1
    26   25   26 2
    27   26   27 1
    28   22   27 2
    29   28   29 2
    30   28   30 2
    31   25   28 1
    32   11   31 1
    33   16   31 1
    34   12   32 am
    35   20   32 1
    36   28   33 am
    37    4   34 1
    38    2   35 1
    39   31   36 1
    40    8   37 1
    41   11   38 1
    42   11   39 1
    43   14   40 1
    44   15   41 1
    45   17   42 1
    46   18   43 1
    47   20   44 1
    48   20   45 1
    49   21   46 1
    50   21   47 1
    51   23   48 1
    52   24   49 1
    53   26   50 1
    54   27   51 1
    55   32   52 1
    56   33   53 1
    57   33   54 1
    58   34   55 1
    59   34   56 1
    60   35   57 1
    61   35   58 1
    62   36   59 1
    63   36   60 1
    64   36   61 1
@<TRIPOS>PROPERTY_DATA
  Total_Score	| 7.1916
  Crash		| -2.5463
  Polar		| 3.6186
  FragIndex	| 1
  FragRMSD	| 0.340

