@<TRIPOS>MOLECULE
BindingDB_50028603
 55 57 0 0 0
SMALL
NO_CHARGES


@<TRIPOS>ATOM
1    N       127.8605   -0.6940    5.0076  N     
2    N       126.8663    0.6868    6.6417  N     
3    C       127.7165    1.6533    4.6198  C     
4    C       127.0670    1.7880    5.8714  C     
5    C       128.1010    0.3699    4.1980  C     
6    C       127.2598   -0.5466    6.2194  C     
7    N       127.9366    2.7745    3.8937  N     
8    C       133.6432    5.3998    6.7091  C     
9    N       126.6712    3.0389    6.2347  N     
10   N       133.9987    4.2045    7.2164  N     
11   C       127.5689    3.9867    4.2869  C     
12   C       136.3110    3.7515    6.7940  C     
13   N       128.6775    6.1765    3.9601  N     
14   C       127.4675    8.0588    4.6218  C     
15   C       135.2474    3.7937    7.8267  C     
16   C       126.7900    8.5169    5.4999  C     
17   C       132.3946    5.5970    6.0736  C     
18   C       127.8675    5.0950    3.3924  C     
19   C       136.6570    3.0605   10.9928  C     
20   C       129.8626    5.9761    4.6639  C     
21   O       134.4416    6.3315    6.8638  O     
22   O       136.5159    2.6204    6.0740  O     
23   C       126.8921    4.1086    5.4765  C     
24   O       136.5492    1.8886   11.6181  O     
25   N       128.7036    0.2026    3.0072  N     
26   C       131.7876    4.5594    5.3283  C     
27   C       131.6792    6.8161    6.1361  C     
28   C       130.5752    4.7490    4.6332  C     
29   C       130.4544    6.9914    5.4681  C     
30   N       127.0720   -1.6254    6.9925  N     
31   C       135.5880    4.5567    9.1527  C     
32   C       135.4921    3.8195   10.5283  C     
33   C       128.2164    7.5172    3.6164  C     
34   O       137.2775    4.7068    6.7130  O     
35   O       137.8885    3.5074   10.5953  O     
36   H       133.3137    3.5107    7.1556  H     
37   H       135.1401    2.7528    8.0932  H     
38   H       126.2749    8.8577    6.1747  H     
39   H       128.3719    4.7396    2.4860  H     
40   H       126.8790    5.4341    3.0577  H     
41   H       126.5584    4.9903    5.7816  H     
42   H       128.8780    0.9737    2.4407  H     
43   H       128.9339   -0.6832    2.6931  H     
44   H       132.2520    3.6564    5.2325  H     
45   H       132.0478    7.5893    6.6870  H     
46   H       130.2368    3.9789    4.0534  H     
47   H       129.9873    7.8959    5.5915  H     
48   H       126.6958   -1.5309    7.8805  H     
49   H       127.3537   -2.4987    6.6809  H     
50   H       136.5992    5.0033    9.0852  H     
51   H       134.9040    5.4293    9.2171  H     
52   H       134.6840    3.0801   10.5046  H     
53   H       135.2558    4.5614   11.3085  H     
54   H       129.0650    8.1728    3.3950  H     
55   H       127.5881    7.5343    2.7134  H     
@<TRIPOS>BOND
     1    1    5 1
     2    1    6 2
     3    2    4 2
     4    2    6 1
     5    3    4 1
     6    3    5 2
     7    3    7 1
     8    4    9 1
     9    5   25 1
    10    6   30 1
    11    7   11 2
    12    8   10 am
    13    8   17 1
    14    8   21 2
    15    9   23 2
    16   10   15 1
    17   11   18 1
    18   11   23 1
    19   12   15 1
    20   12   22 2
    21   12   34 1
    22   13   18 1
    23   13   20 1
    24   13   33 1
    25   14   16 3
    26   14   33 1
    27   15   31 1
    28   17   26 1
    29   17   27 2
    30   19   24 2
    31   19   32 1
    32   19   35 1
    33   20   28 1
    34   20   29 2
    35   26   28 2
    36   27   29 1
    37   31   32 1
    38   10   36 1
    39   15   37 1
    40   16   38 1
    41   18   39 1
    42   18   40 1
    43   23   41 1
    44   25   42 1
    45   25   43 1
    46   26   44 1
    47   27   45 1
    48   28   46 1
    49   29   47 1
    50   30   48 1
    51   30   49 1
    52   31   50 1
    53   31   51 1
    54   32   52 1
    55   32   53 1
    56   33   54 1
    57   33   55 1
@<TRIPOS>PROPERTY_DATA
  Total_Score	| 8.3628
  Crash		| -2.1252
  Polar		| 4.6059
  FragIndex	| 1
  FragRMSD	| 0.605

