@<TRIPOS>MOLECULE
BindingDB_50016461
 51 53 0 0 0
SMALL
NO_CHARGES


@<TRIPOS>ATOM
1    N       127.8659   -0.6802    4.9520  N     
2    N       126.9369    0.7194    6.5937  N     
3    C       127.8536    1.6818    4.5896  C     
4    C       127.1987    1.8132    5.8404  C     
5    C       128.1697    0.3762    4.1529  C     
6    C       127.2643   -0.5228    6.1598  C     
7    N       128.1393    2.8086    3.8829  N     
8    C       133.7786    5.5148    7.4021  C     
9    N       126.8376    3.0538    6.2516  N     
10   N       134.3249    4.3172    7.6002  N     
11   C       136.5473    3.7940    7.0264  C     
12   C       135.6313    4.0239    8.1574  C     
13   C       132.5994    5.6855    6.6554  C     
14   C       136.5619    1.9728   11.3398  C     
15   O       134.3542    6.5055    7.8267  O     
16   O       137.4563    4.7527    6.7150  O     
17   C       127.8234    4.0578    4.3156  C     
18   O       135.7329    2.4663   12.2965  O     
19   N       128.7534    0.1609    2.9591  N     
20   N       127.0117   -1.5859    6.9408  N     
21   C       135.5522    2.8651    9.1977  C     
22   C       131.9978    4.6150    5.9401  C     
23   C       131.9615    6.9502    6.5701  C     
24   C       127.1116    4.1725    5.5280  C     
25   C       136.8133    2.7393   10.1059  C     
26   O       136.6447    2.6053    6.3598  O     
27   C       130.1974    6.0684    5.0993  C     
28   O       137.2969    0.8667   11.6257  O     
29   C       130.8335    4.8018    5.1707  C     
30   C       130.7964    7.1391    5.8080  C     
31   C       128.2408    5.2369    3.5087  C     
32   C       128.9536    6.3592    4.3189  C     
33   H       133.8346    3.5440    7.2807  H     
34   H       136.0073    4.9062    8.6850  H     
35   H       128.9738    0.9114    2.3814  H     
36   H       128.9319   -0.7467    2.6689  H     
37   H       126.6345   -1.4556    7.8306  H     
38   H       127.2464   -2.4763    6.6357  H     
39   H       134.6919    3.0450    9.8405  H     
40   H       135.3792    1.9210    8.6781  H     
41   H       132.4210    3.6787    5.9545  H     
42   H       132.3400    7.7611    7.0594  H     
43   H       126.8098    5.0772    5.8896  H     
44   H       137.1468    3.7423   10.3974  H     
45   H       137.6284    2.2681    9.5520  H     
46   H       130.4619    4.0004    4.6575  H     
47   H       130.3748    8.0771    5.7806  H     
48   H       128.8904    4.9202    2.6931  H     
49   H       127.3477    5.6582    3.0540  H     
50   H       128.2220    6.7816    5.0145  H     
51   H       129.1889    7.1548    3.6111  H     
@<TRIPOS>BOND
     1    1    5 2
     2    1    6 1
     3    2    4 1
     4    2    6 2
     5    3    4 1
     6    3    5 1
     7    3    7 2
     8    4    9 2
     9    5   19 1
    10    6   20 1
    11    7   17 1
    12    8   10 am
    13    8   13 1
    14    8   15 2
    15    9   24 1
    16   10   12 1
    17   12   11 1
    18   11   16 2
    19   11   26 1
    20   12   21 1
    21   13   22 1
    22   13   23 2
    23   14   18 2
    24   14   25 1
    25   14   28 1
    26   17   24 2
    27   17   31 1
    28   21   25 1
    29   22   29 2
    30   23   30 1
    31   27   29 1
    32   27   30 2
    33   27   32 1
    34   31   32 1
    35   10   33 1
    36   12   34 1
    37   19   35 1
    38   19   36 1
    39   20   37 1
    40   20   38 1
    41   21   39 1
    42   21   40 1
    43   22   41 1
    44   23   42 1
    45   24   43 1
    46   25   44 1
    47   25   45 1
    48   29   46 1
    49   30   47 1
    50   31   48 1
    51   31   49 1
    52   32   50 1
    53   32   51 1
@<TRIPOS>PROPERTY_DATA
  Total_Score	| 7.6752
  Crash		| -1.4348
  Polar		| 4.5939
  FragIndex	| 1
  FragRMSD	| 0.198

