@<TRIPOS>MOLECULE
BindingDB_50004544
 57 59 0 0 0
SMALL
NO_CHARGES


@<TRIPOS>ATOM
1    N       127.9019   -0.7807    5.0392  N     
2    N       126.8724    0.5249    6.6998  N     
3    C       127.7973    1.5849    4.7508  C     
4    C       127.1047    1.6509    5.9817  C     
5    C       128.1750    0.3134    4.2788  C     
6    C       127.2730   -0.6866    6.2413  C     
7    N       128.0508    2.7578    4.1083  N     
8    C       133.4602    5.3183    7.6535  C     
9    N       126.6805    2.8681    6.4083  N     
10   N       134.2647    4.2829    7.4288  N     
11   C       136.5175    3.7659    6.9832  C     
12   C       135.4971    3.8603    8.0529  C     
13   C       132.2562    5.4762    6.9486  C     
14   C       127.6511    3.9411    4.5672  C     
15   C       137.0639    2.7261   10.6466  C     
16   C       129.8237    5.9250    5.4701  C     
17   O       133.7653    6.1606    8.4897  O     
18   C       127.9750    5.1466    3.8171  C     
19   C       128.6163    6.3075    4.6550  C     
20   O       137.3461    4.7980    6.6776  O     
21   O       138.1083    1.9105   10.9022  O     
22   N       128.7795    0.1699    3.0897  N     
23   C       131.2007    6.2602    7.4805  C     
24   C       132.0444    4.8891    5.6732  C     
25   N       127.0581   -1.7786    6.9893  N     
26   C       130.0122    6.4739    6.7592  C     
27   C       130.8568    5.1127    4.9468  C     
28   C       126.9060    3.9804    5.7231  C     
29   C       136.0299    4.6323    9.3004  C     
30   C       137.2931    4.0071    9.9596  C     
31   O       136.6910    2.6174    6.2819  O     
32   O       135.8309    2.3266   11.0470  O     
33   C       128.9606    7.5528    3.7786  C     
34   C       127.7472    8.2168    3.0784  C     
35   H       133.9393    3.6741    6.7509  H     
36   H       135.2937    2.8425    8.3956  H     
37   H       128.6378    4.9037    2.9799  H     
38   H       127.0389    5.5026    3.3887  H     
39   H       127.8363    6.6446    5.3466  H     
40   H       128.9832    0.9487    2.5504  H     
41   H       128.9789   -0.7126    2.7478  H     
42   H       131.2880    6.6918    8.4065  H     
43   H       132.7734    4.3224    5.2342  H     
44   H       126.6588   -1.6872    7.8695  H     
45   H       127.3465   -2.6497    6.6748  H     
46   H       129.2944    7.0703    7.1760  H     
47   H       130.7652    4.7056    4.0145  H     
48   H       126.5364    4.8327    6.0654  H     
49   H       136.2443    5.6661    9.0290  H     
50   H       135.2468    4.6624   10.0583  H     
51   H       137.6705    4.7128   10.7077  H     
52   H       138.0735    3.8638    9.2074  H     
53   H       129.4211    8.3173    4.4119  H     
54   H       129.7000    7.2756    3.0284  H     
55   H       127.3035    7.5513    2.3371  H     
56   H       128.0639    9.1306    2.5719  H     
57   H       126.9825    8.4824    3.8113  H     
@<TRIPOS>BOND
     1    1    5 1
     2    1    6 2
     3    2    4 2
     4    2    6 1
     5    3    4 1
     6    3    5 2
     7    3    7 1
     8    4    9 1
     9    5   22 1
    10    6   25 1
    11    7   14 2
    12    8   10 am
    13    8   13 1
    14    8   17 2
    15    9   28 2
    16   10   12 1
    17   11   12 1
    18   11   20 2
    19   11   31 1
    20   12   29 1
    21   13   23 2
    22   13   24 1
    23   14   18 1
    24   14   28 1
    25   15   21 2
    26   15   30 1
    27   15   32 1
    28   16   19 1
    29   16   26 2
    30   16   27 1
    31   18   19 1
    32   19   33 1
    33   23   26 1
    34   24   27 2
    35   29   30 1
    36   33   34 1
    37   10   35 1
    38   12   36 1
    39   18   37 1
    40   18   38 1
    41   19   39 1
    42   22   40 1
    43   22   41 1
    44   23   42 1
    45   24   43 1
    46   25   44 1
    47   25   45 1
    48   26   46 1
    49   27   47 1
    50   28   48 1
    51   29   49 1
    52   29   50 1
    53   30   51 1
    54   30   52 1
    55   33   53 1
    56   33   54 1
    57   34   55 1
    58   34   56 1
    59   34   57 1
@<TRIPOS>PROPERTY_DATA
  Total_Score	| 6.9238
  Crash		| -2.4006
  Polar		| 4.6987
  FragIndex	| 1
  FragRMSD	| 0.323

