@<TRIPOS>MOLECULE
BindingDB_50016460
 57 59 0 0 0
SMALL
NO_CHARGES


@<TRIPOS>ATOM
1    N       127.9776   -0.5837    4.9456  N     
2    N       126.8436    0.7493    6.5116  N     
3    C       127.6820    1.7527    4.4951  C     
4    C       126.9794    1.8413    5.7188  C     
5    C       128.1508    0.4726    4.1076  C     
6    C       127.3491   -0.4550    6.1441  C     
7    N       127.9057    2.8998    3.7972  N     
8    C       123.0396    7.6759   -0.2895  C     
9    N       126.4814    3.0428    6.0945  N     
10   N       123.0052    8.7687   -1.0455  N     
11   C       122.7500    9.3885   -3.3006  C     
12   C       122.0309    9.1451   -2.0321  C     
13   C       124.0821    7.4542    0.6261  C     
14   C       127.4379    4.1260    4.1750  C     
15   C       119.1246    9.2262   -2.2866  C     
16   C       126.2159    6.9819    2.5042  C     
17   O       122.1093    6.8780   -0.3557  O     
18   C       127.9492    5.3176    3.4379  C     
19   C       127.3345    6.7682    3.4848  C     
20   O       123.6324   10.4059   -3.4262  O     
21   O       119.1516    8.6241   -3.4954  O     
22   N       128.7436    0.2761    2.9198  N     
23   C       123.9711    6.4729    1.6460  C     
24   C       125.2902    8.1950    0.5744  C     
25   N       127.2501   -1.5062    6.9739  N     
26   C       126.3291    7.9664    1.4931  C     
27   C       125.0121    6.2457    2.5677  C     
28   C       126.6681    4.1664    5.3570  C     
29   C       121.2481   10.4018   -1.5499  C     
30   C       119.7912   10.5245   -2.0776  C     
31   O       122.6181    8.5341   -4.3374  O     
32   O       118.5070    8.5968   -1.2631  O     
33   C       126.9769    7.4328    4.8601  C     
34   C       128.0671    7.2982    5.9494  C     
35   H       123.7302    9.3978   -0.9198  H     
36   H       121.3098    8.3381   -2.1927  H     
37   H       128.9893    5.4049    3.7619  H     
38   H       127.9962    5.0375    2.3820  H     
39   H       128.1734    7.3844    3.1349  H     
40   H       128.8646    1.0176    2.3080  H     
41   H       129.0208   -0.6138    2.6573  H     
42   H       123.1183    5.9171    1.7429  H     
43   H       125.4480    8.9006   -0.1487  H     
44   H       126.8628   -1.3991    7.8601  H     
45   H       127.6182   -2.3650    6.7107  H     
46   H       127.1786    8.5318    1.4103  H     
47   H       124.8832    5.5276    3.2786  H     
48   H       126.2753    5.0285    5.6991  H     
49   H       121.2191   10.4025   -0.4579  H     
50   H       121.7923   11.3002   -1.8493  H     
51   H       119.7925   11.0903   -3.0114  H     
52   H       119.2010   11.0907   -1.3537  H     
53   H       126.8324    8.5063    4.6909  H     
54   H       126.0265    7.0652    5.2581  H     
55   H       128.1955    6.2567    6.2449  H     
56   H       127.7771    7.8730    6.8332  H     
57   H       129.0212    7.6814    5.5802  H     
@<TRIPOS>BOND
     1    1    5 2
     2    1    6 1
     3    2    4 1
     4    2    6 2
     5    3    4 1
     6    3    5 1
     7    3    7 2
     8    4    9 2
     9    5   22 1
    10    6   25 1
    11    7   14 1
    12    8   10 am
    13    8   13 1
    14    8   17 2
    15    9   28 1
    16   10   12 1
    17   12   11 1
    18   11   20 2
    19   11   31 1
    20   12   29 1
    21   13   23 2
    22   13   24 1
    23   14   18 1
    24   14   28 2
    25   15   21 2
    26   15   30 1
    27   15   32 1
    28   16   19 1
    29   16   26 1
    30   16   27 2
    31   18   19 1
    32   19   33 1
    33   23   27 1
    34   24   26 2
    35   29   30 1
    36   33   34 1
    37   10   35 1
    38   12   36 1
    39   18   37 1
    40   18   38 1
    41   19   39 1
    42   22   40 1
    43   22   41 1
    44   23   42 1
    45   24   43 1
    46   25   44 1
    47   25   45 1
    48   26   46 1
    49   27   47 1
    50   28   48 1
    51   29   49 1
    52   29   50 1
    53   30   51 1
    54   30   52 1
    55   33   53 1
    56   33   54 1
    57   34   55 1
    58   34   56 1
    59   34   57 1
@<TRIPOS>PROPERTY_DATA
  Total_Score	| 7.6600
  Crash		| -1.8302
  Polar		| 3.1039
  FragIndex	| 1
  FragRMSD	| 0.216

