@<TRIPOS>MOLECULE
BindingDB_50008291
 54 56 0 0 0
SMALL
NO_CHARGES


@<TRIPOS>ATOM
1    N       126.8696    0.7903    6.4877  N     
2    C       127.7573    1.6776    4.4434  C     
3    N       128.0409   -0.6216    5.0083  N     
4    C       127.0414    1.8505    5.6560  C     
5    C       128.2608    0.4018    4.1408  C     
6    C       127.3605   -0.4386    6.1722  C     
7    N       127.9229    2.7694    3.6500  N     
8    C       132.9193    4.6415    6.9220  C     
9    N       126.5586    3.0915    5.9304  N     
10   N       134.2206    4.7254    6.6908  N     
11   C       127.4480    3.9805    3.9410  C     
12   C       136.4591    3.9423    6.6545  C     
13   N       128.5752    6.1527    3.6601  N     
14   C       127.5538    7.9516    4.7613  C     
15   C       135.2733    4.1908    7.5129  C     
16   C       127.1237    8.3525    5.8050  C     
17   C       131.9888    5.0992    6.0028  C     
18   C       127.7643    5.0916    3.0407  C     
19   C       135.9250    3.7359   10.7768  C     
20   O       128.9666    0.1961    3.0014  O     
21   C       129.7670    5.8738    4.3267  C     
22   O       132.4989    4.1265    7.9496  O     
23   O       136.5254    2.8261    5.8971  O     
24   N       127.1930   -1.4760    7.0058  N     
25   C       126.7460    4.1312    5.1178  C     
26   O       136.0058    2.3872   10.6867  O     
27   C       131.4499    4.2092    5.0521  C     
28   C       131.4951    6.4213    6.0318  C     
29   C       130.4113    6.7973    5.2068  C     
30   C       130.4094    4.6122    4.1984  C     
31   C       135.5353    5.1559    8.7158  C     
32   C       136.5480    4.6042    9.7590  C     
33   C       128.0484    7.5129    3.5611  C     
34   O       137.5324    4.7653    6.6281  O     
35   O       135.3650    4.2724   11.8840  O     
36   H       134.4862    5.1317    5.8486  H     
37   H       134.9984    3.2189    7.9363  H     
38   H       126.8052    8.6624    6.6092  H     
39   H       128.3059    4.7445    2.1553  H     
40   H       126.8010    5.4415    2.6686  H     
41   H       128.5802   -0.6059    2.5907  H     
42   H       127.5388   -2.3489    6.7618  H     
43   H       126.7597   -1.3600    7.8724  H     
44   H       126.3706    5.0115    5.3762  H     
45   H       131.8022    3.2482    4.9753  H     
46   H       131.8688    7.0955    6.7090  H     
47   H       130.0734    7.7530    5.3190  H     
48   H       130.1072    3.9349    3.4911  H     
49   H       135.9078    6.1129    8.3431  H     
50   H       134.5884    5.3652    9.2265  H     
51   H       137.0186    5.4477   10.2752  H     
52   H       137.3471    4.0497    9.2568  H     
53   H       128.8351    8.1887    3.2198  H     
54   H       127.2448    7.6174    2.8340  H     
@<TRIPOS>BOND
     1    1    4 2
     2    1    6 1
     3    2    4 1
     4    2    5 2
     5    2    7 1
     6    3    5 1
     7    3    6 2
     8    4    9 1
     9    5   20 1
    10    6   24 1
    11    7   11 2
    12    8   10 am
    13    8   17 1
    14    8   22 2
    15    9   25 2
    16   10   15 1
    17   11   18 1
    18   11   25 1
    19   12   15 1
    20   12   23 2
    21   12   34 1
    22   13   18 1
    23   13   21 1
    24   13   33 1
    25   14   16 3
    26   14   33 1
    27   15   31 1
    28   17   27 2
    29   17   28 1
    30   19   26 2
    31   19   32 1
    32   19   35 1
    33   21   29 1
    34   21   30 2
    35   27   30 1
    36   28   29 2
    37   31   32 1
    38   10   36 1
    39   15   37 1
    40   16   38 1
    41   18   39 1
    42   18   40 1
    43   20   41 1
    44   24   42 1
    45   24   43 1
    46   25   44 1
    47   27   45 1
    48   28   46 1
    49   29   47 1
    50   30   48 1
    51   31   49 1
    52   31   50 1
    53   32   51 1
    54   32   52 1
    55   33   53 1
    56   33   54 1
@<TRIPOS>PROPERTY_DATA
  Total_Score	| 8.1692
  Crash		| -1.9401
  Polar		| 4.7481
  FragIndex	| 1
  FragRMSD	| 0.856

