@<TRIPOS>MOLECULE
BindingDB_50292724
 32 33 0 0 0
SMALL
NO_CHARGES


@<TRIPOS>ATOM
1    C        35.5986   -4.4675   13.7490  C     
2    C        36.3346   -3.3606   13.5267  C     
3    N        36.0107   -2.4742   12.5395  N     
4    C        34.9447   -2.7596   11.7549  C     
5    N        34.2422   -3.8710   11.9581  N     
6    C        34.5343   -4.7161   12.9421  C     
7    O        33.8599   -5.7255   13.0727  O     
8    O        34.5698   -2.0662   10.8185  O     
9    C        36.8405   -1.2933   12.3325  C     
10   O        38.2128   -1.6095   12.0894  O     
11   C        38.9327   -0.3721   12.1386  C     
12   C        38.1850    0.5519   13.1387  C     
13   C        36.9424   -0.2874   13.5029  C     
14   O        37.1576   -0.8699   14.7899  O     
15   O        37.8585    1.8203   12.5258  O     
16   C        40.4098   -0.6478   12.5073  C     
17   O        40.9107   -1.7958   11.8293  O     
18   P        37.2354    2.9169   13.4474  P     
19   O        35.7943    2.6377   13.9324  O     
20   O        38.1343    3.2837   14.6542  O     
21   O        37.1670    4.1089   12.6427  O     
22   H        35.8302   -5.0946   14.4901  H     
23   H        37.1469   -3.2325   14.0855  H     
24   H        33.5074   -4.0694   11.3560  H     
25   H        36.4882   -0.7228   11.4590  H     
26   H        38.9058    0.0615   11.1357  H     
27   H        38.8104    0.7060   14.0189  H     
28   H        36.0263    0.3190   13.5519  H     
29   H        36.2750   -0.9154   15.2174  H     
30   H        41.0247    0.2118   12.2162  H     
31   H        40.5131   -0.7977   13.5891  H     
32   H        40.5131   -2.5588   12.3031  H     
@<TRIPOS>BOND
     1    1    2 2
     2    1    6 1
     3    2    3 1
     4    3    4 1
     5    9    3 1
     6    4    5 1
     7    4    8 2
     8    5    6 1
     9    6    7 2
    10    9   10 1
    11    9   13 1
    12   10   11 1
    13   11   12 1
    14   11   16 1
    15   12   13 1
    16   12   15 1
    17   13   14 1
    18   15   18 1
    19   16   17 1
    20   18   19 1
    21   18   20 1
    22   18   21 2
    23    1   22 1
    24    2   23 1
    25    5   24 1
    26    9   25 1
    27   11   26 1
    28   12   27 1
    29   13   28 1
    30   14   29 1
    31   16   30 1
    32   16   31 1
    33   17   32 1
@<TRIPOS>PROPERTY_DATA
  Total_Score	| 6.8361
  Crash		| -0.5878
  Polar		| 7.1148
  FragIndex	| 1
  FragRMSD	| 1.027

