@<TRIPOS>MOLECULE
BindingDB_50292722
 32 33 0 0 0
SMALL
NO_CHARGES


@<TRIPOS>ATOM
1    O        40.5615   -0.9086   10.3649  O     
2    C        40.2429   -1.0532   11.7497  C     
3    C        38.8238   -0.5039   12.0520  C     
4    C        38.5563   -0.0752   13.5106  C     
5    O        38.9673    1.2198   14.0099  O     
6    C        37.0252   -0.2567   13.6263  C     
7    O        36.3237    0.9897   13.5930  O     
8    C        36.6474   -1.1273   12.3930  C     
9    O        37.8815   -1.5495   11.8099  O     
10   N        35.8329   -2.3085   12.6388  N     
11   C        34.8423   -2.6718   11.7879  C     
12   O        34.4984   -2.0229   10.8073  O     
13   N        34.2110   -3.8287   11.9672  N     
14   C        34.5143   -4.6492   12.9686  C     
15   C        35.5103   -4.3242   13.8377  C     
16   C        36.1670   -3.1637   13.6534  C     
17   P        39.3853    2.4076   13.0910  P     
18   O        39.4558    3.6728   13.9682  O     
19   O        38.4238    2.6615   12.0487  O     
20   O        40.7868    2.2265   12.4737  O     
21   O        33.9184   -5.7122   13.0651  O     
22   H        39.8062   -1.3010    9.8778  H     
23   H        40.3190   -2.1177   12.0245  H     
24   H        40.9991   -0.5043   12.3121  H     
25   H        38.5809    0.3466   11.3953  H     
26   H        39.0241   -0.8104   14.1637  H     
27   H        36.7761   -0.7438   14.5723  H     
28   H        35.4704    0.7914   14.0362  H     
29   H        36.1753   -0.4713   11.6467  H     
30   H        33.5214   -4.0945   11.3393  H     
31   H        35.7623   -4.9367   14.5788  H     
32   H        36.9266   -2.9570   14.2661  H     
@<TRIPOS>BOND
     1    1    2 1
     2    3    2 1
     3    3    4 1
     4    3    9 1
     5    4    5 1
     6    4    6 1
     7    5   17 1
     8    6    7 1
     9    6    8 1
    10    8    9 1
    11    8   10 1
    12   10   11 1
    13   10   16 1
    14   11   12 2
    15   11   13 1
    16   13   14 1
    17   14   15 1
    18   14   21 2
    19   15   16 2
    20   17   18 1
    21   17   19 2
    22   17   20 1
    23    1   22 1
    24    2   23 1
    25    2   24 1
    26    3   25 1
    27    4   26 1
    28    6   27 1
    29    7   28 1
    30    8   29 1
    31   13   30 1
    32   15   31 1
    33   16   32 1
@<TRIPOS>PROPERTY_DATA
  Total_Score	| 6.5504
  Crash		| -0.5599
  Polar		| 5.9939
  FragIndex	| 1
  FragRMSD	| 1.226

