@<TRIPOS>MOLECULE
BindingDB_50331792
 29 30 0 0 0
SMALL
NO_CHARGES


@<TRIPOS>ATOM
1    O        38.1732    1.6589   12.0482  O     
2    C        38.2268    0.6471   13.0569  C     
3    C        36.8791   -0.0700   13.1739  C     
4    C        39.1843   -0.5014   12.6469  C     
5    C        36.9955   -1.1637   12.0946  C     
6    O        38.3856   -1.5295   12.0336  O     
7    C        39.9529   -1.1459   13.7370  C     
8    O        40.8188   -2.1409   13.4389  O     
9    N        36.1472   -2.3214   12.3399  N     
10   C        35.0175   -2.5429   11.6379  C     
11   N        34.3087   -3.6487   11.8473  N     
12   C        34.6717   -4.5576   12.7463  C     
13   C        35.8106   -4.3792   13.4995  C     
14   C        36.5143   -3.2435   13.2827  C     
15   O        34.5787   -1.7695   10.7977  O     
16   O        33.9595   -5.5471   12.8488  O     
17   C        36.3012   -5.3602   14.4638  C     
18   O        39.8036   -0.8147   15.0417  O     
19   H        39.0629    2.0697   12.0550  H     
20   H        38.5002    1.1279   13.9994  H     
21   H        36.7813   -0.5062   14.1724  H     
22   H        36.0329    0.5974   12.9904  H     
23   H        39.9067   -0.1346   11.9110  H     
24   H        36.7766   -0.7003   11.1236  H     
25   H        33.5148   -3.8092   11.3137  H     
26   H        37.3417   -3.0908   13.8147  H     
27   H        36.4081   -4.8982   15.4465  H     
28   H        37.2785   -5.7320   14.1492  H     
29   H        35.6364   -6.2189   14.5715  H     
@<TRIPOS>BOND
     1    2    1 1
     2    2    3 1
     3    2    4 1
     4    3    5 1
     5    4    6 1
     6    4    7 1
     7    5    6 1
     8    5    9 1
     9    7    8 1
    10    7   18 2
    11    9   10 1
    12    9   14 1
    13   10   11 1
    14   10   15 2
    15   11   12 1
    16   12   13 1
    17   12   16 2
    18   13   14 2
    19   13   17 1
    20    1   19 1
    21    2   20 1
    22    3   21 1
    23    3   22 1
    24    4   23 1
    25    5   24 1
    26   11   25 1
    27   14   26 1
    28   17   27 1
    29   17   28 1
    30   17   29 1
@<TRIPOS>PROPERTY_DATA
  Total_Score	| 4.2640
  Crash		| -0.3200
  Polar		| 3.1593
  FragIndex	| 1
  FragRMSD	| 0.868

