@<TRIPOS>MOLECULE
BindingDB_50292723
 32 33 0 0 0
SMALL
NO_CHARGES


@<TRIPOS>ATOM
1    O        40.3145   -2.7010   13.2442  O     
2    C        40.5727   -1.4894   12.5408  C     
3    C        39.2769   -0.6981   12.2476  C     
4    C        38.6323   -0.0371   13.4771  C     
5    O        39.3168    1.1586   13.8391  O     
6    C        37.1713    0.1649   13.0216  C     
7    O        36.9934    1.4441   12.3549  O     
8    C        36.9847   -0.9873   11.9881  C     
9    O        38.2727   -1.5738   11.7378  O     
10   N        36.0828   -2.0699   12.3780  N     
11   C        34.9962   -2.4016   11.6446  C     
12   O        34.5937   -1.7428   10.6957  O     
13   N        34.3186   -3.5180   11.9132  N     
14   C        34.6601   -4.3164   12.9210  C     
15   O        34.0367   -5.3540   13.0890  O     
16   C        35.7030   -3.9858   13.7299  C     
17   C        36.3991   -2.8675   13.4475  C     
18   P        36.7511    2.7080   13.2332  P     
19   O        35.2832    2.8004   13.6871  O     
20   O        37.6929    2.8534   14.4412  O     
21   O        37.0002    3.8540   12.4001  O     
22   H        39.8021   -3.2553   12.6187  H     
23   H        41.2569   -0.8784   13.1326  H     
24   H        41.0670   -1.7376   11.6001  H     
25   H        39.4945    0.0650   11.4905  H     
26   H        38.6548   -0.7163   14.3332  H     
27   H        40.1960    0.8671   14.1607  H     
28   H        36.4800    0.0237   13.8614  H     
29   H        36.6840   -0.5422   11.0322  H     
30   H        33.5759   -3.7716   11.3418  H     
31   H        35.9572   -4.5610   14.5010  H     
32   H        37.1767   -2.6491   14.0257  H     
@<TRIPOS>BOND
     1    1    2 1
     2    3    2 1
     3    3    4 1
     4    3    9 1
     5    4    5 1
     6    4    6 1
     7    6    7 1
     8    6    8 1
     9    7   18 1
    10    8    9 1
    11    8   10 1
    12   10   11 1
    13   10   17 1
    14   11   12 2
    15   11   13 1
    16   13   14 1
    17   14   15 2
    18   14   16 1
    19   16   17 2
    20   18   19 1
    21   18   20 1
    22   18   21 2
    23    1   22 1
    24    2   23 1
    25    2   24 1
    26    3   25 1
    27    4   26 1
    28    5   27 1
    29    6   28 1
    30    8   29 1
    31   13   30 1
    32   16   31 1
    33   17   32 1
@<TRIPOS>PROPERTY_DATA
  Total_Score	| 5.3328
  Crash		| -0.5697
  Polar		| 5.6338
  FragIndex	| 1
  FragRMSD	| 1.157

