@<TRIPOS>MOLECULE
BindingDB_50292719
 44 46 0 0 0
SMALL
NO_CHARGES


@<TRIPOS>ATOM
1    C        35.3949   -4.0743   13.8978  C     
2    C        36.0204   -2.8921   13.7545  C     
3    N        35.8136   -2.0879   12.6666  N     
4    C        34.8838   -2.4776   11.7582  C     
5    N        34.2573   -3.6449   11.9080  N     
6    C        34.5090   -4.4546   12.9386  C     
7    O        33.9453   -5.5422   12.9974  O     
8    O        34.6042   -1.8454   10.7534  O     
9    C        36.7338   -0.9892   12.3838  C     
10   O        37.9476   -1.5985   11.9159  O     
11   C        39.0642   -0.7600   12.2397  C     
12   C        38.5008    0.5055   12.9325  C     
13   C        37.1629    0.0090   13.4900  C     
14   O        36.2159    1.0484   13.7119  O     
15   O        38.2874    1.5670   11.9943  O     
16   C        40.0990   -1.6049   13.0400  C     
17   N        39.5785   -2.1862   14.3337  N     
18   C        40.0393   -1.4298   15.5420  C     
19   C        39.3431   -1.9236   16.8375  C     
20   C        39.5793   -3.4415   17.0439  C     
21   C        39.1627   -4.2357   15.7810  C     
22   C        39.8246   -3.6595   14.4901  C     
23   H        35.5731   -4.6576   14.6837  H     
24   H        36.6486   -2.6140   14.4689  H     
25   H        33.6250   -3.9309   11.2336  H     
26   H        36.3531   -0.3726   11.5559  H     
27   H        39.5481   -0.4675   11.2997  H     
28   H        39.1662    0.8727   13.7116  H     
29   H        37.3521   -0.4962   14.4427  H     
30   H        35.4398    0.6052   14.1161  H     
31   H        38.4672    2.3840   12.5045  H     
32   H        40.4354   -2.4062   12.3630  H     
33   H        40.9995   -0.9924   13.2060  H     
34   H        38.5604   -2.0916   14.2976  H     
35   H        41.1235   -1.5239   15.6595  H     
36   H        39.8019   -0.3683   15.4439  H     
37   H        39.7358   -1.3769   17.6989  H     
38   H        38.2733   -1.7374   16.7755  H     
39   H        40.6353   -3.6204   17.2626  H     
40   H        38.9874   -3.7808   17.9063  H     
41   H        39.4548   -5.2863   15.9052  H     
42   H        38.0738   -4.1998   15.6904  H     
43   H        39.3947   -4.1975   13.6393  H     
44   H        40.8994   -3.8734   14.5159  H     
@<TRIPOS>BOND
     1    1    2 2
     2    1    6 1
     3    2    3 1
     4    3    4 1
     5    9    3 1
     6    4    5 1
     7    4    8 2
     8    5    6 1
     9    6    7 2
    10    9   10 1
    11    9   13 1
    12   10   11 1
    13   11   12 1
    14   11   16 1
    15   12   13 1
    16   12   15 1
    17   13   14 1
    18   16   17 1
    19   17   18 1
    20   17   22 1
    21   18   19 1
    22   19   20 1
    23   20   21 1
    24   21   22 1
    25    1   23 1
    26    2   24 1
    27    5   25 1
    28    9   26 1
    29   11   27 1
    30   12   28 1
    31   13   29 1
    32   14   30 1
    33   15   31 1
    34   16   32 1
    35   16   33 1
    36   17   34 1
    37   18   35 1
    38   18   36 1
    39   19   37 1
    40   19   38 1
    41   20   39 1
    42   20   40 1
    43   21   41 1
    44   21   42 1
    45   22   43 1
    46   22   44 1
@<TRIPOS>PROPERTY_DATA
  Total_Score	| 5.4682
  Crash		| -0.7695
  Polar		| 4.4427
  FragIndex	| 1
  FragRMSD	| 0.885

