@<TRIPOS>MOLECULE
BindingDB_50292716
 43 45 0 0 0
SMALL
NO_CHARGES


@<TRIPOS>ATOM
1    C        35.6974   -4.3920   13.5655  C     
2    C        36.3607   -3.2272   13.3837  C     
3    N        36.0159   -2.3308   12.4087  N     
4    C        34.9105   -2.5827   11.6780  C     
5    N        34.2240   -3.7047   11.8709  N     
6    C        34.5891   -4.6049   12.7772  C     
7    O        33.9162   -5.6233   12.8389  O     
8    O        34.4976   -1.8445   10.7943  O     
9    C        36.9140   -1.2256   12.1038  C     
10   O        38.2630   -1.7087   12.0890  O     
11   C        39.1525   -0.6235   12.3692  C     
12   C        38.3022    0.5366   12.9572  C     
13   C        36.8965   -0.0639   13.1138  C     
14   O        38.2620    1.6478   12.0549  O     
15   C        40.3149   -1.1242   13.2703  C     
16   N        39.8859   -2.1456   14.2843  N     
17   C        39.8032   -3.5554   13.8191  C     
18   C        39.6858   -4.3770   15.1166  C     
19   C        40.3458   -3.5147   16.2074  C     
20   C        40.7385   -2.2084   15.4927  C     
21   C        36.2116   -5.3878   14.4992  C     
22   H        37.1673   -3.0393   13.9456  H     
23   H        33.4560   -3.8874   11.3077  H     
24   H        36.7215   -0.8006   11.1114  H     
25   H        39.5874   -0.3029   11.4153  H     
26   H        38.6771    0.8863   13.9240  H     
27   H        36.1074    0.6578   12.8856  H     
28   H        36.7577   -0.4217   14.1375  H     
29   H        39.1450    2.0651   12.1226  H     
30   H        41.1025   -1.5367   12.6324  H     
31   H        40.7470   -0.2425   13.7580  H     
32   H        38.9520   -1.8819   14.6074  H     
33   H        38.9447   -3.7345   13.1625  H     
34   H        40.7138   -3.8494   13.2869  H     
35   H        38.6357   -4.5407   15.3658  H     
36   H        40.1795   -5.3466   15.0098  H     
37   H        39.6361   -3.3050   17.0116  H     
38   H        41.2223   -4.0088   16.6318  H     
39   H        41.8005   -2.2367   15.2250  H     
40   H        40.5561   -1.3404   16.1325  H     
41   H        37.1796   -5.7513   14.1485  H     
42   H        35.5534   -6.2507   14.6061  H     
43   H        36.3427   -4.9425   15.4856  H     
@<TRIPOS>BOND
     1    1    2 2
     2    1    6 1
     3    1   21 1
     4    2    3 1
     5    3    4 1
     6    9    3 1
     7    4    5 1
     8    4    8 2
     9    5    6 1
    10    6    7 2
    11    9   10 1
    12    9   13 1
    13   10   11 1
    14   11   12 1
    15   11   15 1
    16   12   13 1
    17   12   14 1
    18   15   16 1
    19   16   17 1
    20   16   20 1
    21   17   18 1
    22   18   19 1
    23   19   20 1
    24    2   22 1
    25    5   23 1
    26    9   24 1
    27   11   25 1
    28   12   26 1
    29   13   27 1
    30   13   28 1
    31   14   29 1
    32   15   30 1
    33   15   31 1
    34   16   32 1
    35   17   33 1
    36   17   34 1
    37   18   35 1
    38   18   36 1
    39   19   37 1
    40   19   38 1
    41   20   39 1
    42   20   40 1
    43   21   41 1
    44   21   42 1
    45   21   43 1
@<TRIPOS>PROPERTY_DATA
  Total_Score	| 4.1648
  Crash		| -0.6661
  Polar		| 3.2237
  FragIndex	| 1
  FragRMSD	| 0.785

