@<TRIPOS>MOLECULE
BindingDB_50342006
 46 48 0 0 0
SMALL
NO_CHARGES


@<TRIPOS>ATOM
1    C        37.4814    0.4672   13.8950  C     
2    C        36.4997    0.3116   12.7261  C     
3    C        36.8769   -1.0649   12.1317  C     
4    O        38.2084   -1.3777   12.5674  O     
5    C        38.6995   -0.3991   13.4878  C     
6    N        35.9666   -2.1574   12.4697  N     
7    O        36.6718    1.3693   11.7783  O     
8    O        37.8597    1.8184   14.1633  O     
9    C        39.4032   -1.0254   14.7320  C     
10   N        40.4047   -2.1369   14.5519  N     
11   C        40.9883   -2.5035   15.8904  C     
12   C        41.9842   -3.6873   15.8414  C     
13   C        41.3413   -4.9499   15.2024  C     
14   C        40.8170   -4.5617   13.7910  C     
15   C        39.8679   -3.3336   13.8158  C     
16   C        40.3319   -5.5799   16.0966  C     
17   O        39.0288   -5.7208   15.7609  O     
18   O        40.7220   -6.0970   17.2835  O     
19   C        36.2040   -2.9538   13.5598  C     
20   C        35.5340   -4.1051   13.7578  C     
21   C        34.5593   -4.4416   12.8725  C     
22   N        34.2551   -3.6175   11.8746  N     
23   C        34.9317   -2.4881   11.6674  C     
24   O        34.5724   -1.8088   10.7166  O     
25   O        33.9452   -5.4926   12.9821  O     
26   H        37.0022    0.0644   14.7930  H     
27   H        35.4619    0.3280   13.0709  H     
28   H        36.9587   -0.9656   11.0438  H     
29   H        39.4233    0.2144   12.9424  H     
30   H        36.1209    2.1058   12.1174  H     
31   H        37.3378    2.0833   14.9516  H     
32   H        39.9039   -0.1831   15.2225  H     
33   H        38.6367   -1.3778   15.4292  H     
34   H        41.1723   -1.7630   13.9891  H     
35   H        41.5294   -1.6430   16.2955  H     
36   H        40.1927   -2.7560   16.5996  H     
37   H        42.8545   -3.3867   15.2493  H     
38   H        42.3412   -3.9094   16.8516  H     
39   H        42.1311   -5.6941   15.0634  H     
40   H        41.6730   -4.3221   13.1521  H     
41   H        40.3038   -5.4131   13.3349  H     
42   H        38.9062   -3.6363   14.2361  H     
43   H        39.7075   -3.0710   12.7703  H     
44   H        36.8964   -2.7065   14.2245  H     
45   H        35.7462   -4.6898   14.5337  H     
46   H        33.5386   -3.8580   11.2684  H     
@<TRIPOS>BOND
     1    1    2 1
     2    1    5 1
     3    1    8 1
     4    2    3 1
     5    2    7 1
     6    3    4 1
     7    3    6 1
     8    4    5 1
     9    5    9 1
    10    6   19 1
    11    6   23 1
    12    9   10 1
    13   10   11 1
    14   10   15 1
    15   11   12 1
    16   12   13 1
    17   13   14 1
    18   13   16 1
    19   14   15 1
    20   16   17 1
    21   16   18 2
    22   19   20 2
    23   20   21 1
    24   21   22 1
    25   21   25 2
    26   22   23 1
    27   23   24 2
    28    1   26 1
    29    2   27 1
    30    3   28 1
    31    5   29 1
    32    7   30 1
    33    8   31 1
    34    9   32 1
    35    9   33 1
    36   10   34 1
    37   11   35 1
    38   11   36 1
    39   12   37 1
    40   12   38 1
    41   13   39 1
    42   14   40 1
    43   14   41 1
    44   15   42 1
    45   15   43 1
    46   19   44 1
    47   20   45 1
    48   22   46 1
@<TRIPOS>PROPERTY_DATA
  Total_Score	| 6.1669
  Crash		| -0.5593
  Polar		| 5.6055
  FragIndex	| 1
  FragRMSD	| 1.116

