@<TRIPOS>MOLECULE
BindingDB_50292714
 46 48 0 0 0
SMALL
NO_CHARGES


@<TRIPOS>ATOM
1    C        35.2646   -4.7652   13.5941  C     
2    C        36.0097   -3.6615   13.7829  C     
3    N        35.8637   -2.5362   13.0095  N     
4    C        35.0104   -2.6160   11.9596  C     
5    N        34.2841   -3.7177   11.7653  N     
6    C        34.3772   -4.7720   12.5700  C     
7    O        33.6757   -5.7515   12.3648  O     
8    O        34.8337   -1.7107   11.1534  O     
9    C        36.6008   -1.2956   13.2663  C     
10   O        37.5699   -1.1284   12.2007  O     
11   C        38.8801   -0.8265   12.7400  C     
12   C        38.8225   -1.5212   14.1329  C     
13   C        37.4083   -1.1042   14.5864  C     
14   O        36.9442   -1.7908   15.7448  O     
15   N        40.0198   -1.3557   15.0458  N     
16   C        39.8141   -0.4970   16.2581  C     
17   C        41.1389   -0.2545   17.0239  C     
18   C        41.8011   -1.5979   17.4173  C     
19   C        41.9826   -2.5082   16.1813  C     
20   C        40.6504   -2.6742   15.4137  C     
21   C        39.9884   -1.4593   11.8468  C     
22   O        40.0762   -0.8535   10.5601  O     
23   C        39.0668    0.6545   12.7630  C     
24   O        38.3544    1.4609   11.9414  O     
25   O        40.1108    1.2142   13.4121  O     
26   H        35.3869   -5.5661   14.1732  H     
27   H        36.6910   -3.7149   14.4969  H     
28   H        33.6669   -3.7544   11.0210  H     
29   H        35.8931   -0.4599   13.2200  H     
30   H        38.7401   -2.5899   13.9029  H     
31   H        37.4039   -0.0413   14.8486  H     
32   H        35.9832   -1.6090   15.7716  H     
33   H        40.7262   -0.8706   14.4892  H     
34   H        39.4128    0.4759   15.9695  H     
35   H        39.0996   -0.9666   16.9395  H     
36   H        41.8224    0.3192   16.3916  H     
37   H        40.9391    0.3305   17.9257  H     
38   H        42.7755   -1.4040   17.8729  H     
39   H        41.1789   -2.1084   18.1580  H     
40   H        42.7286   -2.0664   15.5146  H     
41   H        42.3496   -3.4876   16.4993  H     
42   H        39.9555   -3.2671   16.0172  H     
43   H        40.8806   -3.2454   14.5092  H     
44   H        40.9647   -1.3557   12.3251  H     
45   H        39.7989   -2.5240   11.7140  H     
46   H        39.3792   -1.2798   10.0242  H     
@<TRIPOS>BOND
     1    1    2 2
     2    1    6 1
     3    2    3 1
     4    3    4 1
     5    9    3 1
     6    4    5 1
     7    4    8 2
     8    5    6 1
     9    6    7 2
    10    9   10 1
    11    9   13 1
    12   10   11 1
    13   11   12 1
    14   11   21 1
    15   11   23 1
    16   12   13 1
    17   12   15 1
    18   13   14 1
    19   15   16 1
    20   15   20 1
    21   16   17 1
    22   17   18 1
    23   18   19 1
    24   19   20 1
    25   21   22 1
    26   23   24 1
    27   23   25 2
    28    1   26 1
    29    2   27 1
    30    5   28 1
    31    9   29 1
    32   12   30 1
    33   13   31 1
    34   14   32 1
    35   15   33 1
    36   16   34 1
    37   16   35 1
    38   17   36 1
    39   17   37 1
    40   18   38 1
    41   18   39 1
    42   19   40 1
    43   19   41 1
    44   20   42 1
    45   20   43 1
    46   21   44 1
    47   21   45 1
    48   22   46 1
@<TRIPOS>PROPERTY_DATA
  Total_Score	| 4.4649
  Crash		| -1.0733
  Polar		| 5.2201
  FragIndex	| 1
  FragRMSD	| 1.249

