@<TRIPOS>MOLECULE
BindingDB_50292715
 53 55 0 0 0
SMALL
NO_CHARGES


@<TRIPOS>ATOM
1    C        35.5568   -4.1131   13.7404  C     
2    C        36.2181   -2.9577   13.5354  C     
3    N        35.9580   -2.1588   12.4530  N     
4    C        34.9068   -2.4885   11.6714  C     
5    N        34.2371   -3.6203   11.8869  N     
6    C        34.5648   -4.4486   12.8738  C     
7    O        33.9572   -5.5025   12.9898  O     
8    O        34.5229   -1.8045   10.7340  O     
9    C        36.8581   -1.0607   12.1046  C     
10   O        38.2073   -1.3836   12.4780  O     
11   C        38.7116   -0.4498   13.4367  C     
12   C        37.5106    0.4116   13.9003  C     
13   C        36.5056    0.3010   12.7467  C     
14   O        36.6710    1.3829   11.8258  O     
15   O        37.9051    1.7506   14.2033  O     
16   C        39.4613   -1.1144   14.6350  C     
17   N        40.2771   -2.3536   14.3629  N     
18   C        39.4404   -3.5858   14.1403  C     
19   C        40.2656   -4.8875   13.9616  C     
20   C        41.2852   -5.1159   15.1142  C     
21   C        42.1580   -3.8356   15.2514  C     
22   C        41.2905   -2.5671   15.4534  C     
23   C        40.6833   -5.5322   16.4111  C     
24   O        41.5142   -5.8890   17.4278  O     
25   O        39.3412   -5.5759   16.5961  O     
26   C        41.1660   -6.3142   18.7524  C     
27   C        40.3138   -7.6002   18.7705  C     
28   H        35.7872   -4.7015   14.5079  H     
29   H        36.9237   -2.7105   14.1864  H     
30   H        33.5076   -3.8588   11.2952  H     
31   H        36.8948   -0.9325   11.0173  H     
32   H        39.4208    0.1829   12.8932  H     
33   H        37.0463   -0.0159   14.7939  H     
34   H        35.4745    0.3177   13.1111  H     
35   H        36.1329    2.1144   12.1940  H     
36   H        37.3586    2.0160   14.9745  H     
37   H        40.1072   -0.3229   15.0297  H     
38   H        38.7534   -1.3441   15.4365  H     
39   H        40.8036   -2.1870   13.5021  H     
40   H        38.7429   -3.7208   14.9705  H     
41   H        38.8475   -3.4825   13.2338  H     
42   H        39.5898   -5.7440   13.8830  H     
43   H        40.8110   -4.8203   13.0150  H     
44   H        41.9415   -5.9367   14.8090  H     
45   H        42.8587   -3.9367   16.0850  H     
46   H        42.7539   -3.7080   14.3426  H     
47   H        41.9725   -1.7123   15.4869  H     
48   H        40.7928   -2.6327   16.4267  H     
49   H        42.0969   -6.5074   19.2889  H     
50   H        40.6385   -5.5099   19.2706  H     
51   H        39.3339   -7.4189   18.3265  H     
52   H        40.1708   -7.9342   19.7998  H     
53   H        40.8179   -8.3901   18.2108  H     
@<TRIPOS>BOND
     1    1    2 2
     2    1    6 1
     3    2    3 1
     4    3    4 1
     5    9    3 1
     6    4    5 1
     7    4    8 2
     8    5    6 1
     9    6    7 2
    10    9   10 1
    11    9   13 1
    12   10   11 1
    13   11   12 1
    14   11   16 1
    15   12   13 1
    16   12   15 1
    17   13   14 1
    18   16   17 1
    19   17   18 1
    20   17   22 1
    21   18   19 1
    22   19   20 1
    23   20   21 1
    24   20   23 1
    25   21   22 1
    26   23   24 1
    27   23   25 2
    28   24   26 1
    29   26   27 1
    30    1   28 1
    31    2   29 1
    32    5   30 1
    33    9   31 1
    34   11   32 1
    35   12   33 1
    36   13   34 1
    37   14   35 1
    38   15   36 1
    39   16   37 1
    40   16   38 1
    41   17   39 1
    42   18   40 1
    43   18   41 1
    44   19   42 1
    45   19   43 1
    46   20   44 1
    47   21   45 1
    48   21   46 1
    49   22   47 1
    50   22   48 1
    51   26   49 1
    52   26   50 1
    53   27   51 1
    54   27   52 1
    55   27   53 1
@<TRIPOS>PROPERTY_DATA
  Total_Score	| 6.0935
  Crash		| -0.5865
  Polar		| 5.2105
  FragIndex	| 1
  FragRMSD	| 1.132

