@<TRIPOS>MOLECULE
BindingDB_50331790
 45 46 0 0 0
SMALL
NO_CHARGES


@<TRIPOS>ATOM
1    N        39.8984   -1.4117   14.9750  N     
2    C        39.4640   -1.3363   13.6051  C     
3    C        38.6211   -2.5684   13.2483  C     
4    C        38.4346   -0.1885   13.3707  C     
5    C        37.2035   -2.1292   13.6651  C     
6    O        37.1483   -0.7995   13.1251  O     
7    C        38.8055    0.7279   12.1790  C     
8    O        38.0597    1.9390   12.1986  O     
9    N        36.2016   -3.1053   13.2669  N     
10   C        35.2395   -2.8840   12.3482  C     
11   N        34.3707   -3.8506   12.0521  N     
12   C        34.4235   -5.0465   12.6339  C     
13   C        35.4111   -5.3420   13.5395  C     
14   C        36.2589   -4.3403   13.8593  C     
15   O        35.1060   -1.8307   11.7405  O     
16   O        33.5667   -5.8642   12.3294  O     
17   C        35.5652   -6.6855   14.0926  C     
18   C        40.7269   -2.3172   15.4866  C     
19   C        40.9570   -2.4234   16.9249  C     
20   O        41.2705   -3.1395   14.7582  O     
21   N        40.6178   -1.1784   17.6418  N     
22   C        40.1732   -3.6041   17.5724  C     
23   C        40.3279   -4.8969   16.8788  C     
24   O        39.2438   -5.6156   16.5094  O     
25   O        41.5510   -5.4594   16.7570  O     
26   H        39.4919   -0.7853   15.5934  H     
27   H        40.3320   -1.2535   12.9419  H     
28   H        38.6510   -2.7375   12.1694  H     
29   H        38.9514   -3.4766   13.7581  H     
30   H        38.3470    0.4395   14.2635  H     
31   H        37.1400   -2.0240   14.7584  H     
32   H        39.8675    0.9801   12.2190  H     
33   H        38.6038    0.2154   11.2365  H     
34   H        38.2311    2.3383   13.0789  H     
35   H        33.6829   -3.6905   11.3857  H     
36   H        36.9608   -4.5213   14.5433  H     
37   H        34.7006   -6.9376   14.7089  H     
38   H        36.4618   -6.7900   14.7070  H     
39   H        35.6399   -7.4128   13.2814  H     
40   H        42.0280   -2.5723   17.0953  H     
41   H        41.0806   -0.3833   17.1954  H     
42   H        40.9323   -1.2464   18.6123  H     
43   H        39.6057   -1.0325   17.6280  H     
44   H        40.5335   -3.7490   18.5939  H     
45   H        39.1120   -3.3459   17.6335  H     
@<TRIPOS>BOND
     1    2    1 1
     2    1   18 am
     3    2    3 1
     4    2    4 1
     5    3    5 1
     6    4    6 1
     7    4    7 1
     8    5    6 1
     9    5    9 1
    10    7    8 1
    11    9   10 1
    12    9   14 1
    13   10   11 1
    14   10   15 2
    15   11   12 1
    16   12   13 1
    17   12   16 2
    18   13   14 2
    19   13   17 1
    20   18   19 1
    21   18   20 2
    22   19   21 1
    23   19   22 1
    24   22   23 1
    25   23   24 1
    26   23   25 2
    27    1   26 1
    28    2   27 1
    29    3   28 1
    30    3   29 1
    31    4   30 1
    32    5   31 1
    33    7   32 1
    34    7   33 1
    35    8   34 1
    36   11   35 1
    37   14   36 1
    38   17   37 1
    39   17   38 1
    40   17   39 1
    41   19   40 1
    42   21   41 1
    43   21   42 1
    44   21   43 1
    45   22   44 1
    46   22   45 1
@<TRIPOS>PROPERTY_DATA
  Total_Score	| 2.2316
  Crash		| -1.0340
  Polar		| 3.7715
  FragIndex	| 1
  FragRMSD	| 1.014

