@<TRIPOS>MOLECULE
BindingDB_50292720
 42 44 0 0 0
SMALL
NO_CHARGES


@<TRIPOS>ATOM
1    C        35.4020   -4.3968   13.8569  C     
2    C        36.1300   -3.2844   13.6449  C     
3    N        35.8954   -2.4642   12.5776  N     
4    C        34.8611   -2.7571   11.7605  C     
5    N        34.1522   -3.8673   11.9600  N     
6    C        34.4086   -4.6900   12.9728  C     
7    O        33.7691   -5.7235   13.0778  O     
8    O        34.5418   -2.0666   10.8036  O     
9    C        36.8630   -1.4207   12.2756  C     
10   O        38.1633   -2.0121   12.3551  O     
11   C        39.1274   -0.9784   12.5377  C     
12   C        38.3741    0.2458   13.1335  C     
13   C        36.9092   -0.2183   13.2401  C     
14   O        35.9431    0.7769   12.9092  O     
15   O        38.4778    1.3845   12.2677  O     
16   C        40.3523   -1.5533   13.3181  C     
17   N        40.1966   -2.7018   14.2754  N     
18   C        39.7394   -4.0059   13.6860  C     
19   C        39.8252   -5.1290   14.7491  C     
20   O        39.0842   -4.7653   15.9343  O     
21   C        39.5576   -3.5451   16.5408  C     
22   C        39.4867   -2.3585   15.5399  C     
23   H        35.6129   -5.0011   14.6219  H     
24   H        36.9138   -3.1051   14.2407  H     
25   H        33.4416   -4.0916   11.3451  H     
26   H        36.7456   -1.0290   11.2587  H     
27   H        39.4837   -0.7077   11.5332  H     
28   H        38.7619    0.5112   14.1216  H     
29   H        36.7100   -0.5305   14.2681  H     
30   H        35.2178    0.6437   13.5549  H     
31   H        39.4007    1.6953   12.3688  H     
32   H        41.0873   -1.8691   12.5710  H     
33   H        40.8233   -0.7247   13.8506  H     
34   H        41.1554   -2.8906   14.5774  H     
35   H        38.7105   -3.9851   13.3080  H     
36   H        40.3966   -4.2774   12.8576  H     
37   H        39.3908   -6.0458   14.3449  H     
38   H        40.8713   -5.3387   15.0018  H     
39   H        38.9278   -3.3246   17.4081  H     
40   H        40.5871   -3.6731   16.8949  H     
41   H        39.9539   -1.4843   16.0119  H     
42   H        38.4430   -2.1164   15.3389  H     
@<TRIPOS>BOND
     1    1    2 2
     2    1    6 1
     3    2    3 1
     4    3    4 1
     5    9    3 1
     6    4    5 1
     7    4    8 2
     8    5    6 1
     9    6    7 2
    10    9   10 1
    11    9   13 1
    12   10   11 1
    13   11   12 1
    14   11   16 1
    15   12   13 1
    16   12   15 1
    17   13   14 1
    18   16   17 1
    19   17   18 1
    20   17   22 1
    21   18   19 1
    22   19   20 1
    23   20   21 1
    24   21   22 1
    25    1   23 1
    26    2   24 1
    27    5   25 1
    28    9   26 1
    29   11   27 1
    30   12   28 1
    31   13   29 1
    32   14   30 1
    33   15   31 1
    34   16   32 1
    35   16   33 1
    36   17   34 1
    37   18   35 1
    38   18   36 1
    39   19   37 1
    40   19   38 1
    41   21   39 1
    42   21   40 1
    43   22   41 1
    44   22   42 1
@<TRIPOS>PROPERTY_DATA
  Total_Score	| 4.9935
  Crash		| -0.6973
  Polar		| 4.7192
  FragIndex	| 1
  FragRMSD	| 0.922

