@<TRIPOS>MOLECULE
BindingDB_50292718
 41 43 0 0 0
SMALL
NO_CHARGES


@<TRIPOS>ATOM
1    C        35.5794   -4.1328   13.8574  C     
2    C        36.1877   -2.9515   13.6488  C     
3    N        35.8652   -2.1525   12.5876  N     
4    C        34.8708   -2.5592   11.7641  C     
5    N        34.2710   -3.7290   11.9678  N     
6    C        34.6090   -4.5165   12.9847  C     
7    O        34.0737   -5.6103   13.0811  O     
8    O        34.5119   -1.9501   10.7662  O     
9    C        36.7346   -1.0423   12.2432  C     
10   O        37.9896   -1.6194   11.8534  O     
11   C        39.0580   -0.7336   12.1882  C     
12   C        38.4562    0.4784   12.9477  C     
13   C        37.0497    0.0009   13.3404  C     
14   O        36.0774    1.0506   13.3983  O     
15   O        38.3705    1.6256   12.0941  O     
16   C        40.1701   -1.5375   12.9243  C     
17   N        39.6834   -2.3675   14.0926  N     
18   C        39.4903   -3.8432   13.8832  C     
19   C        39.4565   -4.4604   15.3045  C     
20   C        40.0796   -3.3889   16.2355  C     
21   C        40.5546   -2.2697   15.2889  C     
22   H        35.8406   -4.7118   14.6236  H     
23   H        36.9911   -2.7214   14.2112  H     
24   H        33.6094   -4.0353   11.3263  H     
25   H        36.3694   -0.4862   11.3675  H     
26   H        39.4870   -0.3814   11.2465  H     
27   H        39.0320    0.7558   13.8343  H     
28   H        37.1000   -0.4482   14.3333  H     
29   H        35.3366    0.6776   13.9281  H     
30   H        39.2253    2.0908   12.1946  H     
31   H        40.6544   -2.1887   12.1875  H     
32   H        40.9250   -0.8023   13.2387  H     
33   H        38.7807   -1.9881   14.3848  H     
34   H        38.5564   -4.0998   13.3512  H     
35   H        40.3278   -4.2666   13.3198  H     
36   H        38.4253   -4.6614   15.6126  H     
37   H        40.0173   -5.3961   15.3466  H     
38   H        39.3246   -2.9979   16.9298  H     
39   H        40.9110   -3.8040   16.8186  H     
40   H        41.6092   -2.4333   15.0315  H     
41   H        40.4502   -1.2861   15.7621  H     
@<TRIPOS>BOND
     1    1    2 2
     2    1    6 1
     3    2    3 1
     4    3    4 1
     5    9    3 1
     6    4    5 1
     7    4    8 2
     8    5    6 1
     9    6    7 2
    10    9   10 1
    11    9   13 1
    12   10   11 1
    13   11   12 1
    14   11   16 1
    15   12   13 1
    16   12   15 1
    17   13   14 1
    18   16   17 1
    19   17   18 1
    20   17   21 1
    21   18   19 1
    22   19   20 1
    23   20   21 1
    24    1   22 1
    25    2   23 1
    26    5   24 1
    27    9   25 1
    28   11   26 1
    29   12   27 1
    30   13   28 1
    31   14   29 1
    32   15   30 1
    33   16   31 1
    34   16   32 1
    35   17   33 1
    36   18   34 1
    37   18   35 1
    38   19   36 1
    39   19   37 1
    40   20   38 1
    41   20   39 1
    42   21   40 1
    43   21   41 1
@<TRIPOS>PROPERTY_DATA
  Total_Score	| 4.9490
  Crash		| -0.5875
  Polar		| 4.5844
  FragIndex	| 1
  FragRMSD	| 0.842

