@<TRIPOS>MOLECULE
BindingDB_50342008
 48 50 0 0 0
SMALL
NO_CHARGES


@<TRIPOS>ATOM
1    C        37.6546    0.2600   13.4031  C     
2    C        36.5733   -0.0150   12.3516  C     
3    C        37.0515   -1.3335   11.7014  C     
4    O        38.4515   -1.4774   12.0268  O     
5    C        38.9139   -0.3090   12.7168  C     
6    N        36.2208   -2.4712   12.0907  N     
7    O        37.3728   -0.4357   14.6167  O     
8    C        40.1316   -0.6082   13.6463  C     
9    N        40.0882   -1.9327   14.3644  N     
10   C        40.9175   -1.9495   15.6147  C     
11   C        40.7075   -3.2586   16.4204  C     
12   C        41.0004   -4.5134   15.5498  C     
13   C        40.1977   -4.4482   14.2226  C     
14   C        40.4379   -3.1048   13.4904  C     
15   C        40.6998   -5.7615   16.2867  C     
16   O        41.6962   -6.5664   16.7212  O     
17   O        39.4228   -6.1363   16.5206  O     
18   C        36.6153   -3.3633   13.0523  C     
19   C        35.8476   -4.4122   13.4367  C     
20   C        34.6326   -4.5532   12.8050  C     
21   N        34.2541   -3.6907   11.8702  N     
22   C        35.0106   -2.6556   11.5235  C     
23   O        34.5447   -1.9115   10.6710  O     
24   O        33.8607   -5.4695   13.0458  O     
25   C        36.3177   -5.3457   14.4587  C     
26   H        37.7414    1.3302   13.6107  H     
27   H        35.5782   -0.0899   12.7972  H     
28   H        36.5547    0.7897   11.6080  H     
29   H        37.0253   -1.2224   10.6120  H     
30   H        39.2425    0.4251   11.9686  H     
31   H        36.4405   -0.2288   14.8340  H     
32   H        41.0504   -0.5455   13.0558  H     
33   H        40.1791    0.2188   14.3605  H     
34   H        39.1216   -2.0677   14.6681  H     
35   H        41.9787   -1.8378   15.3682  H     
36   H        40.6381   -1.1161   16.2650  H     
37   H        41.3658   -3.2540   17.2936  H     
38   H        39.6726   -3.2822   16.7755  H     
39   H        42.0676   -4.5123   15.3017  H     
40   H        40.4834   -5.2789   13.5705  H     
41   H        39.1319   -4.5363   14.4358  H     
42   H        39.8379   -3.1109   12.5789  H     
43   H        41.4887   -3.0514   13.1876  H     
44   H        37.4891   -3.2337   13.5029  H     
45   H        33.4112   -3.8321   11.4126  H     
46   H        37.2083   -5.8667   14.1032  H     
47   H        35.5751   -6.1038   14.7156  H     
48   H        36.5661   -4.8056   15.3743  H     
@<TRIPOS>BOND
     1    1    2 1
     2    1    5 1
     3    1    7 1
     4    2    3 1
     5    3    4 1
     6    3    6 1
     7    4    5 1
     8    5    8 1
     9    6   18 1
    10    6   22 1
    11    8    9 1
    12    9   10 1
    13    9   14 1
    14   10   11 1
    15   11   12 1
    16   12   13 1
    17   12   15 1
    18   13   14 1
    19   15   16 1
    20   15   17 2
    21   18   19 2
    22   19   20 1
    23   19   25 1
    24   20   21 1
    25   20   24 2
    26   21   22 1
    27   22   23 2
    28    1   26 1
    29    2   27 1
    30    2   28 1
    31    3   29 1
    32    5   30 1
    33    7   31 1
    34    8   32 1
    35    8   33 1
    36    9   34 1
    37   10   35 1
    38   10   36 1
    39   11   37 1
    40   11   38 1
    41   12   39 1
    42   13   40 1
    43   13   41 1
    44   14   42 1
    45   14   43 1
    46   18   44 1
    47   21   45 1
    48   25   46 1
    49   25   47 1
    50   25   48 1
@<TRIPOS>PROPERTY_DATA
  Total_Score	| 5.6138
  Crash		| -0.5933
  Polar		| 4.5272
  FragIndex	| 1
  FragRMSD	| 1.201

