@<TRIPOS>MOLECULE
BindingDB_50342007
 48 50 0 0 0
SMALL
NO_CHARGES


@<TRIPOS>ATOM
1    C        38.2643    0.5642   12.9040  C     
2    C        36.8538   -0.0443   12.9907  C     
3    C        36.9248   -1.2439   12.0286  C     
4    O        38.2842   -1.6946   12.0841  O     
5    C        39.1322   -0.5627   12.2786  C     
6    N        36.0359   -2.3470   12.3627  N     
7    O        38.2495    1.7278   12.0707  O     
8    C        40.4425   -0.9584   13.0319  C     
9    N        40.5009   -2.1394   13.9603  N     
10   C        40.1894   -3.4724   13.3416  C     
11   C        40.6158   -4.6247   14.2817  C     
12   C        39.9220   -4.4787   15.6641  C     
13   C        40.2128   -3.0794   16.2773  C     
14   C        39.8435   -1.9420   15.2880  C     
15   C        40.3190   -5.5764   16.5706  C     
16   O        41.6178   -5.7778   16.8919  O     
17   O        39.4212   -6.5275   16.9088  O     
18   C        36.4088   -3.2268   13.3396  C     
19   C        35.7532   -4.3896   13.5621  C     
20   C        34.6235   -4.6153   12.8086  C     
21   N        34.2312   -3.7283   11.8993  N     
22   C        34.9110   -2.6087   11.6693  C     
23   O        34.4694   -1.8783   10.7933  O     
24   O        33.9496   -5.6302   12.9133  O     
25   C        36.3017   -5.3658   14.4983  C     
26   H        38.6135    0.8583   13.8956  H     
27   H        36.6514   -0.3689   14.0143  H     
28   H        36.0710    0.6581   12.6912  H     
29   H        36.7553   -0.8724   11.0093  H     
30   H        39.4318   -0.2382   11.2750  H     
31   H        39.1065    2.1726   12.2334  H     
32   H        41.2127   -1.1201   12.2725  H     
33   H        40.7766   -0.0804   13.5906  H     
34   H        41.4957   -2.2074   14.1895  H     
35   H        39.1265   -3.6024   13.1208  H     
36   H        40.7414   -3.5819   12.4051  H     
37   H        40.3387   -5.5796   13.8263  H     
38   H        41.7034   -4.6068   14.4000  H     
39   H        38.8410   -4.5532   15.5078  H     
40   H        39.6382   -2.9525   17.1998  H     
41   H        41.2757   -2.9968   16.5250  H     
42   H        40.1745   -0.9982   15.7284  H     
43   H        38.7603   -1.8975   15.1776  H     
44   H        37.2227   -3.0255   13.8748  H     
45   H        33.4470   -3.9199   11.3623  H     
46   H        36.4699   -4.9023   15.4710  H     
47   H        37.2581   -5.7335   14.1212  H     
48   H        35.6468   -6.2261   14.6445  H     
@<TRIPOS>BOND
     1    1    2 1
     2    1    5 1
     3    1    7 1
     4    2    3 1
     5    3    4 1
     6    3    6 1
     7    4    5 1
     8    5    8 1
     9    6   18 1
    10    6   22 1
    11    8    9 1
    12    9   10 1
    13    9   14 1
    14   10   11 1
    15   11   12 1
    16   12   13 1
    17   12   15 1
    18   13   14 1
    19   15   16 1
    20   15   17 2
    21   18   19 2
    22   19   20 1
    23   19   25 1
    24   20   21 1
    25   20   24 2
    26   21   22 1
    27   22   23 2
    28    1   26 1
    29    2   27 1
    30    2   28 1
    31    3   29 1
    32    5   30 1
    33    7   31 1
    34    8   32 1
    35    8   33 1
    36    9   34 1
    37   10   35 1
    38   10   36 1
    39   11   37 1
    40   11   38 1
    41   12   39 1
    42   13   40 1
    43   13   41 1
    44   14   42 1
    45   14   43 1
    46   18   44 1
    47   21   45 1
    48   25   46 1
    49   25   47 1
    50   25   48 1
@<TRIPOS>PROPERTY_DATA
  Total_Score	| 5.8532
  Crash		| -0.5757
  Polar		| 4.5306
  FragIndex	| 1
  FragRMSD	| 0.895

