@<TRIPOS>MOLECULE
BindingDB_50292717
 46 48 0 0 0
SMALL
NO_CHARGES


@<TRIPOS>ATOM
1    C        35.6655   -4.5734   13.4805  C     
2    C        36.4513   -3.5068   13.2192  C     
3    N        36.1562   -2.5838   12.2611  N     
4    C        34.9868   -2.7088   11.6067  C     
5    N        34.1957   -3.7515   11.8533  N     
6    C        34.5112   -4.6830   12.7476  C     
7    O        33.7455   -5.6293   12.8575  O     
8    O        34.6001   -1.9090   10.7664  O     
9    C        37.1007   -1.5151   11.9682  C     
10   O        38.4594   -1.8582   12.2988  O     
11   C        39.1942   -0.6488   12.5165  C     
12   C        38.1673    0.4495   12.9027  C     
13   C        36.7992   -0.2309   12.7585  C     
14   O        38.2569    1.5836   12.0365  O     
15   C        40.3762   -0.8891   13.5120  C     
16   N        40.2960   -1.9879   14.5397  N     
17   C        40.3078   -3.3785   13.9782  C     
18   C        40.4999   -4.4392   15.0954  C     
19   C        39.4121   -4.2974   16.1896  C     
20   C        39.3428   -2.8429   16.7323  C     
21   C        39.2467   -1.7872   15.5908  C     
22   C        36.1000   -5.5357   14.4845  C     
23   H        37.2868   -3.4130   13.7519  H     
24   H        33.3826   -3.8536   11.3373  H     
25   H        37.0962   -1.2812   10.8970  H     
26   H        39.6356   -0.3794   11.5489  H     
27   H        38.3129    0.7864   13.9299  H     
28   H        36.0710    0.3963   12.2370  H     
29   H        36.4112   -0.4783   13.7484  H     
30   H        39.1131    2.0060   12.2503  H     
31   H        41.2785   -1.0629   12.9161  H     
32   H        40.5603    0.0427   14.0472  H     
33   H        41.1792   -1.9149   15.0463  H     
34   H        39.3761   -3.5876   13.4378  H     
35   H        41.1475   -3.4917   13.2810  H     
36   H        40.4533   -5.4477   14.6678  H     
37   H        41.4883   -4.3028   15.5521  H     
38   H        38.4322   -4.6065   15.7845  H     
39   H        39.6433   -4.9729   17.0173  H     
40   H        38.4793   -2.7427   17.4017  H     
41   H        40.2414   -2.6441   17.3277  H     
42   H        39.3731   -0.7987   16.0430  H     
43   H        38.2422   -1.8235   15.1579  H     
44   H        37.0291   -6.0149   14.1559  H     
45   H        35.3627   -6.3204   14.6729  H     
46   H        36.3016   -5.0087   15.4240  H     
@<TRIPOS>BOND
     1    1    2 2
     2    1    6 1
     3    1   22 1
     4    2    3 1
     5    3    4 1
     6    9    3 1
     7    4    5 1
     8    4    8 2
     9    5    6 1
    10    6    7 2
    11    9   10 1
    12    9   13 1
    13   10   11 1
    14   11   12 1
    15   11   15 1
    16   12   13 1
    17   12   14 1
    18   15   16 1
    19   16   17 1
    20   16   21 1
    21   17   18 1
    22   18   19 1
    23   19   20 1
    24   20   21 1
    25    2   23 1
    26    5   24 1
    27    9   25 1
    28   11   26 1
    29   12   27 1
    30   13   28 1
    31   13   29 1
    32   14   30 1
    33   15   31 1
    34   15   32 1
    35   16   33 1
    36   17   34 1
    37   17   35 1
    38   18   36 1
    39   18   37 1
    40   19   38 1
    41   19   39 1
    42   20   40 1
    43   20   41 1
    44   21   42 1
    45   21   43 1
    46   22   44 1
    47   22   45 1
    48   22   46 1
@<TRIPOS>PROPERTY_DATA
  Total_Score	| 4.4316
  Crash		| -0.7011
  Polar		| 3.0583
  FragIndex	| 1
  FragRMSD	| 0.914

