@<TRIPOS>MOLECULE
BindingDB_14268
 69 73 0 0 0
SMALL
NO_CHARGES


@<TRIPOS>ATOM
1    C        23.1914   -5.8590   -4.2833  C     
2    C        22.8240   -7.1113   -4.8377  C     
3    C        21.5655   -7.2677   -5.4645  C     
4    C        22.3220   -4.7552   -4.3712  C     
5    C        21.0725   -4.9255   -5.0025  C     
6    C        20.7048   -6.1659   -5.5332  C     
7    C        19.0923   -4.7425   -5.8657  C     
8    N        19.4846   -6.0217   -6.0306  N     
9    N        20.0727   -4.0603   -5.2260  N     
10   C        17.8235   -4.1669   -6.3482  C     
11   N        17.5709   -4.7042   -7.6606  N     
12   C        17.7952   -4.1221   -8.8364  C     
13   O        18.2925   -3.0036   -8.8832  O     
14   C        17.5014   -4.8363  -10.0745  C     
15   C        18.4882   -6.0226  -10.2811  C     
16   C        18.3239   -6.7070  -11.6038  C     
17   C        18.5649   -6.7050  -14.0461  C     
18   C        18.8036   -6.1045  -12.7972  C     
19   C        17.6150   -7.9260  -11.7009  C     
20   C        17.3919   -8.5355  -12.9503  C     
21   C        17.8583   -7.9139  -14.1295  C     
22   N        17.6170   -3.9711  -11.2251  N     
23   C        16.7042   -3.7193  -12.1566  C     
24   C        17.0738   -2.8732  -13.2596  C     
25   O        15.5928   -4.2368  -12.1481  O     
26   C        16.6133   -4.4940   -5.4136  C     
27   C        16.6258   -3.7252   -4.1386  C     
28   C        16.7383   -2.3157   -4.1716  C     
29   C        16.4863   -4.3445   -2.8794  C     
30   C        16.5336   -3.5926   -1.6889  C     
31   C        16.7343   -2.1843   -1.7244  C     
32   C        16.7856   -1.5563   -2.9894  C     
33   C        16.8821   -1.3392   -0.5063  C     
34   C        17.7896   -1.8042    0.6714  C     
35   S        15.3015   -0.9595    0.2680  S     
36   O        14.7773    0.5062   -0.0581  O     
37   O        14.2369   -2.1345    0.2886  O     
38   N        15.9348   -0.9085    1.8140  N     
39   C        17.1522   -1.3816    1.8993  C     
40   O        17.6872   -1.5020    2.9916  O     
41   H        24.0963   -5.7611   -3.8172  H     
42   H        23.4623   -7.9078   -4.7680  H     
43   H        21.2936   -8.1696   -5.8646  H     
44   H        22.5839   -3.8459   -3.9781  H     
45   H        18.9766   -6.7140   -6.4667  H     
46   H        17.9327   -3.0791   -6.3926  H     
47   H        17.2084   -5.5935   -7.6832  H     
48   H        16.4832   -5.2377   -9.9974  H     
49   H        19.5151   -5.6636  -10.1844  H     
50   H        18.3473   -6.7759   -9.4844  H     
51   H        18.9064   -6.2573  -14.8993  H     
52   H        19.3124   -5.2125  -12.7596  H     
53   H        17.2419   -8.3741  -10.8544  H     
54   H        16.8728   -9.4082  -13.0063  H     
55   H        17.6774   -8.3467  -15.0358  H     
56   H        18.4729   -3.5424  -11.3517  H     
57   H        17.4271   -1.9090  -12.8879  H     
58   H        16.2221   -2.6870  -13.9361  H     
59   H        17.8704   -3.3482  -13.8399  H     
60   H        15.6791   -4.2735   -5.9362  H     
61   H        16.5978   -5.5732   -5.2164  H     
62   H        16.7999   -1.8232   -5.0684  H     
63   H        16.3702   -5.3609   -2.8123  H     
64   H        16.4262   -4.0901   -0.8013  H     
65   H        16.8839   -0.5421   -3.0609  H     
66   H        17.2897   -0.3690   -0.8122  H     
67   H        17.9419   -2.8854    0.7059  H     
68   H        18.7745   -1.3261    0.5992  H     
69   H        15.4245   -0.6412    2.5877  H     
@<TRIPOS>BOND
     1    1    2 2
     2    1    4 1
     3    2    3 1
     4    3    6 2
     5    4    5 2
     6    5    6 1
     7    5    9 1
     8    6    8 1
     9    7    8 1
    10    7    9 2
    11    7   10 1
    12   10   11 1
    13   10   26 1
    14   11   12 am
    15   12   13 2
    16   12   14 1
    17   14   15 1
    18   14   22 1
    19   15   16 1
    20   16   18 1
    21   16   19 2
    22   17   18 2
    23   17   21 1
    24   19   20 1
    25   20   21 2
    26   22   23 am
    27   23   24 1
    28   23   25 2
    29   26   27 1
    30   27   28 1
    31   27   29 2
    32   28   32 2
    33   29   30 1
    34   30   31 2
    35   31   32 1
    36   31   33 1
    37   33   34 1
    38   33   35 1
    39   34   39 1
    40   35   36 2
    41   35   37 2
    42   35   38 1
    43   38   39 1
    44   39   40 2
    45    1   41 1
    46    2   42 1
    47    3   43 1
    48    4   44 1
    49    8   45 1
    50   10   46 1
    51   11   47 1
    52   14   48 1
    53   15   49 1
    54   15   50 1
    55   17   51 1
    56   18   52 1
    57   19   53 1
    58   20   54 1
    59   21   55 1
    60   22   56 1
    61   24   57 1
    62   24   58 1
    63   24   59 1
    64   26   60 1
    65   26   61 1
    66   28   62 1
    67   29   63 1
    68   30   64 1
    69   32   65 1
    70   33   66 1
    71   34   67 1
    72   34   68 1
    73   38   69 1
@<TRIPOS>PROPERTY_DATA
  Total_Score	| 13.8024
  Crash		| -1.8969
  Polar		| 8.0501
  FragIndex	| 1
  FragRMSD	| 0.206

