@<TRIPOS>MOLECULE
BindingDB_13811
 58 60 0 0 0
SMALL
NO_CHARGES


@<TRIPOS>ATOM
1    C        16.6185   -3.7033   -4.0773  C     
2    C        16.7401   -2.2927   -3.9964  C     
3    C        16.7177   -1.6333   -2.7501  C     
4    C        16.6055   -2.3675   -1.5453  C     
5    C        16.4689   -3.7719   -1.6297  C     
6    C        16.4633   -4.4261   -2.8714  C     
7    C        16.5894   -1.7345   -0.3164  C     
8    C        17.1724   -1.3582    1.8227  C     
9    C        17.5407   -1.8395    0.6306  C     
10   O        14.8819    0.4517   -0.1871  O     
11   S        15.2028   -1.0103    0.3558  S     
12   O        14.0241   -2.0733    0.4852  O     
13   N        15.9646   -0.8717    1.8466  N     
14   O        17.8776   -1.3980    2.8313  O     
15   C        16.5997   -4.3929   -5.4029  C     
16   C        17.7929   -4.0397   -6.3501  C     
17   C        19.0665   -4.5491   -5.8377  C     
18   O        19.8833   -3.7953   -5.3208  O     
19   N        19.3954   -5.8244   -5.9057  N     
20   N        17.5543   -4.5477   -7.6855  N     
21   C        17.8664   -3.9778   -8.8544  C     
22   O        18.4395   -2.8942   -8.8794  O     
23   C        17.5307   -4.6528  -10.1201  C     
24   C        18.4308   -5.9174  -10.3070  C     
25   C        18.2314   -6.6324  -11.6049  C     
26   C        17.8754   -7.9755  -14.0855  C     
27   C        18.5277   -6.7274  -14.0450  C     
28   C        18.7085   -6.0670  -12.8130  C     
29   C        17.6018   -7.9036  -11.6622  C     
30   C        17.4199   -8.5647  -12.8923  C     
31   N        17.6172   -3.7762  -11.2654  N     
32   C        17.0217   -2.8497  -13.3855  C     
33   C        16.7081   -3.6675  -12.2272  C     
34   O        15.6181   -4.2420  -12.1653  O     
35   H        16.8339   -1.7432   -4.8547  H     
36   H        16.8035   -0.6112   -2.7292  H     
37   H        16.3333   -4.3292   -0.7820  H     
38   H        16.3417   -5.4441   -2.8919  H     
39   H        18.4056   -2.3137    0.4870  H     
40   H        15.5220   -0.5329    2.6381  H     
41   H        16.5577   -5.4820   -5.2578  H     
42   H        15.6634   -4.1193   -5.8928  H     
43   H        17.8437   -2.9483   -6.3775  H     
44   H        20.2437   -6.1313   -5.5438  H     
45   H        18.7925   -6.4648   -6.3146  H     
46   H        17.1068   -5.4082   -7.7307  H     
47   H        16.4933   -5.0033  -10.0480  H     
48   H        19.4843   -5.6393  -10.2310  H     
49   H        18.2279   -6.6177   -9.4896  H     
50   H        17.7489   -8.4572  -14.9800  H     
51   H        18.8664   -6.2978  -14.9141  H     
52   H        19.2111   -5.1796  -12.8073  H     
53   H        17.2591   -8.3504  -10.8090  H     
54   H        16.9647   -9.4821  -12.9174  H     
55   H        18.4499   -3.2666  -11.3655  H     
56   H        17.3136   -1.8432  -13.0600  H     
57   H        16.1562   -2.7590  -14.0504  H     
58   H        17.8521   -3.2898  -13.9572  H     
@<TRIPOS>BOND
     1    1    2 1
     2    1    6 2
     3    1   15 1
     4    2    3 2
     5    3    4 1
     6    4    5 2
     7    4    7 1
     8    5    6 1
     9    7    9 2
    10    7   11 1
    11    8    9 1
    12    8   13 1
    13    8   14 2
    14   10   11 2
    15   11   12 2
    16   11   13 1
    17   16   15 1
    18   16   17 1
    19   16   20 1
    20   17   18 2
    21   17   19 am
    22   20   21 am
    23   21   22 2
    24   21   23 1
    25   23   24 1
    26   23   31 1
    27   24   25 1
    28   25   28 1
    29   25   29 2
    30   26   27 1
    31   26   30 2
    32   27   28 2
    33   29   30 1
    34   31   33 am
    35   32   33 1
    36   33   34 2
    37    2   35 1
    38    3   36 1
    39    5   37 1
    40    6   38 1
    41    9   39 1
    42   13   40 1
    43   15   41 1
    44   15   42 1
    45   16   43 1
    46   19   44 1
    47   19   45 1
    48   20   46 1
    49   23   47 1
    50   24   48 1
    51   24   49 1
    52   26   50 1
    53   27   51 1
    54   28   52 1
    55   29   53 1
    56   30   54 1
    57   31   55 1
    58   32   56 1
    59   32   57 1
    60   32   58 1
@<TRIPOS>PROPERTY_DATA
  Total_Score	| 12.7221
  Crash		| -1.5285
  Polar		| 7.8621
  FragIndex	| 1
  FragRMSD	| 0.298

