@<TRIPOS>MOLECULE
BindingDB_50341990
 89 92 0 0 0
SMALL
NO_CHARGES


@<TRIPOS>ATOM
1    O        14.3072   -2.2241    0.2838  O     
2    S        15.3163   -0.9979    0.2635  S     
3    O        14.7623    0.4377   -0.1425  O     
4    C        18.9388   -2.9415  -13.9210  C     
5    C        19.7768   -2.9995  -15.0527  C     
6    C        19.3151   -2.5735  -16.3122  C     
7    C        18.0105   -2.0539  -16.4232  C     
8    C        17.1557   -2.0183  -15.3037  C     
9    C        17.6019   -2.4843  -14.0392  C     
10   C        16.6992   -2.3718  -12.8480  C     
11   C        16.6546   -3.5353  -11.9726  C     
12   O        15.7106   -4.3194  -12.0532  O     
13   N        17.5948   -3.7014  -11.0552  N     
14   C        17.6406   -4.6613   -9.9826  C     
15   C        17.9523   -4.0096   -8.7088  C     
16   N        17.7553   -4.6665   -7.5730  N     
17   O        18.4269   -2.8773   -8.6922  O     
18   C        17.9910   -4.1978   -6.2278  C     
19   C        19.2175   -4.7967   -5.6895  C     
20   N        19.3320   -6.1185   -5.5781  N     
21   O        20.1397   -4.0617   -5.3466  O     
22   C        18.7030   -5.7462  -10.3266  C     
23   C        16.7406   -4.5220   -5.3502  C     
24   C        16.7293   -3.7444   -4.0786  C     
25   C        16.7264   -2.3316   -4.1207  C     
26   C        16.7761   -1.5786   -2.9360  C     
27   C        16.8447   -2.2088   -1.6695  C     
28   C        16.7910   -3.6271   -1.6297  C     
29   C        16.9388   -1.3513   -0.4473  C     
30   O        20.1652   -2.5931  -17.3846  O     
31   C        19.8400   -3.6345  -18.3230  C     
32   C        16.7439   -4.3821   -2.8164  C     
33   C        20.4569   -6.8471   -5.0688  C     
34   C        20.5356   -8.2486   -5.7254  C     
35   C        20.8090   -8.1781   -7.2523  C     
36   C        20.6338   -9.5230   -8.0141  C     
37   C        19.1876   -9.8124   -8.4761  C     
38   N        15.9225   -0.8518    1.8206  N     
39   C        17.1568   -1.2784    1.9588  C     
40   C        17.8109   -1.7901    0.7658  C     
41   O        17.6779   -1.3184    3.0623  O     
42   C        18.3778   -6.4968  -11.5713  C     
43   C        18.9001   -6.0894  -12.8273  C     
44   C        18.5728   -6.8049  -13.9996  C     
45   C        17.7641   -7.9588  -13.9273  C     
46   C        17.2680   -8.3867  -12.6785  C     
47   C        17.5498   -7.6465  -11.5125  C     
48   H        19.3104   -3.2522  -13.0166  H     
49   H        20.7307   -3.3422  -14.9439  H     
50   H        17.6732   -1.7086  -17.3245  H     
51   H        16.2108   -1.6241  -15.4165  H     
52   H        17.0266   -1.5005  -12.2602  H     
53   H        15.6697   -2.1443  -13.1714  H     
54   H        18.3326   -3.0780  -11.0938  H     
55   H        16.6656   -5.1418   -9.8611  H     
56   H        17.3752   -5.5597   -7.6392  H     
57   H        18.1189   -3.1050   -6.2448  H     
58   H        18.5832   -6.6404   -5.9027  H     
59   H        19.6828   -5.2640  -10.4097  H     
60   H        18.7778   -6.4693   -9.5077  H     
61   H        15.8279   -4.2781   -5.9083  H     
62   H        16.7065   -5.5985   -5.1505  H     
63   H        16.7036   -1.8333   -5.0140  H     
64   H        16.7851   -0.5536   -3.0031  H     
65   H        16.8000   -4.1261   -0.7404  H     
66   H        17.3421   -0.3836   -0.7613  H     
67   H        19.8804   -4.6263  -17.8587  H     
68   H        20.5793   -3.6023  -19.1236  H     
69   H        18.8507   -3.4776  -18.7672  H     
70   H        16.7369   -5.4020   -2.7619  H     
71   H        21.3871   -6.3049   -5.2587  H     
72   H        20.3316   -6.9536   -3.9899  H     
73   H        21.3423   -8.8103   -5.2509  H     
74   H        19.6042   -8.7777   -5.5275  H     
75   H        20.1579   -7.4317   -7.7136  H     
76   H        21.8411   -7.8386   -7.3974  H     
77   H        21.2722   -9.4904   -8.9021  H     
78   H        20.9884  -10.3434   -7.3821  H     
79   H        18.5242   -9.9435   -7.6226  H     
80   H        19.1740  -10.7277   -9.0668  H     
81   H        18.8169   -8.9958   -9.0906  H     
82   H        15.3919   -0.5261    2.5689  H     
83   H        17.9096   -2.8752    0.8630  H     
84   H        18.8081   -1.3428    0.6904  H     
85   H        19.4820   -5.2443  -12.9004  H     
86   H        18.9387   -6.5013  -14.9093  H     
87   H        17.5332   -8.4909  -14.7807  H     
88   H        16.6679   -9.2146  -12.6250  H     
89   H        17.1561   -7.9564  -10.6163  H     
@<TRIPOS>BOND
     1    1    2 2
     2    2    3 2
     3    2   29 1
     4    2   38 1
     5    4    5 2
     6    4    9 1
     7    5    6 1
     8    6    7 2
     9    6   30 1
    10    7    8 1
    11    8    9 2
    12    9   10 1
    13   10   11 1
    14   11   12 2
    15   11   13 am
    16   13   14 1
    17   14   15 1
    18   14   22 1
    19   15   16 am
    20   15   17 2
    21   16   18 1
    22   18   19 1
    23   18   23 1
    24   19   20 am
    25   19   21 2
    26   20   33 1
    27   22   42 1
    28   23   24 1
    29   24   25 2
    30   24   32 1
    31   25   26 1
    32   26   27 2
    33   27   28 1
    34   27   29 1
    35   28   32 2
    36   29   40 1
    37   30   31 1
    38   33   34 1
    39   34   35 1
    40   35   36 1
    41   36   37 1
    42   38   39 1
    43   39   40 1
    44   39   41 2
    45   42   43 2
    46   42   47 1
    47   43   44 1
    48   44   45 2
    49   45   46 1
    50   46   47 2
    51    4   48 1
    52    5   49 1
    53    7   50 1
    54    8   51 1
    55   10   52 1
    56   10   53 1
    57   13   54 1
    58   14   55 1
    59   16   56 1
    60   18   57 1
    61   20   58 1
    62   22   59 1
    63   22   60 1
    64   23   61 1
    65   23   62 1
    66   25   63 1
    67   26   64 1
    68   28   65 1
    69   29   66 1
    70   31   67 1
    71   31   68 1
    72   31   69 1
    73   32   70 1
    74   33   71 1
    75   33   72 1
    76   34   73 1
    77   34   74 1
    78   35   75 1
    79   35   76 1
    80   36   77 1
    81   36   78 1
    82   37   79 1
    83   37   80 1
    84   37   81 1
    85   38   82 1
    86   40   83 1
    87   40   84 1
    88   43   85 1
    89   44   86 1
    90   45   87 1
    91   46   88 1
    92   47   89 1
@<TRIPOS>PROPERTY_DATA
  Total_Score	| 12.7361
  Crash		| -2.5264
  Polar		| 7.9182
  FragIndex	| 1
  FragRMSD	| 0.450

