@<TRIPOS>MOLECULE
BindingDB_13809
 77 81 0 0 0
SMALL
NO_CHARGES


@<TRIPOS>ATOM
1    C        16.5499   -3.6891   -4.0480  C     
2    C        16.7044   -2.2845   -3.9744  C     
3    C        16.7088   -1.6235   -2.7341  C     
4    C        16.5867   -2.3511   -1.5291  C     
5    C        16.4299   -3.7556   -1.6034  C     
6    C        16.3983   -4.4157   -2.8450  C     
7    C        16.5876   -1.7102   -0.3049  C     
8    C        17.1771   -1.3510    1.8304  C     
9    C        17.5337   -1.8427    0.6381  C     
10   O        14.8920    0.4548   -0.2169  O     
11   S        15.1975   -0.9945    0.3687  S     
12   O        14.0306   -2.0714    0.4621  O     
13   N        15.9623   -0.8585    1.8545  N     
14   O        17.8823   -1.3996    2.8317  O     
15   C        16.5546   -4.3756   -5.3731  C     
16   C        17.8407   -4.1093   -6.2136  C     
17   C        19.0341   -4.6464   -5.5751  C     
18   O        19.8580   -3.9019   -5.0619  O     
19   N        19.2757   -5.9447   -5.5310  N     
20   N        17.6919   -4.7143   -7.5112  N     
21   C        17.9486   -4.1790   -8.6974  C     
22   O        18.3938   -3.0419   -8.7763  O     
23   C        17.7267   -4.9804   -9.9011  C     
24   C        18.7437   -6.1616  -10.0247  C     
25   C        18.3498   -7.2117  -11.0149  C     
26   C        17.6036   -9.2309  -12.8762  C     
27   C        17.7543   -7.8930  -13.2984  C     
28   C        18.1277   -6.8903  -12.3813  C     
29   C        18.2207   -8.5667  -10.6049  C     
30   C        17.8528   -9.5652  -11.5291  C     
31   N        17.8266   -4.1566  -11.0749  N     
32   C        16.8986   -3.9433  -12.0021  C     
33   O        15.8258   -4.5380  -11.9818  O     
34   C        17.1201   -2.9560  -13.0457  C     
35   C        17.1730   -1.5495  -12.5441  C     
36   C        16.3137   -1.0990  -11.5148  C     
37   C        16.3229    0.2491  -11.1048  C     
38   C        17.1661    1.1999  -11.7327  C     
39   C        18.0317    0.7350  -12.7541  C     
40   C        18.0336   -0.6113  -13.1515  C     
41   C        17.1354    2.5511  -11.3753  C     
42   C        17.1736    4.7909  -11.6561  C     
43   C        17.2762    3.5820  -12.2253  C     
44   S        16.8836    3.1647   -9.7963  S     
45   O        15.4029    2.8854   -9.2726  O     
46   O        18.1129    2.8487   -8.8353  O     
47   N        16.9707    4.7380  -10.3624  N     
48   O        17.2065    5.8496  -12.2682  O     
49   H        16.8130   -1.7368   -4.8309  H     
50   H        16.8200   -0.6077   -2.7166  H     
51   H        16.3114   -4.3102   -0.7536  H     
52   H        16.2811   -5.4341   -2.8644  H     
53   H        18.3897   -2.3221    0.4889  H     
54   H        15.5341   -0.5066    2.6527  H     
55   H        16.4273   -5.4571   -5.2474  H     
56   H        15.6836   -4.0332   -5.9358  H     
57   H        17.9543   -3.0252   -6.3151  H     
58   H        20.0841   -6.2695   -5.1004  H     
59   H        18.6598   -6.5744   -5.9481  H     
60   H        17.3543   -5.6207   -7.5113  H     
61   H        16.7194   -5.3962   -9.8110  H     
62   H        19.7295   -5.7698  -10.2936  H     
63   H        18.8578   -6.6234   -9.0400  H     
64   H        17.3384   -9.9626  -13.5482  H     
65   H        17.6077   -7.6558  -14.2824  H     
66   H        18.2517   -5.9260  -12.7186  H     
67   H        18.4039   -8.8358   -9.6261  H     
68   H        17.7729  -10.5386  -11.2162  H     
69   H        18.6447   -3.6485  -11.1743  H     
70   H        18.0512   -3.2187  -13.5691  H     
71   H        16.3188   -3.0015  -13.7970  H     
72   H        15.6629   -1.7528  -11.0725  H     
73   H        15.6768    0.5270  -10.3676  H     
74   H        18.6702    1.3796  -13.2299  H     
75   H        18.6633   -0.8996  -13.9080  H     
76   H        17.3794    3.4777  -13.2097  H     
77   H        16.7967    5.5184   -9.8155  H     
@<TRIPOS>BOND
     1    1    2 1
     2    1    6 2
     3    1   15 1
     4    2    3 2
     5    3    4 1
     6    4    5 2
     7    4    7 1
     8    5    6 1
     9    7    9 2
    10    7   11 1
    11    8    9 1
    12    8   13 1
    13    8   14 2
    14   10   11 2
    15   11   12 2
    16   11   13 1
    17   16   15 1
    18   16   17 1
    19   16   20 1
    20   17   18 2
    21   17   19 am
    22   20   21 am
    23   21   22 2
    24   21   23 1
    25   23   24 1
    26   23   31 1
    27   24   25 1
    28   25   28 1
    29   25   29 2
    30   26   27 1
    31   26   30 2
    32   27   28 2
    33   29   30 1
    34   31   32 am
    35   32   33 2
    36   32   34 1
    37   34   35 1
    38   35   36 2
    39   35   40 1
    40   36   37 1
    41   37   38 2
    42   38   39 1
    43   38   41 1
    44   39   40 2
    45   41   43 2
    46   41   44 1
    47   42   43 1
    48   42   47 1
    49   42   48 2
    50   44   45 2
    51   44   46 2
    52   44   47 1
    53    2   49 1
    54    3   50 1
    55    5   51 1
    56    6   52 1
    57    9   53 1
    58   13   54 1
    59   15   55 1
    60   15   56 1
    61   16   57 1
    62   19   58 1
    63   19   59 1
    64   20   60 1
    65   23   61 1
    66   24   62 1
    67   24   63 1
    68   26   64 1
    69   27   65 1
    70   28   66 1
    71   29   67 1
    72   30   68 1
    73   31   69 1
    74   34   70 1
    75   34   71 1
    76   36   72 1
    77   37   73 1
    78   39   74 1
    79   40   75 1
    80   43   76 1
    81   47   77 1
@<TRIPOS>PROPERTY_DATA
  Total_Score	| 15.0439
  Crash		| -2.2397
  Polar		| 10.2412
  FragIndex	| 1
  FragRMSD	| 0.626

