@<TRIPOS>MOLECULE
BindingDB_50189674
 49 52 0 0 0
SMALL
NO_CHARGES


@<TRIPOS>ATOM
1    C        16.5539   -3.7579   -4.1483  C     
2    C        16.5985   -2.3465   -4.1765  C     
3    C        16.6823   -1.6065   -2.9871  C     
4    C        16.7186   -2.2458   -1.7227  C     
5    C        16.6189   -3.6619   -1.7036  C     
6    C        16.5291   -4.4040   -2.8944  C     
7    C        16.5890   -4.5391   -5.4185  C     
8    C        16.8863   -1.3849   -0.5088  C     
9    C        17.8702   -4.2673   -6.2686  C     
10   N        17.7115   -4.7935   -7.5906  N     
11   C        19.0845   -4.8122   -5.6192  C     
12   N        19.9058   -4.0563   -4.8569  N     
13   N        19.4811   -6.1019   -5.5815  N     
14   C        20.5719   -6.1750   -4.8098  C     
15   C        20.8351   -4.8814   -4.3501  C     
16   C        21.9207   -4.6176   -3.4835  C     
17   C        22.7566   -5.6923   -3.1019  C     
18   C        22.4930   -7.0037   -3.5734  C     
19   C        21.3921   -7.2550   -4.4260  C     
20   S        15.3035   -0.9832    0.2654  S     
21   N        15.9478   -0.8907    1.8055  N     
22   C        17.1711   -1.3456    1.9035  C     
23   C        17.7970   -1.8123    0.6874  C     
24   O        14.2481   -2.1719    0.3043  O     
25   O        14.8058    0.4858   -0.0851  O     
26   O        17.7120   -1.4431    2.9943  O     
27   C        17.8983   -4.1355   -8.7235  C     
28   C        17.5538   -4.7833   -9.9670  C     
29   O        18.3005   -2.9788   -8.7421  O     
30   H        16.5989   -1.8468   -5.0669  H     
31   H        16.7351   -0.5857   -3.0524  H     
32   H        16.6305   -4.1848   -0.8248  H     
33   H        16.4816   -5.4255   -2.8338  H     
34   H        16.5167   -5.6099   -5.2137  H     
35   H        15.7071   -4.2713   -6.0041  H     
36   H        17.2947   -0.4344   -0.8733  H     
37   H        17.9858   -3.1807   -6.3586  H     
38   H        17.3518   -5.6932   -7.6663  H     
39   H        19.0424   -6.8520   -6.0105  H     
40   H        22.0984   -3.6675   -3.1445  H     
41   H        23.5605   -5.5178   -2.4835  H     
42   H        23.1000   -7.7796   -3.2881  H     
43   H        21.1991   -8.2029   -4.7667  H     
44   H        15.4289   -0.6035    2.5752  H     
45   H        17.9358   -2.8923    0.7774  H     
46   H        18.7801   -1.3412    0.5914  H     
47   H        18.1453   -5.6902  -10.0920  H     
48   H        17.7374   -4.1300  -10.8203  H     
49   H        16.4956   -5.0491   -9.9536  H     
@<TRIPOS>BOND
     1    1    2 2
     2    1    6 1
     3    1    7 1
     4    2    3 1
     5    3    4 2
     6    4    5 1
     7    4    8 1
     8    5    6 2
     9    9    7 1
    10    8   20 1
    11    8   23 1
    12    9   10 1
    13    9   11 1
    14   10   27 am
    15   11   12 2
    16   11   13 1
    17   12   15 1
    18   13   14 1
    19   14   15 2
    20   14   19 1
    21   15   16 1
    22   16   17 2
    23   17   18 1
    24   18   19 2
    25   20   21 1
    26   20   24 2
    27   20   25 2
    28   21   22 1
    29   22   23 1
    30   22   26 2
    31   27   28 1
    32   27   29 2
    33    2   30 1
    34    3   31 1
    35    5   32 1
    36    6   33 1
    37    7   34 1
    38    7   35 1
    39    8   36 1
    40    9   37 1
    41   10   38 1
    42   13   39 1
    43   16   40 1
    44   17   41 1
    45   18   42 1
    46   19   43 1
    47   21   44 1
    48   23   45 1
    49   23   46 1
    50   28   47 1
    51   28   48 1
    52   28   49 1
@<TRIPOS>PROPERTY_DATA
  Total_Score	| 11.3768
  Crash		| -1.3901
  Polar		| 6.9863
  FragIndex	| 1
  FragRMSD	| 0.247

