@<TRIPOS>MOLECULE
BindingDB_13465
 60 62 0 0 0
SMALL
NO_CHARGES


@<TRIPOS>ATOM
1    C        16.7053   -3.6836   -4.1873  C     
2    C        16.5369   -4.2918   -2.9225  C     
3    C        16.5750   -3.5235   -1.7436  C     
4    C        16.7734   -2.1244   -1.7827  C     
5    C        16.8972   -1.5206   -3.0559  C     
6    C        16.8580   -2.2804   -4.2338  C     
7    C        16.7405   -4.4740   -5.4516  C     
8    C        17.9749   -4.1742   -6.3600  C     
9    C        19.2238   -4.6776   -5.8043  C     
10   O        20.0748   -3.9085   -5.3834  O     
11   N        19.4999   -5.9621   -5.7579  N     
12   N        17.7502   -4.7616   -7.6545  N     
13   C        17.9286   -4.2007   -8.8492  C     
14   O        18.3905   -3.0662   -8.9302  O     
15   C        17.5272   -4.9191  -10.0640  C     
16   C        18.3722   -6.2108  -10.3006  C     
17   C        18.1934   -6.8028  -11.6631  C     
18   C        17.7775   -7.8622  -14.2619  C     
19   C        18.5297   -6.6870  -14.0942  C     
20   C        18.7382   -6.1628  -12.8045  C     
21   C        17.4456   -7.9908  -11.8482  C     
22   C        17.2434   -8.5197  -13.1387  C     
23   N        17.6531   -4.0783  -11.2308  N     
24   C        16.7369   -3.8193  -12.1510  C     
25   O        15.6035   -4.2906  -12.1019  O     
26   C        17.0972   -2.9570  -13.2505  C     
27   C        16.8371   -1.2782   -0.5507  C     
28   C        17.1186   -1.4050    1.8472  C     
29   C        17.7652   -1.7606    0.6059  C     
30   O        17.6488   -1.5676    2.9402  O     
31   N        15.8959   -0.9470    1.7733  N     
32   S        15.2399   -0.9806    0.2322  S     
33   O        14.7356    0.5067   -0.0082  O     
34   O        14.1708   -2.1593    0.2686  O     
35   H        16.3924   -5.3046   -2.8612  H     
36   H        16.4536   -4.0015   -0.8473  H     
37   H        17.0195   -0.5095   -3.1421  H     
38   H        16.9456   -1.7973   -5.1296  H     
39   H        16.7071   -5.5481   -5.2360  H     
40   H        15.8227   -4.2350   -6.0024  H     
41   H        18.0556   -3.0848   -6.4584  H     
42   H        20.3488   -6.2621   -5.3995  H     
43   H        18.8716   -6.6054   -6.1247  H     
44   H        17.3818   -5.6560   -7.6448  H     
45   H        16.4818   -5.2264   -9.9307  H     
46   H        19.4289   -5.9845  -10.1424  H     
47   H        18.1009   -6.9611   -9.5555  H     
48   H        17.6182   -8.2354  -15.2019  H     
49   H        18.9226   -6.2084  -14.9090  H     
50   H        19.2778   -5.3005  -12.7026  H     
51   H        17.0346   -8.4739  -11.0461  H     
52   H        16.6986   -9.3766  -13.2645  H     
53   H        18.5178   -3.6509  -11.3595  H     
54   H        17.4935   -2.0147  -12.8641  H     
55   H        16.2385   -2.7333  -13.8877  H     
56   H        17.8665   -3.4426  -13.8577  H     
57   H        17.1870   -0.2812   -0.8314  H     
58   H        17.9316   -2.8399    0.5803  H     
59   H        18.7305   -1.2533    0.5425  H     
60   H        15.3885   -0.6759    2.5536  H     
@<TRIPOS>BOND
     1    1    2 1
     2    1    6 2
     3    1    7 1
     4    2    3 2
     5    3    4 1
     6    4    5 2
     7    4   27 1
     8    5    6 1
     9    8    7 1
    10    8    9 1
    11    8   12 1
    12    9   10 2
    13    9   11 am
    14   12   13 am
    15   13   14 2
    16   13   15 1
    17   15   16 1
    18   15   23 1
    19   16   17 1
    20   17   20 1
    21   17   21 2
    22   18   19 1
    23   18   22 2
    24   19   20 2
    25   21   22 1
    26   23   24 am
    27   24   25 2
    28   24   26 1
    29   27   29 1
    30   27   32 1
    31   28   29 1
    32   28   30 2
    33   28   31 1
    34   31   32 1
    35   32   33 2
    36   32   34 2
    37    2   35 1
    38    3   36 1
    39    5   37 1
    40    6   38 1
    41    7   39 1
    42    7   40 1
    43    8   41 1
    44   11   42 1
    45   11   43 1
    46   12   44 1
    47   15   45 1
    48   16   46 1
    49   16   47 1
    50   18   48 1
    51   19   49 1
    52   20   50 1
    53   21   51 1
    54   22   52 1
    55   23   53 1
    56   26   54 1
    57   26   55 1
    58   26   56 1
    59   27   57 1
    60   29   58 1
    61   29   59 1
    62   31   60 1
@<TRIPOS>PROPERTY_DATA
  Total_Score	| 13.7209
  Crash		| -2.0971
  Polar		| 8.4397
  FragIndex	| 1
  FragRMSD	| 0.193

