@<TRIPOS>MOLECULE
BindingDB_13807
 60 62 0 0 0
SMALL
NO_CHARGES


@<TRIPOS>ATOM
1    C        16.5535   -3.7847   -4.1461  C     
2    C        16.5991   -2.3955   -3.8700  C     
3    C        16.5913   -1.9180   -2.5430  C     
4    C        16.4915   -2.8152   -1.4519  C     
5    C        16.4877   -4.2023   -1.7379  C     
6    C        16.5234   -4.6812   -3.0562  C     
7    C        16.3480   -2.3670   -0.0337  C     
8    C        17.0757   -1.0903    1.8341  C     
9    C        17.5976   -1.7981    0.6802  C     
10   O        15.0842    0.2395   -0.4889  O     
11   S        15.0824   -1.1323    0.3150  S     
12   O        13.6890   -1.8518    0.5826  O     
13   N        15.8071   -0.7580    1.7789  N     
14   O        17.6937   -0.9704    2.8815  O     
15   C        16.4854   -4.2963   -5.5453  C     
16   C        17.7292   -3.9569   -6.4177  C     
17   C        18.9710   -4.4672   -5.8560  C     
18   O        19.7800   -3.7027   -5.3526  O     
19   N        19.2681   -5.7501   -5.8512  N     
20   N        17.5460   -4.5277   -7.7237  N     
21   C        17.8478   -3.9795   -8.8962  C     
22   O        18.3682   -2.8694   -8.9456  O     
23   C        17.5587   -4.7203  -10.1235  C     
24   C        18.5576   -5.9045  -10.3114  C     
25   C        18.3415   -6.6390  -11.5894  C     
26   C        17.8143   -7.9758  -14.0360  C     
27   C        17.3218   -8.4958  -12.8260  C     
28   C        17.5677   -7.8223  -11.6138  C     
29   C        18.8504   -6.1386  -12.8134  C     
30   C        18.5805   -6.7965  -14.0280  C     
31   N        17.6335   -3.8648  -11.2835  N     
32   C        16.9985   -2.7729  -13.3008  C     
33   C        16.6857   -3.6282  -12.1800  C     
34   O        15.5744   -4.1320  -12.1005  O     
35   H        16.6199   -1.7177   -4.6372  H     
36   H        16.6241   -0.9091   -2.3827  H     
37   H        16.4285   -4.8841   -0.9818  H     
38   H        16.5011   -5.6928   -3.2123  H     
39   H        16.0282   -3.2272    0.5659  H     
40   H        18.2692   -2.6096    0.9793  H     
41   H        18.1415   -1.1044    0.0356  H     
42   H        15.3268   -0.3672    2.5256  H     
43   H        16.3401   -5.3814   -5.5551  H     
44   H        15.5955   -3.8666   -6.0092  H     
45   H        17.7803   -2.8648   -6.4901  H     
46   H        20.1078   -6.0461   -5.4670  H     
47   H        18.6678   -6.3999   -6.2481  H     
48   H        17.1556   -5.4174   -7.7448  H     
49   H        16.5482   -5.1329  -10.0187  H     
50   H        19.5803   -5.5158  -10.2748  H     
51   H        18.4640   -6.6117   -9.4801  H     
52   H        17.6157   -8.4542  -14.9179  H     
53   H        16.7619   -9.3511  -12.8292  H     
54   H        17.1641   -8.1969  -10.7480  H     
55   H        19.4000   -5.2765  -12.8310  H     
56   H        18.9380   -6.4152  -14.9066  H     
57   H        18.4889   -3.4342  -11.4419  H     
58   H        17.2648   -1.7782  -12.9410  H     
59   H        16.1507   -2.6780  -13.9835  H     
60   H        17.8423   -3.1860  -13.8566  H     
@<TRIPOS>BOND
     1    1    2 1
     2    1    6 2
     3    1   15 1
     4    2    3 2
     5    3    4 1
     6    4    5 2
     7    4    7 1
     8    5    6 1
     9    7    9 1
    10    7   11 1
    11    8    9 1
    12    8   13 1
    13    8   14 2
    14   10   11 2
    15   11   12 2
    16   11   13 1
    17   16   15 1
    18   16   17 1
    19   16   20 1
    20   17   18 2
    21   17   19 am
    22   20   21 am
    23   21   22 2
    24   21   23 1
    25   23   24 1
    26   23   31 1
    27   24   25 1
    28   25   28 1
    29   25   29 2
    30   26   27 1
    31   26   30 2
    32   27   28 2
    33   29   30 1
    34   31   33 am
    35   32   33 1
    36   33   34 2
    37    2   35 1
    38    3   36 1
    39    5   37 1
    40    6   38 1
    41    7   39 1
    42    9   40 1
    43    9   41 1
    44   13   42 1
    45   15   43 1
    46   15   44 1
    47   16   45 1
    48   19   46 1
    49   19   47 1
    50   20   48 1
    51   23   49 1
    52   24   50 1
    53   24   51 1
    54   26   52 1
    55   27   53 1
    56   28   54 1
    57   29   55 1
    58   30   56 1
    59   31   57 1
    60   32   58 1
    61   32   59 1
    62   32   60 1
@<TRIPOS>PROPERTY_DATA
  Total_Score	| 10.3207
  Crash		| -3.0427
  Polar		| 6.9138
  FragIndex	| 1
  FragRMSD	| 0.467

