@<TRIPOS>MOLECULE
BindingDB_29792
 83 87 0 0 0
SMALL
NO_CHARGES


@<TRIPOS>ATOM
1    C        30.5133    0.9918   34.3182  C     
2    O        31.3837    1.8480   34.2048  O     
3    N        29.3756    1.0782   33.6289  N     
4    C        29.0646    2.0122   32.5745  C     
5    C        28.3683    3.2926   33.1374  C     
6    C        28.1973    1.2958   31.4845  C     
7    C        28.7337   -0.0247   31.0342  C     
8    C        28.4829   -2.4503   30.7369  C     
9    C        27.9472   -1.2018   31.1062  C     
10   C        30.0577   -0.1302   30.5379  C     
11   C        30.5976   -1.3800   30.1832  C     
12   C        29.8113   -2.5432   30.2893  C     
13   C        29.2131    4.0477   34.1986  C     
14   N        28.5506    5.3113   34.5969  N     
15   O        28.1172    4.2126   32.0656  O     
16   C        30.7485   -0.0828   35.1639  C     
17   C        31.3679    0.0885   36.4296  C     
18   C        30.4175   -1.3932   34.7451  C     
19   C        31.6336   -1.0095   37.2854  C     
20   C        31.5458   -3.3122   39.8679  C     
21   C        32.2289   -3.8468   38.5853  C     
22   C        31.3087   -2.3110   36.8306  C     
23   C        30.7098   -2.4825   35.5826  C     
24   C        31.0512   -4.4655   36.5017  C     
25   C        30.5266   -3.8434   35.3720  C     
26   N        32.1848   -0.8048   38.5236  N     
27   N        31.5261   -3.5358   37.3673  N     
28   S        31.4245   -1.5074   39.8677  S     
29   O        31.9668   -0.9214   41.2469  O     
30   O        29.8811   -1.1282   39.8516  O     
31   C        29.9489   -4.5120   34.1818  C     
32   C        28.4192   -4.3071   34.0663  C     
33   C        29.3347    6.2417   35.4560  C     
34   C        29.5861    8.1970   37.7326  C     
35   C        29.4257    8.6905   36.2709  C     
36   C        28.6883    7.6582   35.3725  C     
37   C        29.4065    5.7772   36.9392  C     
38   C        30.2123    6.7834   37.7968  C     
39   C        33.4738   -0.1631   38.6701  C     
40   C        33.4388    1.0978   39.5731  C     
41   H        28.7059    0.3932   33.8035  H     
42   H        29.9869    2.3291   32.0825  H     
43   H        27.4151    3.0248   33.5925  H     
44   H        27.1818    1.1773   31.8729  H     
45   H        28.1262    1.9394   30.6032  H     
46   H        27.9087   -3.2948   30.8044  H     
47   H        26.9827   -1.1610   31.4437  H     
48   H        30.6431    0.7014   30.4454  H     
49   H        31.5621   -1.4483   29.8557  H     
50   H        30.2052   -3.4524   30.0333  H     
51   H        29.3516    3.4183   35.0778  H     
52   H        30.2024    4.2795   33.7656  H     
53   H        28.3147    5.8163   33.7339  H     
54   H        27.6822    5.0826   35.0703  H     
55   H        27.1787    4.0486   31.8000  H     
56   H        31.6099    1.0286   36.7459  H     
57   H        30.0135   -1.5595   33.8146  H     
58   H        30.5421   -3.7370   39.9519  H     
59   H        32.1197   -3.6231   40.7477  H     
60   H        33.2419   -3.4388   38.5254  H     
61   H        32.3365   -4.9303   38.7040  H     
62   H        31.0969   -5.4790   36.6396  H     
63   H        30.4370   -4.1166   33.2834  H     
64   H        30.1501   -5.5890   34.2217  H     
65   H        27.9146   -4.7277   34.9398  H     
66   H        28.0499   -4.8111   33.1684  H     
67   H        28.1741   -3.2459   33.9887  H     
68   H        30.3512    6.3196   35.0510  H     
69   H        30.2281    8.9005   38.2764  H     
70   H        28.6110    8.1859   38.2257  H     
71   H        28.8675    9.6249   36.2757  H     
72   H        30.4130    8.8825   35.8471  H     
73   H        28.7172    8.0077   34.3346  H     
74   H        27.6330    7.6040   35.6747  H     
75   H        28.3892    5.6776   37.3421  H     
76   H        29.8774    4.7970   36.9963  H     
77   H        31.2399    6.8315   37.4365  H     
78   H        30.2386    6.4454   38.8301  H     
79   H        34.1866   -0.8787   39.0892  H     
80   H        33.8780    0.1318   37.6848  H     
81   H        32.6073    1.7484   39.2661  H     
82   H        34.3851    1.6532   39.4629  H     
83   H        33.3053    0.7938   40.6218  H     
@<TRIPOS>BOND
     1    1    2 2
     2    1    3 am
     3    1   16 1
     4    3    4 1
     5    4    5 1
     6    4    6 1
     7    5   13 1
     8    5   15 1
     9    6    7 1
    10    7    9 2
    11    7   10 1
    12    8    9 1
    13    8   12 2
    14   10   11 2
    15   11   12 1
    16   13   14 1
    17   14   33 1
    18   16   17 1
    19   16   18 2
    20   17   19 2
    21   18   23 1
    22   19   22 1
    23   19   26 1
    24   20   21 1
    25   20   28 1
    26   21   27 1
    27   22   23 2
    28   22   27 1
    29   23   25 1
    30   24   25 2
    31   24   27 1
    32   25   31 1
    33   26   28 1
    34   26   39 1
    35   28   29 2
    36   28   30 2
    37   31   32 1
    38   33   36 1
    39   33   37 1
    40   34   35 1
    41   34   38 1
    42   35   36 1
    43   37   38 1
    44   39   40 1
    45    3   41 1
    46    4   42 1
    47    5   43 1
    48    6   44 1
    49    6   45 1
    50    8   46 1
    51    9   47 1
    52   10   48 1
    53   11   49 1
    54   12   50 1
    55   13   51 1
    56   13   52 1
    57   14   53 1
    58   14   54 1
    59   15   55 1
    60   17   56 1
    61   18   57 1
    62   20   58 1
    63   20   59 1
    64   21   60 1
    65   21   61 1
    66   24   62 1
    67   31   63 1
    68   31   64 1
    69   32   65 1
    70   32   66 1
    71   32   67 1
    72   33   68 1
    73   34   69 1
    74   34   70 1
    75   35   71 1
    76   35   72 1
    77   36   73 1
    78   36   74 1
    79   37   75 1
    80   37   76 1
    81   38   77 1
    82   38   78 1
    83   39   79 1
    84   39   80 1
    85   40   81 1
    86   40   82 1
    87   40   83 1
@<TRIPOS>PROPERTY_DATA
  Total_Score	| 18.0942
  Crash		| -2.1604
  Polar		| 6.9446
  FragIndex	| 1
  FragRMSD	| 0.772

