@<TRIPOS>MOLECULE
BindingDB_29799
 76 79 0 0 0
SMALL
NO_CHARGES


@<TRIPOS>ATOM
1    C        31.2871    0.1982   36.4227  C     
2    C        30.4646   -1.3984   34.7675  C     
3    C        30.7333   -0.0550   35.1462  C     
4    C        30.5226    0.9841   34.2463  C     
5    O        31.4161    1.8099   34.1082  O     
6    N        29.3889    1.0883   33.5658  N     
7    C        29.1105    2.0281   32.5052  C     
8    C        28.4014    3.3158   33.0610  C     
9    C        28.2909    1.3188   31.3784  C     
10   C        28.8192   -0.0184   30.9667  C     
11   C        30.6665   -1.4410   30.1826  C     
12   C        30.1502   -0.1667   30.5093  C     
13   C        28.0061   -1.1745   31.0484  C     
14   C        28.5103   -2.4439   30.7030  C     
15   C        29.8422   -2.5799   30.2734  C     
16   C        29.2340    4.0449   34.1525  C     
17   N        28.5786    5.2983   34.6180  N     
18   O        28.1597    4.2597   32.0107  O     
19   C        31.6015   -0.8383   37.3379  C     
20   C        31.6952   -3.0832   39.9853  C     
21   C        32.3462   -3.6143   38.6830  C     
22   C        31.3399   -2.1710   36.9110  C     
23   C        30.7471   -2.4318   35.6728  C     
24   C        31.1066   -4.3115   36.6850  C     
25   N        32.0848   -0.5561   38.5887  N     
26   S        31.3772   -1.3102   39.9275  S     
27   O        31.8071   -0.6391   41.3073  O     
28   O        29.8097   -1.0667   39.8711  O     
29   C        29.9769   -4.5277   34.4699  C     
30   C        28.4721   -4.2044   34.2347  C     
31   C        33.1399    0.3959   38.8194  C     
32   C        29.3074    6.1258   35.6198  C     
33   C        28.7060    7.5640   35.5594  C     
34   C        29.2335    8.5469   36.6355  C     
35   C        29.2379    5.4997   37.0410  C     
36   C        30.5780   -3.7865   35.5733  C     
37   N        31.5780   -3.3632   37.4894  N     
38   H        31.4274    1.1705   36.7161  H     
39   H        30.0880   -1.6290   33.8349  H     
40   H        28.6972    0.4290   33.7539  H     
41   H        30.0378    2.3551   32.0393  H     
42   H        27.4266    3.0466   33.4921  H     
43   H        27.2510    1.2307   31.7041  H     
44   H        28.2862    1.9601   30.4945  H     
45   H        31.6359   -1.5442   29.8792  H     
46   H        30.7640    0.6468   30.4305  H     
47   H        27.0348   -1.1081   31.3720  H     
48   H        27.9145   -3.2720   30.7857  H     
49   H        30.2112   -3.5048   30.0397  H     
50   H        29.3669    3.3838   35.0102  H     
51   H        30.2214    4.2830   33.7470  H     
52   H        28.4301    5.8759   33.7879  H     
53   H        27.6624    5.0540   35.0016  H     
54   H        27.4173    3.9005   31.4797  H     
55   H        30.7537   -3.6024   40.1666  H     
56   H        32.3566   -3.2917   40.8261  H     
57   H        33.3347   -3.1661   38.5660  H     
58   H        32.5090   -4.6852   38.8191  H     
59   H        31.1395   -5.2829   36.8648  H     
60   H        30.0673   -5.5968   34.6334  H     
61   H        30.5413   -4.2840   33.5583  H     
62   H        27.8773   -4.4976   35.1053  H     
63   H        28.1224   -4.7592   33.3590  H     
64   H        28.3463   -3.1256   34.0518  H     
65   H        33.5861    0.7631   37.8905  H     
66   H        33.9406   -0.0621   39.4036  H     
67   H        32.7486    1.2544   39.3698  H     
68   H        30.3616    6.1997   35.3287  H     
69   H        28.9401    7.9975   34.5797  H     
70   H        27.6148    7.5121   35.6388  H     
71   H        28.8846    8.2570   37.6288  H     
72   H        28.8634    9.5578   36.4313  H     
73   H        30.3275    8.5719   36.6309  H     
74   H        28.2224    5.5412   37.4334  H     
75   H        29.8987    6.0307   37.7232  H     
76   H        29.5544    4.4592   37.0177  H     
@<TRIPOS>BOND
     1    1    3 2
     2    1   19 1
     3    2    3 1
     4    2   23 2
     5    3    4 1
     6    4    5 2
     7    4    6 am
     8    6    7 1
     9    7    8 1
    10    7    9 1
    11    8   16 1
    12    8   18 1
    13    9   10 1
    14   10   12 1
    15   10   13 2
    16   11   12 2
    17   11   15 1
    18   13   14 1
    19   14   15 2
    20   16   17 1
    21   17   32 1
    22   19   22 2
    23   19   25 1
    24   20   21 1
    25   20   26 1
    26   21   37 1
    27   22   23 1
    28   22   37 1
    29   23   36 1
    30   24   36 2
    31   24   37 1
    32   25   26 1
    33   25   31 1
    34   26   27 2
    35   26   28 2
    36   29   30 1
    37   29   36 1
    38   32   33 1
    39   32   35 1
    40   33   34 1
    41    1   38 1
    42    2   39 1
    43    6   40 1
    44    7   41 1
    45    8   42 1
    46    9   43 1
    47    9   44 1
    48   11   45 1
    49   12   46 1
    50   13   47 1
    51   14   48 1
    52   15   49 1
    53   16   50 1
    54   16   51 1
    55   17   52 1
    56   17   53 1
    57   18   54 1
    58   20   55 1
    59   20   56 1
    60   21   57 1
    61   21   58 1
    62   24   59 1
    63   29   60 1
    64   29   61 1
    65   30   62 1
    66   30   63 1
    67   30   64 1
    68   31   65 1
    69   31   66 1
    70   31   67 1
    71   32   68 1
    72   33   69 1
    73   33   70 1
    74   34   71 1
    75   34   72 1
    76   34   73 1
    77   35   74 1
    78   35   75 1
    79   35   76 1
@<TRIPOS>PROPERTY_DATA
  Total_Score	| 17.9155
  Crash		| -0.6771
  Polar		| 6.7634
  FragIndex	| 1
  FragRMSD	| 0.803

