@<TRIPOS>MOLECULE
BindingDB_26508
 80 84 0 0 0
SMALL
NO_CHARGES


@<TRIPOS>ATOM
1    C        31.3134    0.2963   36.4671  C     
2    C        30.4219   -1.2391   34.7925  C     
3    C        30.7401    0.0872   35.1801  C     
4    C        30.5147    1.1368   34.3090  C     
5    O        31.3703    2.0154   34.1993  O     
6    N        29.3786    1.2075   33.6030  N     
7    C        28.9668    2.2854   32.7342  C     
8    C        28.3085    1.7395   31.4087  C     
9    C        28.9943    0.5479   30.8231  C     
10   C        28.9492   -1.7364   29.9098  C     
11   C        28.2672   -0.5932   30.3820  C     
12   C        30.4087    0.5129   30.7657  C     
13   C        31.0796   -0.6332   30.2911  C     
14   C        30.3511   -1.7531   29.8583  C     
15   C        28.0916    3.2541   33.5852  C     
16   C        27.8493    4.6689   32.9885  C     
17   O        26.8958    2.5936   33.9568  O     
18   N        27.9598    5.7506   34.0098  N     
19   C        30.7354   -2.3091   35.6446  C     
20   C        31.1448   -4.2633   36.5978  C     
21   C        30.6007   -3.6799   35.4561  C     
22   C        31.3450   -2.0956   36.8850  C     
23   C        31.6246   -0.7809   37.3405  C     
24   C        31.6818   -3.0817   39.9378  C     
25   C        32.3582   -3.5728   38.6367  C     
26   N        32.1293   -0.5362   38.5946  N     
27   C        33.2138    0.3709   38.8456  C     
28   S        31.4072   -1.2973   39.9221  S     
29   O        29.8450   -0.9986   39.8975  O     
30   O        31.9219   -0.6968   41.3047  O     
31   N        31.6018   -3.3076   37.4363  N     
32   C        30.0955   -4.3859   34.2546  C     
33   C        28.5682   -4.2574   34.0730  C     
34   C        29.3242    6.2452   34.3789  C     
35   C        28.5404    8.1652   35.9401  C     
36   C        29.2630    7.7910   34.6153  C     
37   C        29.9566    5.5632   35.6295  C     
38   C        29.2670    5.9242   36.9681  C     
39   C        29.1848    7.4637   37.1655  C     
40   H        31.4764    1.2552   36.7862  H     
41   H        30.0065   -1.4259   33.8774  H     
42   H        28.7160    0.5226   33.7958  H     
43   H        29.8620    2.8428   32.4103  H     
44   H        27.2539    1.5134   31.5857  H     
45   H        28.3254    2.5313   30.6542  H     
46   H        28.4165   -2.5610   29.6147  H     
47   H        27.2438   -0.6070   30.4187  H     
48   H        30.9506    1.3222   31.0820  H     
49   H        32.1051   -0.6430   30.2732  H     
50   H        30.8445   -2.5855   29.5170  H     
51   H        28.6235    3.3863   34.5032  H     
52   H        28.5456    4.8727   32.1591  H     
53   H        26.8363    4.7253   32.5755  H     
54   H        26.3243    3.2458   34.4518  H     
55   H        27.4410    6.5474   33.6348  H     
56   H        27.4781    5.4469   34.8555  H     
57   H        31.2291   -5.2750   36.7426  H     
58   H        30.7242   -3.5878   40.0750  H     
59   H        32.3211   -3.3268   40.7896  H     
60   H        33.3379   -3.0975   38.5349  H     
61   H        32.5443   -4.6469   38.7461  H     
62   H        34.0136   -0.1491   39.3771  H     
63   H        32.8595    1.2005   39.4609  H     
64   H        33.6389    0.7811   37.9277  H     
65   H        30.5995   -3.9817   33.3735  H     
66   H        30.3460   -5.4483   34.3102  H     
67   H        28.0462   -4.6744   34.9367  H     
68   H        28.2581   -4.8096   33.1821  H     
69   H        28.2785   -3.2110   33.9521  H     
70   H        30.0139    6.0853   33.5402  H     
71   H        28.5984    9.2493   36.0855  H     
72   H        27.4793    7.8860   35.8641  H     
73   H        30.2835    8.1910   34.6400  H     
74   H        28.7479    8.2597   33.7728  H     
75   H        29.9735    4.4850   35.5539  H     
76   H        30.9907    5.8928   35.6872  H     
77   H        28.2604    5.4982   37.0016  H     
78   H        29.8398    5.4962   37.8065  H     
79   H        30.2005    7.8588   37.3153  H     
80   H        28.5966    7.6838   38.0696  H     
@<TRIPOS>BOND
     1    1    3 1
     2    1   23 2
     3    2    3 2
     4    2   19 1
     5    3    4 1
     6    4    5 2
     7    4    6 am
     8    6    7 1
     9    7    8 1
    10    7   15 1
    11    8    9 1
    12    9   11 2
    13    9   12 1
    14   10   11 1
    15   10   14 2
    16   12   13 2
    17   13   14 1
    18   15   16 1
    19   15   17 1
    20   16   18 1
    21   18   34 1
    22   19   21 1
    23   19   22 2
    24   20   21 2
    25   20   31 1
    26   21   32 1
    27   22   23 1
    28   22   31 1
    29   23   26 1
    30   24   25 1
    31   24   28 1
    32   25   31 1
    33   26   27 1
    34   26   28 1
    35   28   29 2
    36   28   30 2
    37   32   33 1
    38   34   36 1
    39   34   37 1
    40   35   36 1
    41   35   39 1
    42   37   38 1
    43   38   39 1
    44    1   40 1
    45    2   41 1
    46    6   42 1
    47    7   43 1
    48    8   44 1
    49    8   45 1
    50   10   46 1
    51   11   47 1
    52   12   48 1
    53   13   49 1
    54   14   50 1
    55   15   51 1
    56   16   52 1
    57   16   53 1
    58   17   54 1
    59   18   55 1
    60   18   56 1
    61   20   57 1
    62   24   58 1
    63   24   59 1
    64   25   60 1
    65   25   61 1
    66   27   62 1
    67   27   63 1
    68   27   64 1
    69   32   65 1
    70   32   66 1
    71   33   67 1
    72   33   68 1
    73   33   69 1
    74   34   70 1
    75   35   71 1
    76   35   72 1
    77   36   73 1
    78   36   74 1
    79   37   75 1
    80   37   76 1
    81   38   77 1
    82   38   78 1
    83   39   79 1
    84   39   80 1
@<TRIPOS>PROPERTY_DATA
  Total_Score	| 17.3019
  Crash		| -3.1990
  Polar		| 7.8492
  FragIndex	| 1
  FragRMSD	| 0.105

