@<TRIPOS>MOLECULE
BindingDB_26510
 71 75 0 0 0
SMALL
NO_CHARGES


@<TRIPOS>ATOM
1    C        31.3671    0.2539   36.3763  C     
2    C        30.4640   -1.2896   34.7220  C     
3    C        30.7899    0.0373   35.0982  C     
4    C        30.5604    1.0888   34.2133  C     
5    O        31.3227    2.0564   34.1906  O     
6    N        29.4397    1.1120   33.5023  N     
7    C        29.0976    2.0538   32.4681  C     
8    C        28.2556    1.3341   31.3634  C     
9    C        28.7901    0.0005   30.9515  C     
10   C        28.5153   -2.4266   30.7128  C     
11   C        27.9896   -1.1647   31.0493  C     
12   C        30.1227   -0.1314   30.4935  C     
13   C        30.6477   -1.3942   30.1639  C     
14   C        29.8480   -2.5453   30.2815  C     
15   C        28.3699    3.3023   33.0661  C     
16   C        29.2003    4.0509   34.1484  C     
17   O        28.0736    4.2437   32.0241  O     
18   N        28.5563    5.3217   34.5365  N     
19   C        30.7500   -2.3526   35.5960  C     
20   C        31.1031   -4.3001   36.6005  C     
21   C        30.5856   -3.7268   35.4415  C     
22   C        31.3387   -2.1286   36.8459  C     
23   C        31.6343   -0.8084   37.2769  C     
24   C        31.5882   -3.0712   39.9155  C     
25   C        32.2880   -3.5968   38.6428  C     
26   N        32.1233   -0.5489   38.5384  N     
27   C        33.2243    0.3452   38.7811  C     
28   S        31.3713   -1.2760   39.8739  S     
29   O        29.8117   -0.9544   39.8638  O     
30   O        31.9044   -0.6907   41.2566  O     
31   N        31.5685   -3.3353   37.4259  N     
32   C        30.0410   -4.4599   34.2757  C     
33   C        28.5156   -4.2854   34.1213  C     
34   C        29.4537    6.2669   35.2302  C     
35   C        28.7520    7.5280   35.7623  C     
36   C        29.2774    6.4691   36.7397  C     
37   H        31.5635    1.2130   36.6762  H     
38   H        30.0689   -1.4883   33.8020  H     
39   H        28.8147    0.3778   33.6388  H     
40   H        30.0124    2.4064   31.9789  H     
41   H        27.2242    1.2393   31.7204  H     
42   H        28.2213    1.9741   30.4773  H     
43   H        27.9342   -3.2639   30.7948  H     
44   H        27.0215   -1.1083   31.3777  H     
45   H        30.7251    0.6915   30.4087  H     
46   H        31.6176   -1.4805   29.8557  H     
47   H        30.2356   -3.4630   30.0463  H     
48   H        27.4257    2.9842   33.5217  H     
49   H        29.3211    3.4099   35.0362  H     
50   H        30.1911    4.2728   33.7346  H     
51   H        27.2811    3.8915   31.5648  H     
52   H        28.2082    5.7778   33.6900  H     
53   H        27.7556    5.1125   35.1325  H     
54   H        31.1587   -5.3065   36.7699  H     
55   H        30.6102   -3.5469   40.0293  H     
56   H        32.1959   -3.3256   40.7841  H     
57   H        33.2800   -3.1469   38.5612  H     
58   H        32.4446   -4.6762   38.7764  H     
59   H        34.0079   -0.1775   39.3381  H     
60   H        32.8892    1.2030   39.3636  H     
61   H        33.6739    0.7152   37.8556  H     
62   H        30.5482   -4.1188   33.3700  H     
63   H        30.2469   -5.5305   34.3813  H     
64   H        28.2557   -3.2334   33.9910  H     
65   H        27.9929   -4.6701   34.9938  H     
66   H        28.1729   -4.8252   33.2386  H     
67   H        30.4501    6.4588   34.8267  H     
68   H        29.3335    8.4479   35.7006  H     
69   H        27.6698    7.5671   35.6288  H     
70   H        28.5168    5.8649   37.2319  H     
71   H        30.1678    6.7547   37.2949  H     
@<TRIPOS>BOND
     1    1    3 1
     2    1   23 2
     3    2    3 2
     4    2   19 1
     5    3    4 1
     6    4    5 2
     7    4    6 am
     8    6    7 1
     9    7    8 1
    10    7   15 1
    11    8    9 1
    12    9   11 2
    13    9   12 1
    14   10   11 1
    15   10   14 2
    16   12   13 2
    17   13   14 1
    18   15   16 1
    19   15   17 1
    20   16   18 1
    21   18   34 1
    22   19   21 1
    23   19   22 2
    24   20   21 2
    25   20   31 1
    26   21   32 1
    27   22   23 1
    28   22   31 1
    29   23   26 1
    30   24   25 1
    31   24   28 1
    32   25   31 1
    33   26   27 1
    34   26   28 1
    35   28   29 2
    36   28   30 2
    37   32   33 1
    38   34   35 1
    39   34   36 1
    40   35   36 1
    41    1   37 1
    42    2   38 1
    43    6   39 1
    44    7   40 1
    45    8   41 1
    46    8   42 1
    47   10   43 1
    48   11   44 1
    49   12   45 1
    50   13   46 1
    51   14   47 1
    52   15   48 1
    53   16   49 1
    54   16   50 1
    55   17   51 1
    56   18   52 1
    57   18   53 1
    58   20   54 1
    59   24   55 1
    60   24   56 1
    61   25   57 1
    62   25   58 1
    63   27   59 1
    64   27   60 1
    65   27   61 1
    66   32   62 1
    67   32   63 1
    68   33   64 1
    69   33   65 1
    70   33   66 1
    71   34   67 1
    72   35   68 1
    73   35   69 1
    74   36   70 1
    75   36   71 1
@<TRIPOS>PROPERTY_DATA
  Total_Score	| 17.1387
  Crash		| -0.5316
  Polar		| 6.7932
  FragIndex	| 1
  FragRMSD	| 0.427

