@<TRIPOS>MOLECULE
BindingDB_26503
 80 84 0 0 0
SMALL
NO_CHARGES


@<TRIPOS>ATOM
1    C        31.3190    0.2330   36.4350  C     
2    C        30.4177   -1.3169   34.7849  C     
3    C        30.7214    0.0115   35.1656  C     
4    C        30.4870    1.0670   34.2846  C     
5    O        31.3599    1.9161   34.1521  O     
6    N        29.3572    1.1331   33.5854  N     
7    C        29.0468    2.0524   32.5174  C     
8    C        28.1812    1.3044   31.4511  C     
9    C        28.7212   -0.0200   31.0133  C     
10   C        30.5862   -1.3788   30.1768  C     
11   C        30.0452   -0.1293   30.5315  C     
12   C        27.9348   -1.1966   31.0857  C     
13   C        28.4724   -2.4472   30.7213  C     
14   C        29.8002   -2.5384   30.2731  C     
15   C        28.3498    3.3420   33.0794  C     
16   C        29.1975    4.1132   34.1331  C     
17   O        28.1172    4.2869   32.0327  O     
18   N        28.5773    5.4110   34.5271  N     
19   C        30.7518   -2.3804   35.6418  C     
20   C        31.1778   -4.3228   36.6139  C     
21   C        30.6230   -3.7552   35.4695  C     
22   C        31.3574   -2.1522   36.8842  C     
23   C        31.6216   -0.8288   37.3263  C     
24   C        31.6447   -3.1052   39.9470  C     
25   C        32.3468   -3.6138   38.6691  C     
26   N        32.1098   -0.5651   38.5863  N     
27   C        33.2049    0.3288   38.8287  C     
28   S        31.3715   -1.3188   39.9153  S     
29   O        29.8094   -1.0449   39.8738  O     
30   O        31.8521   -0.7068   41.2991  O     
31   N        31.6168   -3.3577   37.4524  N     
32   C        30.0880   -4.4926   34.3017  C     
33   C        28.5744   -4.2691   34.0931  C     
34   C        29.5038    6.4631   35.0122  C     
35   C        30.2773    7.1493   33.9338  C     
36   C        29.6233    7.6737   32.7984  C     
37   C        31.6757    7.2952   34.0311  C     
38   C        32.4054    7.9299   33.0081  C     
39   C        31.7375    8.4240   31.8790  C     
40   C        30.3389    8.2920   31.7395  C     
41   C        29.6686    8.7962   30.5088  C     
42   F        30.1686    8.1412   29.4161  F     
43   F        28.3109    8.6243   30.4846  F     
44   F        29.8982   10.1365   30.3603  F     
45   H        31.5006    1.1966   36.7336  H     
46   H        30.0053   -1.5233   33.8721  H     
47   H        28.6974    0.4402   33.7555  H     
48   H        29.9689    2.3637   32.0150  H     
49   H        27.1714    1.1856   31.8560  H     
50   H        28.0962    1.9316   30.5580  H     
51   H        31.5542   -1.4434   29.8574  H     
52   H        30.6382    0.7010   30.4501  H     
53   H        26.9626   -1.1554   31.4092  H     
54   H        27.8983   -3.2907   30.7830  H     
55   H        30.1945   -3.4459   30.0144  H     
56   H        27.3815    3.0668   33.5202  H     
57   H        29.3200    3.5155   35.0453  H     
58   H        30.1940    4.2874   33.7050  H     
59   H        27.2808    4.0314   31.6013  H     
60   H        28.0196    5.7824   33.7444  H     
61   H        27.9199    5.2099   35.2971  H     
62   H        31.2600   -5.3279   36.7776  H     
63   H        30.6856   -3.6082   40.0631  H     
64   H        32.2622   -3.3445   40.8126  H     
65   H        33.3349   -3.1519   38.5884  H     
66   H        32.5128   -4.6886   38.7932  H     
67   H        33.9847   -0.1961   39.3842  H     
68   H        32.8608    1.1827   39.4162  H     
69   H        33.6518    0.7045   37.9055  H     
70   H        30.6300   -4.1794   33.4084  H     
71   H        30.2634   -5.5632   34.4260  H     
72   H        28.0129   -4.6728   34.9362  H     
73   H        28.2512   -4.7769   33.1834  H     
74   H        28.3461   -3.2074   33.9894  H     
75   H        28.9169    7.2176   35.5286  H     
76   H        30.1587    6.0050   35.7538  H     
77   H        28.6118    7.5768   32.7298  H     
78   H        32.1846    6.9490   34.8442  H     
79   H        33.4203    8.0217   33.0863  H     
80   H        32.2865    8.8667   31.1334  H     
@<TRIPOS>BOND
     1    1    3 1
     2    1   23 2
     3    2    3 2
     4    2   19 1
     5    3    4 1
     6    4    5 2
     7    4    6 am
     8    6    7 1
     9    7    8 1
    10    7   15 1
    11    8    9 1
    12    9   11 2
    13    9   12 1
    14   10   11 1
    15   10   14 2
    16   12   13 2
    17   13   14 1
    18   15   16 1
    19   15   17 1
    20   16   18 1
    21   18   34 1
    22   19   21 1
    23   19   22 2
    24   20   21 2
    25   20   31 1
    26   21   32 1
    27   22   23 1
    28   22   31 1
    29   23   26 1
    30   24   25 1
    31   24   28 1
    32   25   31 1
    33   26   27 1
    34   26   28 1
    35   28   29 2
    36   28   30 2
    37   32   33 1
    38   34   35 1
    39   35   36 2
    40   35   37 1
    41   36   40 1
    42   37   38 2
    43   38   39 1
    44   39   40 2
    45   40   41 1
    46   41   42 1
    47   41   43 1
    48   41   44 1
    49    1   45 1
    50    2   46 1
    51    6   47 1
    52    7   48 1
    53    8   49 1
    54    8   50 1
    55   10   51 1
    56   11   52 1
    57   12   53 1
    58   13   54 1
    59   14   55 1
    60   15   56 1
    61   16   57 1
    62   16   58 1
    63   17   59 1
    64   18   60 1
    65   18   61 1
    66   20   62 1
    67   24   63 1
    68   24   64 1
    69   25   65 1
    70   25   66 1
    71   27   67 1
    72   27   68 1
    73   27   69 1
    74   32   70 1
    75   32   71 1
    76   33   72 1
    77   33   73 1
    78   33   74 1
    79   34   75 1
    80   34   76 1
    81   36   77 1
    82   37   78 1
    83   38   79 1
    84   39   80 1
@<TRIPOS>PROPERTY_DATA
  Total_Score	| 17.5528
  Crash		| -0.8239
  Polar		| 6.8821
  FragIndex	| 1
  FragRMSD	| 0.353

