@<TRIPOS>MOLECULE
BindingDB_29803
 70 73 0 0 0
SMALL
NO_CHARGES


@<TRIPOS>ATOM
1    C        31.3490    0.1935   36.4132  C     
2    C        30.4230   -1.3567   34.7657  C     
3    C        30.7684   -0.0327   35.1383  C     
4    C        30.5613    1.0147   34.2485  C     
5    O        31.3294    1.9792   34.2124  O     
6    N        29.4459    1.0570   33.5319  N     
7    C        29.1081    2.0203   32.5138  C     
8    C        28.4038    3.2824   33.1213  C     
9    C        28.2576    1.3178   31.4030  C     
10   C        28.7909   -0.0005   30.9486  C     
11   C        30.6654   -1.3924   30.1764  C     
12   C        30.1288   -0.1289   30.4931  C     
13   C        27.9973   -1.1692   31.0247  C     
14   C        28.5318   -2.4281   30.7010  C     
15   C        29.8750   -2.5494   30.3029  C     
16   C        29.2574    4.0085   34.2010  C     
17   N        28.6644    5.3210   34.5515  N     
18   O        28.1318    4.2259   32.0836  O     
19   C        31.6243   -0.8631   37.3122  C     
20   C        31.6319   -3.1239   39.9407  C     
21   C        32.2810   -3.6617   38.6470  C     
22   C        31.3121   -2.1776   36.8860  C     
23   C        30.7106   -2.4102   35.6501  C     
24   C        31.0710   -4.3117   36.6113  C     
25   N        32.1277   -0.5995   38.5666  N     
26   S        31.4009   -1.3345   39.9106  S     
27   O        29.8463   -0.9912   39.9157  O     
28   O        31.9446   -0.7286   41.2797  O     
29   C        30.0012   -4.4872   34.3658  C     
30   C        28.4883   -4.2465   34.1521  C     
31   C        33.2270    0.2973   38.7908  C     
32   C        29.5873    6.2462   35.2506  C     
33   C        29.0917    7.6968   35.1173  C     
34   C        30.5503   -3.7624   35.5066  C     
35   N        31.5359   -3.3849   37.4511  N     
36   H        31.5583    1.1549   36.7035  H     
37   H        30.0258   -1.5585   33.8441  H     
38   H        28.8026    0.3395   33.6608  H     
39   H        30.0319    2.3523   32.0179  H     
40   H        27.4557    2.9823   33.5735  H     
41   H        27.2383    1.2015   31.7908  H     
42   H        28.1877    1.9691   30.5296  H     
43   H        31.6354   -1.4766   29.8633  H     
44   H        30.7244    0.6952   30.4020  H     
45   H        27.0240   -1.1128   31.3367  H     
46   H        27.9523   -3.2677   30.7704  H     
47   H        30.2708   -3.4628   30.0966  H     
48   H        29.3669    3.3816   35.0990  H     
49   H        30.2501    4.1949   33.7944  H     
50   H        28.3639    5.7750   33.6827  H     
51   H        27.8413    5.1606   35.1399  H     
52   H        27.3266    3.9182   31.6245  H     
53   H        30.6661   -3.6039   40.0955  H     
54   H        32.2729   -3.3723   40.7878  H     
55   H        33.2777   -3.2271   38.5392  H     
56   H        32.4173   -4.7379   38.7709  H     
57   H        31.1240   -5.2917   36.7657  H     
58   H        30.1436   -5.5676   34.4889  H     
59   H        30.5413   -4.1916   33.4632  H     
60   H        27.9289   -4.5879   35.0219  H     
61   H        28.1532   -4.8048   33.2793  H     
62   H        28.2720   -3.1926   33.9853  H     
63   H        33.6658    0.6693   37.8626  H     
64   H        34.0132   -0.2211   39.3439  H     
65   H        32.8866    1.1557   39.3753  H     
66   H        29.6425    5.9710   36.3028  H     
67   H        30.5923    6.1805   34.8221  H     
68   H        29.0545    7.9768   34.0617  H     
69   H        29.7797    8.3636   35.6479  H     
70   H        28.0948    7.7902   35.5581  H     
@<TRIPOS>BOND
     1    1    3 2
     2    1   19 1
     3    2    3 1
     4    2   23 2
     5    3    4 1
     6    4    5 2
     7    4    6 am
     8    6    7 1
     9    7    8 1
    10    7    9 1
    11    8   16 1
    12    8   18 1
    13    9   10 1
    14   10   12 1
    15   10   13 2
    16   11   12 2
    17   11   15 1
    18   13   14 1
    19   14   15 2
    20   16   17 1
    21   17   32 1
    22   19   22 2
    23   19   25 1
    24   20   21 1
    25   20   26 1
    26   21   35 1
    27   22   23 1
    28   22   35 1
    29   23   34 1
    30   24   34 2
    31   24   35 1
    32   25   26 1
    33   25   31 1
    34   26   27 2
    35   26   28 2
    36   29   30 1
    37   29   34 1
    38   32   33 1
    39    1   36 1
    40    2   37 1
    41    6   38 1
    42    7   39 1
    43    8   40 1
    44    9   41 1
    45    9   42 1
    46   11   43 1
    47   12   44 1
    48   13   45 1
    49   14   46 1
    50   15   47 1
    51   16   48 1
    52   16   49 1
    53   17   50 1
    54   17   51 1
    55   18   52 1
    56   20   53 1
    57   20   54 1
    58   21   55 1
    59   21   56 1
    60   24   57 1
    61   29   58 1
    62   29   59 1
    63   30   60 1
    64   30   61 1
    65   30   62 1
    66   31   63 1
    67   31   64 1
    68   31   65 1
    69   32   66 1
    70   32   67 1
    71   33   68 1
    72   33   69 1
    73   33   70 1
@<TRIPOS>PROPERTY_DATA
  Total_Score	| 16.4968
  Crash		| -0.5359
  Polar		| 6.9606
  FragIndex	| 1
  FragRMSD	| 0.328

