@<TRIPOS>MOLECULE
BindingDB_29775
 78 82 0 0 0
SMALL
NO_CHARGES


@<TRIPOS>ATOM
1    C        31.3366    0.1014   36.4350  C     
2    C        30.5148   -1.4574   34.7420  C     
3    C        30.7795   -0.1284   35.1482  C     
4    C        30.4875    0.9286   34.2999  C     
5    O        31.2677    1.8758   34.2443  O     
6    N        29.3536    0.9287   33.6033  N     
7    C        28.9235    1.9667   32.7143  C     
8    C        28.1896    3.0534   33.5749  C     
9    C        28.1158    1.3623   31.5177  C     
10   C        28.6629    0.0554   31.0174  C     
11   C        28.4576   -2.3876   30.7497  C     
12   C        27.8991   -1.1375   31.0871  C     
13   C        29.9933   -0.0319   30.5310  C     
14   C        30.5584   -1.2805   30.2035  C     
15   C        29.7911   -2.4561   30.3103  C     
16   C        28.2321    4.5015   32.9984  C     
17   N        28.1878    5.5222   34.0819  N     
18   O        26.8260    2.6743   33.8188  O     
19   C        31.6461   -0.9669   37.3137  C     
20   C        31.4925   -3.2249   39.8930  C     
21   C        32.2657   -3.7676   38.6687  C     
22   C        31.3871   -2.2865   36.8595  C     
23   C        30.8238   -2.5210   35.6042  C     
24   C        31.1979   -4.4270   36.5490  C     
25   C        30.7192   -3.8719   35.4320  C     
26   N        31.6088   -3.5002   37.4141  N     
27   N        32.1421   -0.7078   38.5669  N     
28   C        33.2423    0.1896   38.7891  C     
29   S        31.3832   -1.4241   39.8994  S     
30   O        29.8486   -1.0067   39.9289  O     
31   O        31.9896   -0.8956   41.2738  O     
32   C        30.2670   -4.5887   34.2440  C     
33   C        28.7555   -4.4243   33.9529  C     
34   C        29.4815    5.8489   34.7594  C     
35   C        29.8235    8.1597   33.7349  C     
36   C        30.4205    6.7397   33.8968  C     
37   C        29.2097    6.5613   36.1144  C     
38   C        28.7018    8.0086   35.8961  C     
39   O        29.5702    8.7613   35.0224  O     
40   H        31.4943    1.0654   36.7475  H     
41   H        30.1249   -1.6523   33.8177  H     
42   H        28.7324    0.1949   33.7679  H     
43   H        29.8102    2.4173   32.2782  H     
44   H        28.6656    3.0927   34.5650  H     
45   H        27.0704    1.2220   31.8134  H     
46   H        28.1207    2.0804   30.6937  H     
47   H        27.9025   -3.2420   30.8493  H     
48   H        26.9398   -1.1275   31.4457  H     
49   H        30.5810    0.8058   30.4791  H     
50   H        31.5398   -1.3361   29.9170  H     
51   H        30.2023   -3.3602   30.0696  H     
52   H        29.1174    4.6588   32.3747  H     
53   H        27.3543    4.6616   32.3557  H     
54   H        27.7874    6.3850   33.6988  H     
55   H        27.5322    5.1810   34.7939  H     
56   H        26.4501    3.3434   34.4480  H     
57   H        30.4835   -3.6379   39.8940  H     
58   H        31.9909   -3.5431   40.8087  H     
59   H        33.2683   -3.3288   38.6406  H     
60   H        32.3966   -4.8480   38.8129  H     
61   H        31.2765   -5.4080   36.6929  H     
62   H        34.0354   -0.3184   39.3425  H     
63   H        32.9014    1.0527   39.3668  H     
64   H        33.6775    0.5544   37.8546  H     
65   H        30.8305   -4.2355   33.3765  H     
66   H        30.4758   -5.6576   34.3475  H     
67   H        28.1576   -4.7770   34.8009  H     
68   H        28.4912   -5.0221   33.0734  H     
69   H        28.5089   -3.3757   33.7501  H     
70   H        30.0218    4.9267   34.9940  H     
71   H        30.5400    8.7844   33.1987  H     
72   H        28.9045    8.1276   33.1443  H     
73   H        31.3945    6.8190   34.3931  H     
74   H        30.5945    6.2915   32.9158  H     
75   H        28.4789    5.9962   36.6997  H     
76   H        30.1398    6.5962   36.6945  H     
77   H        27.6857    7.9963   35.4957  H     
78   H        28.6730    8.5195   36.8597  H     
@<TRIPOS>BOND
     1    1    3 2
     2    1   19 1
     3    2    3 1
     4    2   23 2
     5    3    4 1
     6    4    5 2
     7    4    6 am
     8    6    7 1
     9    7    8 1
    10    7    9 1
    11    8   16 1
    12    8   18 1
    13    9   10 1
    14   10   12 1
    15   10   13 2
    16   11   12 2
    17   11   15 1
    18   13   14 1
    19   14   15 2
    20   16   17 1
    21   17   34 1
    22   19   22 2
    23   19   27 1
    24   20   21 1
    25   20   29 1
    26   21   26 1
    27   22   23 1
    28   22   26 1
    29   23   25 1
    30   24   25 2
    31   24   26 1
    32   25   32 1
    33   27   28 1
    34   27   29 1
    35   29   30 2
    36   29   31 2
    37   32   33 1
    38   34   36 1
    39   34   37 1
    40   35   36 1
    41   35   39 1
    42   37   38 1
    43   38   39 1
    44    1   40 1
    45    2   41 1
    46    6   42 1
    47    7   43 1
    48    8   44 1
    49    9   45 1
    50    9   46 1
    51   11   47 1
    52   12   48 1
    53   13   49 1
    54   14   50 1
    55   15   51 1
    56   16   52 1
    57   16   53 1
    58   17   54 1
    59   17   55 1
    60   18   56 1
    61   20   57 1
    62   20   58 1
    63   21   59 1
    64   21   60 1
    65   24   61 1
    66   28   62 1
    67   28   63 1
    68   28   64 1
    69   32   65 1
    70   32   66 1
    71   33   67 1
    72   33   68 1
    73   33   69 1
    74   34   70 1
    75   35   71 1
    76   35   72 1
    77   36   73 1
    78   36   74 1
    79   37   75 1
    80   37   76 1
    81   38   77 1
    82   38   78 1
@<TRIPOS>PROPERTY_DATA
  Total_Score	| 18.7236
  Crash		| -1.5599
  Polar		| 8.6910
  FragIndex	| 1
  FragRMSD	| 0.605

