@<TRIPOS>MOLECULE
BindingDB_26504
 77 81 0 0 0
SMALL
NO_CHARGES


@<TRIPOS>ATOM
1    C        31.2907    0.2556   36.3955  C     
2    C        30.4127   -1.3061   34.7394  C     
3    C        30.7040    0.0215   35.1252  C     
4    C        30.4865    1.0679   34.2412  C     
5    O        31.3718    1.9037   34.1073  O     
6    N        29.3629    1.1263   33.5256  N     
7    C        29.0576    2.0250   32.4444  C     
8    C        28.1875    1.2651   31.3894  C     
9    C        28.7435   -0.0595   30.9723  C     
10   C        30.6235   -1.4301   30.1910  C     
11   C        30.0809   -0.1735   30.5212  C     
12   C        27.9585   -1.2387   31.0435  C     
13   C        28.5009   -2.4908   30.7019  C     
14   C        29.8351   -2.5900   30.2880  C     
15   C        28.3644    3.3350   32.9582  C     
16   C        29.1505    4.0713   34.0772  C     
17   O        28.2039    4.2648   31.8859  O     
18   N        28.5129    5.3655   34.4551  N     
19   C        30.7506   -2.3651   35.5982  C     
20   C        31.2106   -4.3076   36.5642  C     
21   C        30.6382   -3.7402   35.4260  C     
22   C        31.3504   -2.1313   36.8410  C     
23   C        31.6010   -0.8065   37.2857  C     
24   C        31.6413   -3.0845   39.8897  C     
25   C        32.3715   -3.5695   38.6159  C     
26   N        32.0829   -0.5402   38.5471  N     
27   C        33.1554    0.3769   38.8015  C     
28   S        31.3458   -1.3038   39.8681  S     
29   O        29.7783   -1.0189   39.8221  O     
30   O        31.8365   -0.6935   41.2576  O     
31   N        31.6312   -3.3339   37.4023  N     
32   C        30.0943   -4.4705   34.2555  C     
33   C        28.5626   -4.3161   34.1010  C     
34   C        29.4618    6.4662   34.7880  C     
35   C        30.1927    7.0988   33.6465  C     
36   C        29.5514    7.4630   32.4365  C     
37   C        31.5659    7.4270   33.8092  C     
38   C        32.2704    8.0985   32.7862  C     
39   C        31.6107    8.4634   31.5907  C     
40   C        30.2533    8.1354   31.4199  C     
41   H        31.4601    1.2199   36.6975  H     
42   H        30.0244   -1.5041   33.8157  H     
43   H        28.7162    0.4204   33.6851  H     
44   H        29.9880    2.3215   31.9407  H     
45   H        27.1863    1.1459   31.8169  H     
46   H        28.0824    1.8818   30.4932  H     
47   H        31.5947   -1.5034   29.8941  H     
48   H        30.6763    0.6537   30.4464  H     
49   H        26.9872   -1.1936   31.3601  H     
50   H        27.9258   -3.3293   30.7739  H     
51   H        30.2363   -3.4989   30.0457  H     
52   H        27.3756    3.0847   33.3507  H     
53   H        29.1692    3.4580   34.9926  H     
54   H        30.1866    4.2050   33.7308  H     
55   H        27.3862    3.9913   31.4260  H     
56   H        27.9166    5.6707   33.6904  H     
57   H        27.9108    5.1992   35.2730  H     
58   H        31.3148   -5.3133   36.7204  H     
59   H        30.6890   -3.6087   39.9993  H     
60   H        32.2558   -3.3242   40.7648  H     
61   H        33.3401   -3.0652   38.5436  H     
62   H        32.5858   -4.6342   38.7396  H     
63   H        33.9500   -0.1337   39.3456  H     
64   H        32.7939    1.2098   39.4059  H     
65   H        33.5901    0.7831   37.8864  H     
66   H        30.5862   -4.1077   33.3495  H     
67   H        30.3120   -5.5399   34.3443  H     
68   H        28.0477   -4.6980   34.9869  H     
69   H        28.2218   -4.8715   33.2253  H     
70   H        28.2843   -3.2720   33.9644  H     
71   H        28.9012    7.2626   35.2851  H     
72   H        30.1979    6.1169   35.5361  H     
73   H        28.5578    7.2616   32.2864  H     
74   H        32.0665    7.1894   34.6741  H     
75   H        33.2525    8.3486   32.9143  H     
76   H        32.1133    8.9788   30.8608  H     
77   H        29.7564    8.4167   30.5600  H     
@<TRIPOS>BOND
     1    1    3 1
     2    1   23 2
     3    2    3 2
     4    2   19 1
     5    3    4 1
     6    4    5 2
     7    4    6 am
     8    6    7 1
     9    7    8 1
    10    7   15 1
    11    8    9 1
    12    9   11 2
    13    9   12 1
    14   10   11 1
    15   10   14 2
    16   12   13 2
    17   13   14 1
    18   15   16 1
    19   15   17 1
    20   16   18 1
    21   18   34 1
    22   19   21 1
    23   19   22 2
    24   20   21 2
    25   20   31 1
    26   21   32 1
    27   22   23 1
    28   22   31 1
    29   23   26 1
    30   24   25 1
    31   24   28 1
    32   25   31 1
    33   26   27 1
    34   26   28 1
    35   28   29 2
    36   28   30 2
    37   32   33 1
    38   34   35 1
    39   35   36 2
    40   35   37 1
    41   36   40 1
    42   37   38 2
    43   38   39 1
    44   39   40 2
    45    1   41 1
    46    2   42 1
    47    6   43 1
    48    7   44 1
    49    8   45 1
    50    8   46 1
    51   10   47 1
    52   11   48 1
    53   12   49 1
    54   13   50 1
    55   14   51 1
    56   15   52 1
    57   16   53 1
    58   16   54 1
    59   17   55 1
    60   18   56 1
    61   18   57 1
    62   20   58 1
    63   24   59 1
    64   24   60 1
    65   25   61 1
    66   25   62 1
    67   27   63 1
    68   27   64 1
    69   27   65 1
    70   32   66 1
    71   32   67 1
    72   33   68 1
    73   33   69 1
    74   33   70 1
    75   34   71 1
    76   34   72 1
    77   36   73 1
    78   37   74 1
    79   38   75 1
    80   39   76 1
    81   40   77 1
@<TRIPOS>PROPERTY_DATA
  Total_Score	| 16.6541
  Crash		| -0.7250
  Polar		| 6.7601
  FragIndex	| 1
  FragRMSD	| 0.389

