@<TRIPOS>MOLECULE
BindingDB_29810
 70 73 0 0 0
SMALL
NO_CHARGES


@<TRIPOS>ATOM
1    C        31.2803    0.2219   36.4328  C     
2    C        30.3855   -1.3178   34.7654  C     
3    C        30.6871    0.0097   35.1590  C     
4    C        30.4575    1.0708   34.2972  C     
5    O        31.2810    1.9802   34.2403  O     
6    N        29.3542    1.1195   33.5514  N     
7    C        29.0887    2.0526   32.4801  C     
8    C        28.3705    3.3425   33.0107  C     
9    C        28.2704    1.3186   31.3668  C     
10   C        28.8107   -0.0178   30.9704  C     
11   C        28.5466   -2.4459   30.7280  C     
12   C        28.0193   -1.1900   31.0735  C     
13   C        30.1357   -0.1404   30.4804  C     
14   C        30.6652   -1.4021   30.1443  C     
15   C        29.8736   -2.5557   30.2766  C     
16   C        29.1935    4.1408   34.0587  C     
17   N        28.4959    5.4086   34.4016  N     
18   O        28.1174    4.2484   31.9344  O     
19   C        31.5837   -0.8484   37.3214  C     
20   C        31.5897   -3.1553   39.8949  C     
21   C        32.2827   -3.6612   38.6098  C     
22   C        31.3000   -2.1616   36.8662  C     
23   C        30.7050   -2.3872   35.6198  C     
24   C        31.1213   -4.3023   36.5444  C     
25   N        32.0991   -0.5965   38.5659  N     
26   S        31.3937   -1.3604   39.9068  S     
27   O        29.8472   -0.9989   39.9460  O     
28   O        31.9578   -0.8029   41.2833  O     
29   C        30.1314   -4.4498   34.2604  C     
30   C        28.6161   -4.2865   34.0164  C     
31   C        33.1895    0.3095   38.7965  C     
32   C        30.6019   -3.7399   35.4486  C     
33   N        31.5505   -3.3790   37.4066  N     
34   C        29.3526    6.4614   34.9904  C     
35   C        28.5149    7.5867   35.6497  C     
36   F        27.1968    7.5371   35.2729  F     
37   H        31.4603    1.1850   36.7356  H     
38   H        29.9821   -1.5094   33.8440  H     
39   H        28.6896    0.4263   33.6981  H     
40   H        30.0279    2.3717   32.0150  H     
41   H        27.4104    3.0638   33.4537  H     
42   H        27.2372    1.2225   31.7095  H     
43   H        28.2514    1.9415   30.4685  H     
44   H        27.9632   -3.2826   30.8046  H     
45   H        27.0536   -1.1313   31.4055  H     
46   H        30.7243    0.6899   30.3622  H     
47   H        31.6228   -1.4791   29.8057  H     
48   H        30.2588   -3.4691   30.0366  H     
49   H        29.3136    3.5609   34.9703  H     
50   H        30.1788    4.3519   33.6428  H     
51   H        28.0744    5.7946   33.5537  H     
52   H        27.7412    5.1922   35.0537  H     
53   H        27.3090    3.9241   31.4846  H     
54   H        30.6087   -3.6231   39.9945  H     
55   H        32.1860   -3.4478   40.7619  H     
56   H        33.2742   -3.2105   38.5319  H     
57   H        32.4359   -4.7389   38.7216  H     
58   H        31.2062   -5.2835   36.6776  H     
59   H        30.3466   -5.5183   34.3469  H     
60   H        30.6762   -4.0792   33.3884  H     
61   H        28.0465   -4.6909   34.8589  H     
62   H        28.3329   -4.8309   33.1117  H     
63   H        28.3484   -3.2345   33.8820  H     
64   H        33.6270    0.6815   37.8680  H     
65   H        33.9814   -0.1969   39.3478  H     
66   H        32.8473    1.1664   39.3778  H     
67   H        30.0206    6.0428   35.7478  H     
68   H        29.9629    6.9076   34.1957  H     
69   H        28.5660    7.4933   36.7372  H     
70   H        28.9201    8.5640   35.3710  H     
@<TRIPOS>BOND
     1    1    3 2
     2    1   19 1
     3    2    3 1
     4    2   23 2
     5    3    4 1
     6    4    5 2
     7    4    6 am
     8    6    7 1
     9    7    8 1
    10    7    9 1
    11    8   16 1
    12    8   18 1
    13    9   10 1
    14   10   12 1
    15   10   13 2
    16   11   12 2
    17   11   15 1
    18   13   14 1
    19   14   15 2
    20   16   17 1
    21   17   34 1
    22   19   22 2
    23   19   25 1
    24   20   21 1
    25   20   26 1
    26   21   33 1
    27   22   23 1
    28   22   33 1
    29   23   32 1
    30   24   32 2
    31   24   33 1
    32   25   26 1
    33   25   31 1
    34   26   27 2
    35   26   28 2
    36   29   30 1
    37   29   32 1
    38   34   35 1
    39   35   36 1
    40    1   37 1
    41    2   38 1
    42    6   39 1
    43    7   40 1
    44    8   41 1
    45    9   42 1
    46    9   43 1
    47   11   44 1
    48   12   45 1
    49   13   46 1
    50   14   47 1
    51   15   48 1
    52   16   49 1
    53   16   50 1
    54   17   51 1
    55   17   52 1
    56   18   53 1
    57   20   54 1
    58   20   55 1
    59   21   56 1
    60   21   57 1
    61   24   58 1
    62   29   59 1
    63   29   60 1
    64   30   61 1
    65   30   62 1
    66   30   63 1
    67   31   64 1
    68   31   65 1
    69   31   66 1
    70   34   67 1
    71   34   68 1
    72   35   69 1
    73   35   70 1
@<TRIPOS>PROPERTY_DATA
  Total_Score	| 16.6712
  Crash		| -0.6841
  Polar		| 6.9304
  FragIndex	| 1
  FragRMSD	| 0.430

