@<TRIPOS>MOLECULE
BindingDB_29793
 74 78 0 0 0
SMALL
NO_CHARGES


@<TRIPOS>ATOM
1    C        31.3729    0.0978   36.3745  C     
2    C        30.3968   -1.4154   34.7311  C     
3    C        30.7451   -0.0955   35.1136  C     
4    C        30.5186    0.9728   34.2488  C     
5    O        31.4056    1.8026   34.0901  O     
6    N        29.3591    1.0905   33.6078  N     
7    C        29.0534    2.0201   32.5499  C     
8    C        28.3662    3.3132   33.1117  C     
9    C        28.1878    1.2932   31.4679  C     
10   C        28.7280   -0.0287   31.0268  C     
11   C        30.5783   -1.3915   30.1591  C     
12   C        30.0495   -0.1397   30.5288  C     
13   C        27.9393   -1.2051   31.1115  C     
14   C        28.4647   -2.4525   30.7277  C     
15   C        29.7861   -2.5457   30.2512  C     
16   C        29.2119    4.0527   34.1857  C     
17   N        28.6010    5.3495   34.5516  N     
18   O        28.1344    4.2444   32.0469  O     
19   C        29.4711    6.2321   35.3502  C     
20   C        28.7928    7.5532   35.7576  C     
21   C        29.1375    6.5092   36.8267  C     
22   C        31.6411   -0.9798   37.2587  C     
23   C        31.6044   -3.2732   39.8618  C     
24   C        32.2551   -3.8147   38.5718  C     
25   C        31.3126   -2.2878   36.8187  C     
26   C        30.6912   -2.4895   35.5853  C     
27   C        31.0464   -4.4150   36.5167  C     
28   C        30.5263   -3.8420   35.4259  C     
29   N        31.5250   -3.5073   37.3665  N     
30   N        32.1953   -0.7504   38.4955  N     
31   S        31.4624   -1.4751   39.8384  S     
32   O        29.9179   -1.1124   39.8258  O     
33   O        31.9726   -0.8835   41.2276  O     
34   C        29.9431   -4.5355   34.2859  C     
35   C        28.4258   -4.2742   34.1313  C     
36   C        33.4688   -0.0795   38.6184  C     
37   C        33.4433    1.1212   39.5945  C     
38   H        31.6296    1.0455   36.6696  H     
39   H        29.9720   -1.6012   33.8188  H     
40   H        28.6705    0.4410   33.8209  H     
41   H        29.9713    2.3357   32.0524  H     
42   H        27.3939    3.0475   33.5482  H     
43   H        27.1707    1.1760   31.8600  H     
44   H        28.1120    1.9263   30.5783  H     
45   H        31.5456   -1.4603   29.8274  H     
46   H        30.6448    0.6877   30.4479  H     
47   H        26.9787   -1.1622   31.4587  H     
48   H        27.8902   -3.2952   30.8000  H     
49   H        30.1675   -3.4545   29.9721  H     
50   H        29.2811    3.4373   35.0880  H     
51   H        30.2152    4.2234   33.7953  H     
52   H        28.3504    5.8448   33.6939  H     
53   H        27.7438    5.1615   35.0788  H     
54   H        27.3305    3.9385   31.5873  H     
55   H        30.5095    6.3819   35.0460  H     
56   H        29.4237    8.4430   35.7451  H     
57   H        27.7286    7.6524   35.5247  H     
58   H        28.2922    5.9583   37.2464  H     
59   H        29.9938    6.7345   37.4643  H     
60   H        30.6104   -3.7072   39.9821  H     
61   H        32.2005   -3.5685   40.7283  H     
62   H        33.2667   -3.4075   38.4899  H     
63   H        32.3610   -4.8954   38.6893  H     
64   H        31.0793   -5.3967   36.6627  H     
65   H        30.4554   -4.2254   33.3715  H     
66   H        30.0843   -5.6166   34.3835  H     
67   H        27.8902   -4.5997   35.0267  H     
68   H        28.0356   -4.8336   33.2765  H     
69   H        28.2255   -3.2143   33.9655  H     
70   H        34.2168   -0.7960   38.9736  H     
71   H        33.8243    0.2806   37.6482  H     
72   H        32.6160    1.7943   39.3391  H     
73   H        34.3871    1.6787   39.5232  H     
74   H        33.3107    0.7736   40.6310  H     
@<TRIPOS>BOND
     1    1    3 2
     2    1   22 1
     3    2    3 1
     4    2   26 2
     5    3    4 1
     6    4    5 2
     7    4    6 am
     8    6    7 1
     9    7    8 1
    10    7    9 1
    11    8   16 1
    12    8   18 1
    13    9   10 1
    14   10   12 1
    15   10   13 2
    16   11   12 2
    17   11   15 1
    18   13   14 1
    19   14   15 2
    20   16   17 1
    21   17   19 1
    22   19   20 1
    23   19   21 1
    24   20   21 1
    25   22   25 2
    26   22   30 1
    27   23   24 1
    28   23   31 1
    29   24   29 1
    30   25   26 1
    31   25   29 1
    32   26   28 1
    33   27   28 2
    34   27   29 1
    35   28   34 1
    36   30   31 1
    37   30   36 1
    38   31   32 2
    39   31   33 2
    40   34   35 1
    41   36   37 1
    42    1   38 1
    43    2   39 1
    44    6   40 1
    45    7   41 1
    46    8   42 1
    47    9   43 1
    48    9   44 1
    49   11   45 1
    50   12   46 1
    51   13   47 1
    52   14   48 1
    53   15   49 1
    54   16   50 1
    55   16   51 1
    56   17   52 1
    57   17   53 1
    58   18   54 1
    59   19   55 1
    60   20   56 1
    61   20   57 1
    62   21   58 1
    63   21   59 1
    64   23   60 1
    65   23   61 1
    66   24   62 1
    67   24   63 1
    68   27   64 1
    69   34   65 1
    70   34   66 1
    71   35   67 1
    72   35   68 1
    73   35   69 1
    74   36   70 1
    75   36   71 1
    76   37   72 1
    77   37   73 1
    78   37   74 1
@<TRIPOS>PROPERTY_DATA
  Total_Score	| 17.4340
  Crash		| -1.1148
  Polar		| 6.9871
  FragIndex	| 1
  FragRMSD	| 0.443

