@<TRIPOS>MOLECULE
BindingDB_26512
 67 70 0 0 0
SMALL
NO_CHARGES


@<TRIPOS>ATOM
1    C        31.2879    0.1468   36.4522  C     
2    C        30.4145   -1.3849   34.7675  C     
3    C        30.6962   -0.0596   35.1761  C     
4    C        30.4686    0.9992   34.2996  C     
5    O        31.3376    1.8585   34.2025  O     
6    N        29.3657    1.0611   33.5599  N     
7    C        29.0964    1.9695   32.4698  C     
8    C        28.2329    1.2416   31.3929  C     
9    C        28.7552   -0.0922   30.9851  C     
10   C        28.4790   -2.5246   30.7910  C     
11   C        27.9655   -1.2579   31.1321  C     
12   C        30.0621   -0.2274   30.4590  C     
13   C        30.5751   -1.4929   30.1140  C     
14   C        29.7876   -2.6451   30.2877  C     
15   C        28.4271    3.2923   32.9712  C     
16   C        29.2444    4.0326   34.0620  C     
17   O        28.2509    4.2078   31.8899  O     
18   N        28.5524    5.2459   34.5550  N     
19   C        30.7349   -2.4493   35.6233  C     
20   C        31.1548   -4.4142   36.5610  C     
21   C        30.6588   -3.8224   35.4026  C     
22   C        31.3226   -2.2433   36.8770  C     
23   C        31.5982   -0.9267   37.3295  C     
24   C        31.5136   -3.2101   39.9300  C     
25   C        32.2337   -3.7495   38.6732  C     
26   N        32.1242   -0.6847   38.5801  N     
27   C        33.2495    0.1782   38.7887  C     
28   S        31.3922   -1.4108   39.9235  S     
29   O        29.8586   -0.9923   39.9854  O     
30   O        32.0136   -0.8733   41.2875  O     
31   N        31.5668   -3.4605   37.4296  N     
32   C        30.2146   -4.5194   34.1733  C     
33   C        28.6960   -4.3423   33.9266  C     
34   C        29.3049    6.0011   35.5771  C     
35   H        31.4838    1.1009   36.7614  H     
36   H        30.0027   -1.5727   33.8488  H     
37   H        28.7077    0.3629   33.7135  H     
38   H        30.0392    2.2472   31.9905  H     
39   H        27.2125    1.1471   31.7782  H     
40   H        28.1758    1.8640   30.4983  H     
41   H        27.9000   -3.3663   30.9035  H     
42   H        27.0153   -1.2040   31.5078  H     
43   H        30.6505    0.5995   30.3159  H     
44   H        31.5295   -1.5781   29.7543  H     
45   H        30.1658   -3.5647   30.0436  H     
46   H        27.4423    3.0686   33.3822  H     
47   H        29.4075    3.3634   34.9075  H     
48   H        30.2186    4.3150   33.6560  H     
49   H        27.4420    3.9288   31.4185  H     
50   H        28.3730    5.8653   33.7593  H     
51   H        27.6612    4.9631   34.9662  H     
52   H        31.2498   -5.4237   36.6943  H     
53   H        30.5081   -3.6330   39.9883  H     
54   H        32.0666   -3.5176   40.8226  H     
55   H        33.2410   -3.3394   38.6257  H     
56   H        32.3459   -4.8287   38.8067  H     
57   H        34.0206   -0.3560   39.3419  H     
58   H        32.9377    1.0496   39.3651  H     
59   H        33.6952    0.5264   37.8534  H     
60   H        30.7611   -4.1301   33.3044  H     
61   H        30.4333   -5.5952   34.2615  H     
62   H        28.1264   -4.8149   34.7362  H     
63   H        28.4236   -4.8188   32.9756  H     
64   H        28.4305   -3.2797   33.8728  H     
65   H        29.4625    5.3881   36.4692  H     
66   H        28.7284    6.8807   35.8608  H     
67   H        30.2753    6.3258   35.1896  H     
@<TRIPOS>BOND
     1    1    3 1
     2    1   23 2
     3    2    3 2
     4    2   19 1
     5    3    4 1
     6    4    5 2
     7    4    6 am
     8    6    7 1
     9    7    8 1
    10    7   15 1
    11    8    9 1
    12    9   11 2
    13    9   12 1
    14   10   11 1
    15   10   14 2
    16   12   13 2
    17   13   14 1
    18   15   16 1
    19   15   17 1
    20   16   18 1
    21   18   34 1
    22   19   21 1
    23   19   22 2
    24   20   21 2
    25   20   31 1
    26   21   32 1
    27   22   23 1
    28   22   31 1
    29   23   26 1
    30   24   25 1
    31   24   28 1
    32   25   31 1
    33   26   27 1
    34   26   28 1
    35   28   29 2
    36   28   30 2
    37   32   33 1
    38    1   35 1
    39    2   36 1
    40    6   37 1
    41    7   38 1
    42    8   39 1
    43    8   40 1
    44   10   41 1
    45   11   42 1
    46   12   43 1
    47   13   44 1
    48   14   45 1
    49   15   46 1
    50   16   47 1
    51   16   48 1
    52   17   49 1
    53   18   50 1
    54   18   51 1
    55   20   52 1
    56   24   53 1
    57   24   54 1
    58   25   55 1
    59   25   56 1
    60   27   57 1
    61   27   58 1
    62   27   59 1
    63   32   60 1
    64   32   61 1
    65   33   62 1
    66   33   63 1
    67   33   64 1
    68   34   65 1
    69   34   66 1
    70   34   67 1
@<TRIPOS>PROPERTY_DATA
  Total_Score	| 15.9829
  Crash		| -0.5915
  Polar		| 6.9331
  FragIndex	| 1
  FragRMSD	| 0.180

