@<TRIPOS>MOLECULE
BindingDB_29782
 81 85 0 0 0
SMALL
NO_CHARGES


@<TRIPOS>ATOM
1    C        30.5019    1.0750   34.2869  C     
2    O        31.3780    1.9236   34.1616  O     
3    N        29.3709    1.1727   33.5956  N     
4    C        29.0958    2.0991   32.5226  C     
5    C        28.3990    3.4016   33.0502  C     
6    C        28.2442    1.3646   31.4315  C     
7    C        28.7743    0.0336   31.0070  C     
8    C        30.6215   -1.3374   30.1418  C     
9    C        30.0946   -0.0823   30.5056  C     
10   C        27.9803   -1.1365   31.0797  C     
11   C        28.5033   -2.3903   30.7053  C     
12   C        29.8287   -2.4934   30.2453  C     
13   C        29.2431    4.2373   34.0555  C     
14   O        28.1078    4.2731   31.9493  O     
15   C        30.7264    0.0117   35.1559  C     
16   C        31.3322    0.2185   36.4225  C     
17   C        30.4159   -1.3106   34.7594  C     
18   C        31.6301   -0.8546   37.2998  C     
19   C        31.5979   -3.1242   39.9152  C     
20   C        32.3059   -3.6466   38.6457  C     
21   C        31.3376   -2.1692   36.8575  C     
22   C        30.7206   -2.3823   35.6180  C     
23   C        31.1240   -4.3345   36.5875  C     
24   C        30.5721   -3.7552   35.4474  C     
25   N        32.1589   -0.6103   38.5447  N     
26   N        31.5859   -3.3783   37.4260  N     
27   S        31.4164   -1.3269   39.8851  S     
28   O        31.9788   -0.7371   41.2566  O     
29   O        29.8716   -0.9562   39.8829  O     
30   C        33.2944    0.2447   38.7572  C     
31   C        30.0526   -4.4762   34.2594  C     
32   C        28.5352   -4.3021   34.0386  C     
33   N        28.5286    5.4845   34.4371  N     
34   C        29.3462    6.5598   35.0506  C     
35   C        30.1960    7.2554   34.0461  C     
36   C        29.6005    7.8501   32.9111  C     
37   C        31.6038    7.2925   34.1740  C     
38   C        32.3979    7.8953   33.1820  C     
39   C        31.7956    8.4611   32.0440  C     
40   C        30.3939    8.4327   31.9007  C     
41   O        29.8001    8.9950   30.8034  O     
42   C        29.6211    8.0631   29.7169  C     
43   H        28.6879    0.5041   33.7720  H     
44   H        30.0317    2.3966   32.0421  H     
45   H        27.4497    3.1351   33.5306  H     
46   H        27.2203    1.2544   31.8084  H     
47   H        28.1864    1.9892   30.5394  H     
48   H        31.5853   -1.4106   29.7974  H     
49   H        30.6869    0.7455   30.4128  H     
50   H        27.0183   -1.0901   31.4284  H     
51   H        27.9224   -3.2280   30.7676  H     
52   H        30.2100   -3.4044   29.9839  H     
53   H        29.4137    3.6601   34.9652  H     
54   H        30.2112    4.4695   33.6018  H     
55   H        27.3252    3.8906   31.4980  H     
56   H        31.5314    1.1757   36.7272  H     
57   H        30.0213   -1.5044   33.8366  H     
58   H        30.6094   -3.5783   40.0006  H     
59   H        32.1798   -3.3983   40.7985  H     
60   H        33.2987   -3.1989   38.5695  H     
61   H        32.4566   -4.7241   38.7725  H     
62   H        31.1961   -5.3487   36.7433  H     
63   H        33.7285    0.6076   37.8221  H     
64   H        34.0736   -0.3022   39.2945  H     
65   H        32.9913    1.1083   39.3529  H     
66   H        30.5856   -4.1165   33.3781  H     
67   H        30.2630   -5.5454   34.3547  H     
68   H        27.9758   -4.6868   34.8919  H     
69   H        28.2358   -4.8641   33.1526  H     
70   H        28.2749   -3.2527   33.8867  H     
71   H        28.0804    5.8739   33.6069  H     
72   H        27.7871    5.2302   35.0997  H     
73   H        28.6638    7.2909   35.4802  H     
74   H        29.9361    6.1476   35.8768  H     
75   H        28.5840    7.8562   32.8081  H     
76   H        32.0647    6.8778   34.9823  H     
77   H        33.4148    7.9141   33.2771  H     
78   H        32.3730    8.8888   31.3180  H     
79   H        30.5739    7.6670   29.3598  H     
80   H        29.1460    8.5972   28.8890  H     
81   H        28.9687    7.2361   30.0102  H     
@<TRIPOS>BOND
     1    1    2 2
     2    1    3 am
     3    1   15 1
     4    3    4 1
     5    4    5 1
     6    4    6 1
     7    5   13 1
     8    5   14 1
     9    6    7 1
    10    7    9 2
    11    7   10 1
    12    8    9 1
    13    8   12 2
    14   10   11 2
    15   11   12 1
    16   13   33 1
    17   15   16 1
    18   15   17 2
    19   16   18 2
    20   17   22 1
    21   18   21 1
    22   18   25 1
    23   19   20 1
    24   19   27 1
    25   20   26 1
    26   21   22 2
    27   21   26 1
    28   22   24 1
    29   23   24 2
    30   23   26 1
    31   24   31 1
    32   25   27 1
    33   25   30 1
    34   27   28 2
    35   27   29 2
    36   31   32 1
    37   33   34 1
    38   34   35 1
    39   35   36 2
    40   35   37 1
    41   36   40 1
    42   37   38 2
    43   38   39 1
    44   39   40 2
    45   40   41 1
    46   41   42 1
    47    3   43 1
    48    4   44 1
    49    5   45 1
    50    6   46 1
    51    6   47 1
    52    8   48 1
    53    9   49 1
    54   10   50 1
    55   11   51 1
    56   12   52 1
    57   13   53 1
    58   13   54 1
    59   14   55 1
    60   16   56 1
    61   17   57 1
    62   19   58 1
    63   19   59 1
    64   20   60 1
    65   20   61 1
    66   23   62 1
    67   30   63 1
    68   30   64 1
    69   30   65 1
    70   31   66 1
    71   31   67 1
    72   32   68 1
    73   32   69 1
    74   32   70 1
    75   33   71 1
    76   33   72 1
    77   34   73 1
    78   34   74 1
    79   36   75 1
    80   37   76 1
    81   38   77 1
    82   39   78 1
    83   42   79 1
    84   42   80 1
    85   42   81 1
@<TRIPOS>PROPERTY_DATA
  Total_Score	| 17.7154
  Crash		| -0.9953
  Polar		| 6.8571
  FragIndex	| 1
  FragRMSD	| 0.113

