@<TRIPOS>MOLECULE
BindingDB_26506
 91 94 0 0 0
SMALL
NO_CHARGES


@<TRIPOS>ATOM
1    C        31.1975    0.2400   36.3790  C     
2    C        30.3682   -1.3482   34.7269  C     
3    C        30.6416   -0.0115   35.0995  C     
4    C        30.4484    1.0211   34.1949  C     
5    O        31.3171    1.8826   34.1120  O     
6    N        29.3601    1.0764   33.4353  N     
7    C        29.1166    1.9917   32.3451  C     
8    C        28.3416    1.2604   31.1995  C     
9    C        28.8641   -0.0909   30.8635  C     
10   C        28.5453   -2.5179   30.7317  C     
11   C        28.0448   -1.2365   31.0132  C     
12   C        30.1981   -0.2604   30.4162  C     
13   C        30.6954   -1.5418   30.1349  C     
14   C        29.8772   -2.6731   30.2995  C     
15   C        28.3372    3.2613   32.8198  C     
16   C        29.0544    4.0840   33.9183  C     
17   O        28.1518    4.1458   31.7104  O     
18   N        28.2111    5.2455   34.3126  N     
19   C        30.7038   -2.3949   35.6039  C     
20   C        31.1566   -4.3181   36.6062  C     
21   C        30.6138   -3.7746   35.4415  C     
22   C        31.2881   -2.1406   36.8509  C     
23   C        31.5258   -0.8070   37.2805  C     
24   C        31.6194   -3.0506   39.9195  C     
25   C        32.3212   -3.5603   38.6410  C     
26   N        32.0247   -0.5174   38.5278  N     
27   C        33.0761    0.4361   38.7529  C     
28   S        31.3223   -1.2681   39.8768  S     
29   O        29.7606   -0.9875   39.8614  O     
30   O        31.8365   -0.6426   41.2484  O     
31   N        31.5730   -3.3315   37.4313  N     
32   C        30.1633   -4.5418   34.2568  C     
33   C        28.6662   -4.3511   33.9278  C     
34   C        29.8801    6.2944   35.9603  C     
35   C        29.5290    6.6218   37.4482  C     
36   C        30.6289    7.3888   38.2308  C     
37   C        30.9583    8.8864   37.8407  C     
38   C        32.3602    9.0481   37.1757  C     
39   C        29.8712    9.6103   36.9873  C     
40   C        29.4257    7.3214   33.6234  C     
41   C        28.7949    6.5208   34.8235  C     
42   C        27.5659    7.3595   35.3194  C     
43   H        31.3456    1.2111   36.6724  H     
44   H        29.9825   -1.5620   33.8019  H     
45   H        28.6738    0.4114   33.6086  H     
46   H        30.0705    2.3191   31.9159  H     
47   H        27.2854    1.1948   31.4833  H     
48   H        28.3847    1.8676   30.2889  H     
49   H        27.9403   -3.3335   30.8366  H     
50   H        27.0710   -1.1443   31.3261  H     
51   H        30.8079    0.5503   30.2868  H     
52   H        31.6598   -1.6564   29.8064  H     
53   H        30.2409   -3.6031   30.0896  H     
54   H        27.3592    2.9674   33.2040  H     
55   H        29.2104    3.4774   34.8037  H     
56   H        30.0340    4.3901   33.5485  H     
57   H        27.3607    3.8347   31.2296  H     
58   H        27.6479    5.5039   33.4916  H     
59   H        27.5577    4.9157   35.0193  H     
60   H        31.2734   -5.3193   36.7719  H     
61   H        30.6663   -3.5680   40.0525  H     
62   H        32.2499   -3.2730   40.7829  H     
63   H        33.2961   -3.0745   38.5462  H     
64   H        32.5174   -4.6289   38.7812  H     
65   H        33.8814   -0.0287   39.3259  H     
66   H        32.6876    1.2895   39.3146  H     
67   H        33.5083    0.8069   37.8202  H     
68   H        30.7641   -4.2394   33.3943  H     
69   H        30.3361   -5.6116   34.4133  H     
70   H        28.0472   -4.7072   34.7538  H     
71   H        28.4161   -4.9222   33.0306  H     
72   H        28.4364   -3.3012   33.7410  H     
73   H        30.7713    6.8627   35.6943  H     
74   H        30.2123    5.2562   35.9391  H     
75   H        28.6296    7.2211   37.5562  H     
76   H        29.2982    5.6804   37.9526  H     
77   H        30.2978    7.3927   39.2717  H     
78   H        31.5400    6.7815   38.2004  H     
79   H        31.0068    9.4579   38.7830  H     
80   H        33.1221    8.6090   37.8234  H     
81   H        32.6023   10.1031   37.0325  H     
82   H        32.4047    8.5484   36.2105  H     
83   H        29.8074    9.1447   35.9853  H     
84   H        30.0990   10.6908   36.8561  H     
85   H        28.8965    9.5393   37.4783  H     
86   H        30.3529    6.8557   33.2746  H     
87   H        29.6595    8.3493   33.9261  H     
88   H        28.7216    7.3627   32.7838  H     
89   H        26.9051    7.6398   34.4899  H     
90   H        27.9324    8.2785   35.8218  H     
91   H        26.9548    6.7926   36.0221  H     
@<TRIPOS>BOND
     1    1    3 1
     2    1   23 2
     3    2    3 2
     4    2   19 1
     5    3    4 1
     6    4    5 2
     7    4    6 am
     8    6    7 1
     9    7    8 1
    10    7   15 1
    11    8    9 1
    12    9   11 2
    13    9   12 1
    14   10   11 1
    15   10   14 2
    16   12   13 2
    17   13   14 1
    18   15   16 1
    19   15   17 1
    20   16   18 1
    21   18   41 1
    22   19   21 1
    23   19   22 2
    24   20   21 2
    25   20   31 1
    26   21   32 1
    27   22   23 1
    28   22   31 1
    29   23   26 1
    30   24   25 1
    31   24   28 1
    32   25   31 1
    33   26   27 1
    34   26   28 1
    35   28   29 2
    36   28   30 2
    37   32   33 1
    38   34   35 1
    39   34   41 1
    40   35   36 1
    41   36   37 1
    42   37   38 1
    43   37   39 1
    44   40   41 1
    45   41   42 1
    46    1   43 1
    47    2   44 1
    48    6   45 1
    49    7   46 1
    50    8   47 1
    51    8   48 1
    52   10   49 1
    53   11   50 1
    54   12   51 1
    55   13   52 1
    56   14   53 1
    57   15   54 1
    58   16   55 1
    59   16   56 1
    60   17   57 1
    61   18   58 1
    62   18   59 1
    63   20   60 1
    64   24   61 1
    65   24   62 1
    66   25   63 1
    67   25   64 1
    68   27   65 1
    69   27   66 1
    70   27   67 1
    71   32   68 1
    72   32   69 1
    73   33   70 1
    74   33   71 1
    75   33   72 1
    76   34   73 1
    77   34   74 1
    78   35   75 1
    79   35   76 1
    80   36   77 1
    81   36   78 1
    82   37   79 1
    83   38   80 1
    84   38   81 1
    85   38   82 1
    86   39   83 1
    87   39   84 1
    88   39   85 1
    89   40   86 1
    90   40   87 1
    91   40   88 1
    92   42   89 1
    93   42   90 1
    94   42   91 1
@<TRIPOS>PROPERTY_DATA
  Total_Score	| 19.5862
  Crash		| -2.8325
  Polar		| 6.5261
  FragIndex	| 1
  FragRMSD	| 0.254

