@<TRIPOS>MOLECULE
BindingDB_29777
 73 76 0 0 0
SMALL
NO_CHARGES


@<TRIPOS>ATOM
1    C        31.3530    0.1723   36.4436  C     
2    C        30.4706   -1.3559   34.7601  C     
3    C        30.7639   -0.0321   35.1683  C     
4    C        30.5227    1.0303   34.3069  C     
5    O        31.3855    1.8928   34.1732  O     
6    N        29.3753    1.1159   33.6388  N     
7    C        29.0634    2.0621   32.5976  C     
8    C        28.3667    3.3318   33.1970  C     
9    C        28.2069    1.3590   31.4924  C     
10   C        28.7318    0.0295   31.0547  C     
11   C        28.4450   -2.3906   30.7532  C     
12   C        27.9303   -1.1366   31.1339  C     
13   C        30.0531   -0.0912   30.5578  C     
14   C        30.5671   -1.3460   30.1815  C     
15   C        29.7638   -2.4958   30.2778  C     
16   C        29.2385    4.0712   34.2529  C     
17   N        28.6249    5.3626   34.6585  N     
18   O        28.0612    4.2555   32.1474  O     
19   C        31.6263   -0.9040   37.3267  C     
20   C        31.4774   -3.1830   39.9164  C     
21   C        32.2144   -3.7209   38.6685  C     
22   C        31.3322   -2.2146   36.8731  C     
23   C        30.7610   -2.4313   35.6182  C     
24   C        31.1046   -4.3487   36.5660  C     
25   C        30.6310   -3.7829   35.4524  C     
26   N        31.5401   -3.4313   37.4280  N     
27   N        32.1273   -0.6708   38.5848  N     
28   C        33.2592    0.1766   38.8300  C     
29   S        31.3459   -1.3832   39.9069  S     
30   O        29.8105   -0.9666   39.9169  O     
31   O        31.9283   -0.8409   41.2863  O     
32   C        30.1320   -4.4846   34.2769  C     
33   C        28.6130   -4.3010   34.0654  C     
34   C        29.3632    6.1227   35.6972  C     
35   C        28.8274    7.5679   35.8247  C     
36   C        29.3715    8.3418   37.0542  C     
37   F        28.9728    9.6545   37.0035  F     
38   F        28.8917    7.7983   38.2221  F     
39   F        30.7463    8.3307   37.0997  F     
40   H        31.5549    1.1280   36.7565  H     
41   H        30.0936   -1.5381   33.8281  H     
42   H        28.6949    0.4547   33.8484  H     
43   H        29.9812    2.4012   32.1092  H     
44   H        27.4295    3.0319   33.6714  H     
45   H        27.1800    1.2609   31.8530  H     
46   H        28.1702    2.0032   30.6084  H     
47   H        27.8620   -3.2263   30.8280  H     
48   H        26.9689   -1.0836   31.4801  H     
49   H        30.6535    0.7329   30.4807  H     
50   H        31.5255   -1.4227   29.8370  H     
51   H        30.1395   -3.4067   30.0085  H     
52   H        29.3471    3.4403   35.1390  H     
53   H        30.2331    4.2579   33.8415  H     
54   H        28.5448    5.9567   33.8264  H     
55   H        27.6855    5.1770   35.0168  H     
56   H        27.3217    3.8545   31.6378  H     
57   H        30.4758   -3.6139   39.9687  H     
58   H        32.0248   -3.4832   40.8120  H     
59   H        33.2213   -3.2952   38.6298  H     
60   H        32.3349   -4.8020   38.7975  H     
61   H        31.1382   -5.3318   36.7215  H     
62   H        34.0229   -0.3789   39.3774  H     
63   H        32.9495    1.0359   39.4275  H     
64   H        33.7179    0.5467   37.9100  H     
65   H        30.6649   -4.1284   33.3922  H     
66   H        30.3310   -5.5569   34.3616  H     
67   H        28.0591   -4.6960   34.9200  H     
68   H        28.3027   -4.8420   33.1695  H     
69   H        28.3539   -3.2485   33.9365  H     
70   H        29.2561    5.6011   36.6553  H     
71   H        30.4274    6.1587   35.4418  H     
72   H        29.1011    8.1105   34.9133  H     
73   H        27.7332    7.5412   35.8788  H     
@<TRIPOS>BOND
     1    1    3 2
     2    1   19 1
     3    2    3 1
     4    2   23 2
     5    3    4 1
     6    4    5 2
     7    4    6 am
     8    6    7 1
     9    7    8 1
    10    7    9 1
    11    8   16 1
    12    8   18 1
    13    9   10 1
    14   10   12 1
    15   10   13 2
    16   11   12 2
    17   11   15 1
    18   13   14 1
    19   14   15 2
    20   16   17 1
    21   17   34 1
    22   19   22 2
    23   19   27 1
    24   20   21 1
    25   20   29 1
    26   21   26 1
    27   22   23 1
    28   22   26 1
    29   23   25 1
    30   24   25 2
    31   24   26 1
    32   25   32 1
    33   27   28 1
    34   27   29 1
    35   29   30 2
    36   29   31 2
    37   32   33 1
    38   34   35 1
    39   35   36 1
    40   36   37 1
    41   36   38 1
    42   36   39 1
    43    1   40 1
    44    2   41 1
    45    6   42 1
    46    7   43 1
    47    8   44 1
    48    9   45 1
    49    9   46 1
    50   11   47 1
    51   12   48 1
    52   13   49 1
    53   14   50 1
    54   15   51 1
    55   16   52 1
    56   16   53 1
    57   17   54 1
    58   17   55 1
    59   18   56 1
    60   20   57 1
    61   20   58 1
    62   21   59 1
    63   21   60 1
    64   24   61 1
    65   28   62 1
    66   28   63 1
    67   28   64 1
    68   32   65 1
    69   32   66 1
    70   33   67 1
    71   33   68 1
    72   33   69 1
    73   34   70 1
    74   34   71 1
    75   35   72 1
    76   35   73 1
@<TRIPOS>PROPERTY_DATA
  Total_Score	| 17.3212
  Crash		| -0.6315
  Polar		| 6.7468
  FragIndex	| 1
  FragRMSD	| 0.065

