@<TRIPOS>MOLECULE
BindingDB_29801
 69 72 0 0 0
SMALL
NO_CHARGES


@<TRIPOS>ATOM
1    C        31.2317    0.1736   36.2693  C     
2    C        30.3687   -1.3801   34.5982  C     
3    C        30.6669   -0.0511   34.9907  C     
4    C        30.4537    1.0170   34.1274  C     
5    O        31.2996    1.9043   34.0706  O     
6    N        29.3526    1.0909   33.3883  N     
7    C        29.0974    2.0470   32.3365  C     
8    C        28.3887    3.3337   32.8971  C     
9    C        28.3110    1.3494   31.1870  C     
10   C        28.8337   -0.0026   30.8265  C     
11   C        28.5066   -2.4231   30.6165  C     
12   C        28.0101   -1.1485   30.9318  C     
13   C        30.1719   -0.1680   30.3914  C     
14   C        30.6713   -1.4473   30.0790  C     
15   C        29.8355   -2.5764   30.1845  C     
16   C        29.1880    3.9593   34.0780  C     
17   N        28.6297    5.2414   34.5771  N     
18   O        28.2344    4.3286   31.8788  O     
19   C        31.5208   -0.8883   37.1627  C     
20   C        31.4380   -3.1440   39.7800  C     
21   C        32.1658   -3.6879   38.5296  C     
22   C        31.2516   -2.2075   36.7198  C     
23   C        30.6909   -2.4458   35.4622  C     
24   C        31.0659   -4.3482   36.4375  C     
25   N        32.0286   -0.6267   38.4123  N     
26   S        31.2938   -1.3435   39.7586  S     
27   O        29.7497   -0.9557   39.7891  O     
28   O        31.8642   -0.7705   41.1320  O     
29   C        30.1913   -4.5456   34.1245  C     
30   C        28.6815   -4.4050   33.8359  C     
31   C        33.1721    0.2196   38.6183  C     
32   C        29.4865    5.9150   35.5804  C     
33   C        30.6013   -3.8031   35.3073  C     
34   N        31.4794   -3.4148   37.2907  N     
35   C        29.0441    7.1677   35.8811  C     
36   C        28.6873    8.2863   36.1352  C     
37   H        31.4138    1.1348   36.5728  H     
38   H        29.9694   -1.5757   33.6759  H     
39   H        28.6918    0.3906   33.5247  H     
40   H        30.0384    2.3756   31.8930  H     
41   H        27.3851    3.0744   33.2406  H     
42   H        27.2541    1.2900   31.4676  H     
43   H        28.3648    1.9761   30.2919  H     
44   H        27.9040   -3.2437   30.7007  H     
45   H        27.0445   -1.0632   31.2652  H     
46   H        30.7932    0.6392   30.3017  H     
47   H        31.6460   -1.5592   29.7828  H     
48   H        30.1933   -3.5033   29.9478  H     
49   H        29.2258    3.2301   34.8935  H     
50   H        30.2105    4.1487   33.7476  H     
51   H        28.5033    5.8735   33.7795  H     
52   H        27.7170    5.0580   35.0012  H     
53   H        27.3082    4.2484   31.5527  H     
54   H        30.4375   -3.5760   39.8398  H     
55   H        31.9930   -3.4386   40.6736  H     
56   H        33.1729   -3.2605   38.4821  H     
57   H        32.2903   -4.7672   38.6691  H     
58   H        31.1305   -5.3276   36.5966  H     
59   H        30.4312   -5.6068   34.2531  H     
60   H        30.7480   -4.1971   33.2503  H     
61   H        28.0927   -4.7659   34.6792  H     
62   H        28.4242   -4.9952   32.9543  H     
63   H        28.4224   -3.3630   33.6456  H     
64   H        33.6144    0.5730   37.6823  H     
65   H        33.9427   -0.3360   39.1573  H     
66   H        32.8829    1.0918   39.2093  H     
67   H        29.4997    5.3231   36.4979  H     
68   H        30.5069    5.9987   35.2101  H     
69   H        28.4240    9.1449   36.3257  H     
@<TRIPOS>BOND
     1    1    3 2
     2    1   19 1
     3    2    3 1
     4    2   23 2
     5    3    4 1
     6    4    5 2
     7    4    6 am
     8    6    7 1
     9    7    8 1
    10    7    9 1
    11    8   16 1
    12    8   18 1
    13    9   10 1
    14   10   12 1
    15   10   13 2
    16   11   12 2
    17   11   15 1
    18   13   14 1
    19   14   15 2
    20   16   17 1
    21   17   32 1
    22   19   22 2
    23   19   25 1
    24   20   21 1
    25   20   26 1
    26   21   34 1
    27   22   23 1
    28   22   34 1
    29   23   33 1
    30   24   33 2
    31   24   34 1
    32   25   26 1
    33   25   31 1
    34   26   27 2
    35   26   28 2
    36   29   30 1
    37   29   33 1
    38   32   35 1
    39   35   36 3
    40    1   37 1
    41    2   38 1
    42    6   39 1
    43    7   40 1
    44    8   41 1
    45    9   42 1
    46    9   43 1
    47   11   44 1
    48   12   45 1
    49   13   46 1
    50   14   47 1
    51   15   48 1
    52   16   49 1
    53   16   50 1
    54   17   51 1
    55   17   52 1
    56   18   53 1
    57   20   54 1
    58   20   55 1
    59   21   56 1
    60   21   57 1
    61   24   58 1
    62   29   59 1
    63   29   60 1
    64   30   61 1
    65   30   62 1
    66   30   63 1
    67   31   64 1
    68   31   65 1
    69   31   66 1
    70   32   67 1
    71   32   68 1
    72   36   69 1
@<TRIPOS>PROPERTY_DATA
  Total_Score	| 16.4158
  Crash		| -0.9414
  Polar		| 6.7504
  FragIndex	| 1
  FragRMSD	| 0.221

