@<TRIPOS>MOLECULE
BindingDB_50352911
 58 62 0 0 0
SMALL
NO_CHARGES


@<TRIPOS>ATOM
1    N        -8.8366  -27.2301   -3.6201  N     
2    C       -10.0028  -26.8719   -4.2319  C     
3    C       -10.6928  -25.7218   -3.8054  C     
4    C        -8.2906  -26.5181   -2.5961  C     
5    C        -8.9576  -25.3620   -2.1345  C     
6    C       -10.1513  -24.9768   -2.7355  C     
7    N       -10.5709  -23.8576   -2.1071  N     
8    C        -9.7082  -23.5852   -1.1025  C     
9    C        -8.7000  -24.4759   -1.1252  C     
10   C        -7.6178  -24.5531   -0.2918  C     
11   N        -7.4046  -25.5188    0.6298  N     
12   O        -6.7756  -23.6875   -0.4950  O     
13   C        -8.3058  -26.6453    0.8478  C     
14   C        -8.6848  -26.7974    2.3405  C     
15   N        -7.4825  -26.7895    3.1962  N     
16   C        -6.5999  -25.6226    2.9672  C     
17   C        -6.2085  -25.5336    1.4680  C     
18   C       -11.7084  -23.1704   -2.4551  C     
19   C       -11.6696  -21.7807   -2.7215  C     
20   C       -12.8435  -21.0827   -3.0478  C     
21   C       -14.0708  -21.7654   -3.1408  C     
22   C       -14.1140  -23.1530   -2.9153  C     
23   C       -12.9485  -23.8488   -2.5636  C     
24   C        -9.8659  -22.4942   -0.1242  C     
25   C       -10.0860  -22.9334    1.2912  C     
26   C       -11.1353  -23.8532    1.5479  C     
27   C       -11.4412  -24.2654    2.8552  C     
28   C       -10.7111  -23.7567    3.9355  C     
29   C        -9.6934  -22.8200    3.7108  C     
30   C        -9.3814  -22.3755    2.4030  C     
31   C        -8.3732  -21.2947    2.2484  C     
32   H       -10.3649  -27.4404   -4.9991  H     
33   H       -11.5688  -25.4496   -4.2560  H     
34   H        -7.4306  -26.8412   -2.1582  H     
35   H        -9.2487  -26.5798    0.3033  H     
36   H        -7.8014  -27.5594    0.5148  H     
37   H        -9.3420  -25.9902    2.6452  H     
38   H        -9.1958  -27.7469    2.4898  H     
39   H        -7.8010  -26.7833    4.1681  H     
40   H        -6.9790  -27.6616    3.0029  H     
41   H        -7.1110  -24.7042    3.2670  H     
42   H        -5.7041  -25.7284    3.5833  H     
43   H        -5.6088  -26.4137    1.2092  H     
44   H        -5.5648  -24.6598    1.3416  H     
45   H       -10.7798  -21.2759   -2.6727  H     
46   H       -12.8114  -20.0701   -3.2134  H     
47   H       -14.9273  -21.2565   -3.3738  H     
48   H       -15.0014  -23.6553   -3.0032  H     
49   H       -13.0006  -24.8553   -2.3864  H     
50   H        -8.9996  -21.8495   -0.2356  H     
51   H       -10.7297  -21.8716   -0.3689  H     
52   H       -11.6864  -24.2395    0.7758  H     
53   H       -12.1841  -24.9504    3.0164  H     
54   H       -10.9236  -24.0634    4.8902  H     
55   H        -9.1946  -22.4415    4.5244  H     
56   H        -7.5244  -21.6590    1.6702  H     
57   H        -7.9995  -20.9289    3.2071  H     
58   H        -8.8264  -20.4464    1.7319  H     
@<TRIPOS>BOND
     1    1    2 2
     2    1    4 1
     3    2    3 1
     4    3    6 2
     5    4    5 2
     6    5    6 1
     7    5    9 1
     8    6    7 1
     9    7    8 1
    10    7   18 1
    11    8    9 2
    12    8   24 1
    13    9   10 1
    14   10   11 am
    15   10   12 2
    16   11   13 1
    17   11   17 1
    18   13   14 1
    19   14   15 1
    20   15   16 1
    21   16   17 1
    22   18   19 2
    23   18   23 1
    24   19   20 1
    25   20   21 2
    26   21   22 1
    27   22   23 2
    28   24   25 1
    29   25   26 2
    30   25   30 1
    31   26   27 1
    32   27   28 2
    33   28   29 1
    34   29   30 2
    35   30   31 1
    36    2   32 1
    37    3   33 1
    38    4   34 1
    39   13   35 1
    40   13   36 1
    41   14   37 1
    42   14   38 1
    43   15   39 1
    44   15   40 1
    45   16   41 1
    46   16   42 1
    47   17   43 1
    48   17   44 1
    49   19   45 1
    50   20   46 1
    51   21   47 1
    52   22   48 1
    53   23   49 1
    54   24   50 1
    55   24   51 1
    56   26   52 1
    57   27   53 1
    58   28   54 1
    59   29   55 1
    60   31   56 1
    61   31   57 1
    62   31   58 1
@<TRIPOS>PROPERTY_DATA
  Total_Score	| 12.9415
  Crash		| -0.8257
  Polar		| 5.4111
  FragIndex	| 1
  FragRMSD	| 0.314

