@<TRIPOS>MOLECULE
BindingDB_50353003
 58 62 0 0 0
SMALL
NO_CHARGES


@<TRIPOS>ATOM
1    C        -8.8186  -27.2025   -3.6469  C     
2    N        -9.9656  -26.7957   -4.2388  N     
3    C       -10.6780  -25.7103   -3.8145  C     
4    C        -8.3033  -26.4991   -2.5319  C     
5    N       -10.6523  -23.8613   -2.0795  N     
6    C        -9.7847  -23.5693   -1.0813  C     
7    C        -8.7915  -24.4771   -1.0746  C     
8    C        -9.0242  -25.3631   -2.0883  C     
9    C       -10.1976  -24.9703   -2.7101  C     
10   C        -7.6993  -24.5319   -0.2581  C     
11   C        -9.8727  -22.4427   -0.1445  C     
12   C       -11.8027  -23.2079   -2.4491  C     
13   C       -13.0105  -23.9084   -2.6173  C     
14   C       -14.1797  -23.2650   -3.0658  C     
15   C       -14.1475  -21.8695   -3.3283  C     
16   C       -12.9628  -21.1637   -3.1787  C     
17   C       -11.7752  -21.8193   -2.7538  C     
18   O        -6.8406  -23.7100   -0.5370  O     
19   N        -7.4876  -25.4796    0.6851  N     
20   C        -6.2614  -25.5007    1.4781  C     
21   C        -6.5767  -25.6317    2.9912  C     
22   N        -7.4757  -26.7801    3.2448  N     
23   C        -8.7076  -26.7520    2.4432  C     
24   C        -8.3999  -26.5829    0.9380  C     
25   C       -10.0179  -22.8335    1.2965  C     
26   C        -9.3137  -22.2232    2.3865  C     
27   C        -9.5764  -22.6548    3.7185  C     
28   C       -10.5828  -23.5975    3.9802  C     
29   C       -11.3203  -24.1398    2.9165  C     
30   C       -11.0225  -23.7807    1.5989  C     
31   C        -8.3754  -21.0869    2.1811  C     
32   F        -8.9254  -22.1768    4.7504  F     
33   H        -8.3182  -28.0219   -4.0062  H     
34   H       -11.5319  -25.4481   -4.2945  H     
35   H        -7.4473  -26.8014   -2.0731  H     
36   H        -9.0059  -21.8043   -0.3217  H     
37   H       -10.7309  -21.8096   -0.3750  H     
38   H       -13.0540  -24.9170   -2.4314  H     
39   H       -15.0338  -23.7883   -3.2221  H     
40   H       -15.0002  -21.4005   -3.6481  H     
41   H       -12.9269  -20.1612   -3.3874  H     
42   H       -10.9107  -21.2973   -2.6952  H     
43   H        -5.6626  -26.3609    1.1672  H     
44   H        -5.6379  -24.6143    1.3474  H     
45   H        -5.6514  -25.7860    3.5501  H     
46   H        -7.0471  -24.7175    3.3577  H     
47   H        -6.9837  -27.6488    3.0224  H     
48   H        -7.7511  -26.7890    4.2293  H     
49   H        -9.2222  -27.6986    2.6018  H     
50   H        -9.3553  -25.9419    2.7882  H     
51   H        -9.3609  -26.4828    0.4295  H     
52   H        -7.9389  -27.5030    0.5676  H     
53   H       -10.8055  -23.8605    4.9432  H     
54   H       -12.0846  -24.7822    3.1108  H     
55   H       -11.5946  -24.1783    0.8501  H     
56   H        -7.5215  -21.4326    1.5671  H     
57   H        -7.9605  -20.6887    3.1123  H     
58   H        -8.8859  -20.2753    1.6535  H     
@<TRIPOS>BOND
     1    1    2 2
     2    1    4 1
     3    2    3 1
     4    3    9 2
     5    4    8 2
     6    5    6 1
     7    5    9 1
     8    5   12 1
     9    6    7 2
    10    6   11 1
    11    7    8 1
    12    7   10 1
    13    8    9 1
    14   10   18 2
    15   10   19 am
    16   11   25 1
    17   12   13 2
    18   12   17 1
    19   13   14 1
    20   14   15 2
    21   15   16 1
    22   16   17 2
    23   19   20 1
    24   19   24 1
    25   20   21 1
    26   21   22 1
    27   22   23 1
    28   23   24 1
    29   25   26 2
    30   25   30 1
    31   26   27 1
    32   26   31 1
    33   27   28 2
    34   27   32 1
    35   28   29 1
    36   29   30 2
    37    1   33 1
    38    3   34 1
    39    4   35 1
    40   11   36 1
    41   11   37 1
    42   13   38 1
    43   14   39 1
    44   15   40 1
    45   16   41 1
    46   17   42 1
    47   20   43 1
    48   20   44 1
    49   21   45 1
    50   21   46 1
    51   22   47 1
    52   22   48 1
    53   23   49 1
    54   23   50 1
    55   24   51 1
    56   24   52 1
    57   28   53 1
    58   29   54 1
    59   30   55 1
    60   31   56 1
    61   31   57 1
    62   31   58 1
@<TRIPOS>PROPERTY_DATA
  Total_Score	| 12.5938
  Crash		| -0.7938
  Polar		| 5.2147
  FragIndex	| 1
  FragRMSD	| 0.306

