@<TRIPOS>MOLECULE
BindingDB_50329047
 59 63 0 0 0
SMALL
NO_CHARGES


@<TRIPOS>ATOM
1    C        -8.8017  -27.3016   -3.6734  C     
2    C       -10.0040  -26.9165   -4.2997  C     
3    C       -10.6869  -25.7619   -3.8670  C     
4    C        -8.2872  -26.5472   -2.6002  C     
5    N       -10.5959  -23.8936   -2.1672  N     
6    C        -9.7437  -23.5967   -1.1548  C     
7    C        -8.7508  -24.5139   -1.1451  C     
8    C        -8.9839  -25.4020   -2.1671  C     
9    C       -10.1712  -25.0186   -2.7825  C     
10   C       -11.7247  -23.2043   -2.5443  C     
11   C       -11.6620  -21.8315   -2.8801  C     
12   C       -12.8286  -21.1255   -3.2306  C     
13   C       -14.0602  -21.8015   -3.2850  C     
14   C       -14.1268  -23.1781   -3.0003  C     
15   C       -12.9635  -23.8788   -2.6318  C     
16   C        -7.6862  -24.5531   -0.2989  C     
17   N        -7.4728  -25.4982    0.6413  N     
18   O        -6.8469  -23.6813   -0.5124  O     
19   C        -8.3635  -26.6274    0.8850  C     
20   C        -8.7091  -26.7878    2.3851  C     
21   N        -7.5029  -26.7588    3.2264  N     
22   C        -6.6360  -25.5897    2.9707  C     
23   C        -6.2733  -25.4926    1.4659  C     
24   C        -9.8988  -22.5027   -0.1780  C     
25   C       -10.0995  -22.8825    1.2583  C     
26   C       -11.1615  -23.7718    1.5681  C     
27   C       -11.4456  -24.1343    2.8901  C     
28   C       -10.6570  -23.6353    3.9396  C     
29   C        -9.6069  -22.7419    3.6642  C     
30   C        -9.3443  -22.3183    2.3329  C     
31   C        -8.3408  -21.2356    2.1005  C     
32   F        -8.8985  -22.3194    4.6820  F     
33   H        -8.3086  -28.1385   -3.9883  H     
34   H       -10.3784  -27.4737   -5.0735  H     
35   H       -11.5509  -25.4831   -4.3316  H     
36   H        -7.4239  -26.8376   -2.1374  H     
37   H       -10.7732  -21.3249   -2.8279  H     
38   H       -12.7753  -20.1311   -3.4487  H     
39   H       -14.9103  -21.2904   -3.5492  H     
40   H       -15.0136  -23.6702   -3.0646  H     
41   H       -13.0259  -24.8780   -2.4290  H     
42   H        -9.3117  -26.5634    0.3516  H     
43   H        -7.8617  -27.5367    0.5390  H     
44   H        -9.3876  -26.0004    2.7003  H     
45   H        -9.2088  -27.7446    2.5360  H     
46   H        -6.9930  -27.6251    3.0340  H     
47   H        -7.8113  -26.7445    4.2037  H     
48   H        -7.1495  -24.6785    3.2884  H     
49   H        -5.7289  -25.6975    3.5657  H     
50   H        -5.6534  -26.3529    1.1923  H     
51   H        -5.6539  -24.6006    1.3349  H     
52   H       -10.7624  -21.8726   -0.3828  H     
53   H        -9.0450  -21.8621   -0.3510  H     
54   H       -11.7324  -24.1742    0.8227  H     
55   H       -12.2015  -24.7963    3.0850  H     
56   H       -10.8696  -23.9081    4.9005  H     
57   H        -7.5007  -21.6460    1.5381  H     
58   H        -7.9507  -20.7874    3.0125  H     
59   H        -8.7971  -20.4236    1.5232  H     
@<TRIPOS>BOND
     1    5   10 1
     2    1    2 2
     3    7   16 1
     4    8    4 2
     5   16   17 1
     6    5    6 1
     7   16   18 2
     8   17   19 1
     9    7    8 1
    10    9    5 1
    11    4    1 1
    12    8    9 1
    13   10   11 2
    14   17   23 1
    15   19   20 1
    16   20   21 1
    17   21   22 1
    18   22   23 1
    19    6   24 1
    20   24   25 1
    21   11   12 1
    22    2    3 1
    23   25   26 2
    24   12   13 2
    25   26   27 1
    26    6    7 2
    27   27   28 2
    28   13   14 1
    29   28   29 1
    30    3    9 2
    31   29   30 2
    32   30   25 1
    33   14   15 2
    34   30   31 1
    35   15   10 1
    36   29   32 1
    37    1   33 1
    38    2   34 1
    39    3   35 1
    40    4   36 1
    41   11   37 1
    42   12   38 1
    43   13   39 1
    44   14   40 1
    45   15   41 1
    46   19   42 1
    47   19   43 1
    48   20   44 1
    49   20   45 1
    50   21   46 1
    51   21   47 1
    52   22   48 1
    53   22   49 1
    54   23   50 1
    55   23   51 1
    56   24   52 1
    57   24   53 1
    58   26   54 1
    59   27   55 1
    60   28   56 1
    61   31   57 1
    62   31   58 1
    63   31   59 1
@<TRIPOS>PROPERTY_DATA
  Total_Score	| 13.2235
  Crash		| -0.8057
  Polar		| 5.2941
  FragIndex	| 1
  FragRMSD	| 0.281

