@<TRIPOS>MOLECULE
BindingDB_50329018
 63 67 0 0 0
SMALL
NO_CHARGES


@<TRIPOS>ATOM
1    C        -9.7669  -27.1796   -4.1765  C     
2    C       -10.4182  -25.9906   -3.8027  C     
3    C        -9.9019  -25.2552   -2.7273  C     
4    C        -8.7439  -25.6438   -2.0446  C     
5    C        -8.1569  -26.8925   -2.3916  C     
6    C        -8.6650  -27.6447   -3.4568  C     
7    N       -10.3971  -24.1224   -2.1731  N     
8    C        -9.6019  -23.7239   -1.1559  C     
9    C        -8.5130  -24.6197   -1.1192  C     
10   C        -6.9834  -27.4671   -1.6522  C     
11   O        -8.1842  -28.8464   -3.8254  O     
12   C        -7.4984  -24.5759   -0.1811  C     
13   N        -7.4968  -25.3320    0.9368  N     
14   C        -8.6065  -26.2459    1.2147  C     
15   C        -8.7333  -26.7132    2.6774  C     
16   N        -7.4480  -26.8845    3.3568  N     
17   C        -6.6024  -25.6789    3.2866  C     
18   C        -6.3115  -25.3428    1.7945  C     
19   O        -6.6438  -23.7154   -0.3850  O     
20   C       -11.5824  -23.4956   -2.5260  C     
21   C       -11.5907  -22.1369   -2.9061  C     
22   C       -12.7975  -21.5041   -3.2852  C     
23   C       -14.0030  -22.2315   -3.2907  C     
24   C       -13.9976  -23.5982   -2.9472  C     
25   C       -12.7883  -24.2237   -2.5922  C     
26   C        -9.7636  -22.5702   -0.1890  C     
27   C       -10.0756  -22.9154    1.2446  C     
28   C        -9.3498  -22.4522    2.3714  C     
29   C        -9.7696  -22.8382    3.6855  C     
30   C       -10.9776  -23.5116    3.8831  C     
31   C       -11.7670  -23.8696    2.7742  C     
32   C       -11.2910  -23.6222    1.4780  C     
33   C        -8.2447  -21.4660    2.2497  C     
34   F        -9.0715  -22.5580    4.7605  F     
35   H       -10.1503  -27.7122   -4.9700  H     
36   H       -11.2627  -25.6733   -4.3086  H     
37   H        -6.2788  -26.6971   -1.3007  H     
38   H        -6.3501  -28.1153   -2.2855  H     
39   H        -7.2924  -28.0619   -0.7790  H     
40   H        -7.7816  -28.7045   -4.7134  H     
41   H        -9.5775  -25.8117    0.9135  H     
42   H        -8.4576  -27.1283    0.5674  H     
43   H        -9.3285  -26.0020    3.2446  H     
44   H        -9.2540  -27.6619    2.7029  H     
45   H        -7.6508  -27.0975    4.3371  H     
46   H        -6.9521  -27.6807    2.9447  H     
47   H        -7.0855  -24.8472    3.7887  H     
48   H        -5.6557  -25.8819    3.7999  H     
49   H        -5.6208  -26.0880    1.4004  H     
50   H        -5.7943  -24.3871    1.8046  H     
51   H       -10.7156  -21.5979   -2.9117  H     
52   H       -12.7972  -20.5159   -3.5560  H     
53   H       -14.8812  -21.7698   -3.5516  H     
54   H       -14.8703  -24.1259   -2.9637  H     
55   H       -12.8077  -25.2225   -2.3498  H     
56   H        -8.8564  -21.9742   -0.2520  H     
57   H       -10.5740  -21.9359   -0.5453  H     
58   H       -11.3159  -23.7187    4.8347  H     
59   H       -12.6814  -24.3026    2.9263  H     
60   H       -11.8968  -23.8959    0.6981  H     
61   H        -7.4107  -21.9067    1.6970  H     
62   H        -7.8763  -21.1106    3.2149  H     
63   H        -8.6144  -20.5797    1.7239  H     
@<TRIPOS>BOND
     1    1    2 2
     2    1    6 1
     3    2    3 1
     4    3    4 2
     5    3    7 1
     6    4    5 1
     7    4    9 1
     8    5    6 2
     9    5   10 1
    10    6   11 1
    11    7    8 1
    12    7   20 1
    13    8    9 2
    14    8   26 1
    15    9   12 1
    16   12   13 am
    17   12   19 2
    18   13   14 1
    19   13   18 1
    20   14   15 1
    21   15   16 1
    22   16   17 1
    23   17   18 1
    24   20   21 2
    25   20   25 1
    26   21   22 1
    27   22   23 2
    28   23   24 1
    29   24   25 2
    30   26   27 1
    31   27   28 2
    32   27   32 1
    33   28   29 1
    34   28   33 1
    35   29   30 2
    36   29   34 1
    37   30   31 1
    38   31   32 2
    39    1   35 1
    40    2   36 1
    41   10   37 1
    42   10   38 1
    43   10   39 1
    44   11   40 1
    45   14   41 1
    46   14   42 1
    47   15   43 1
    48   15   44 1
    49   16   45 1
    50   16   46 1
    51   17   47 1
    52   17   48 1
    53   18   49 1
    54   18   50 1
    55   21   51 1
    56   22   52 1
    57   23   53 1
    58   24   54 1
    59   25   55 1
    60   26   56 1
    61   26   57 1
    62   30   58 1
    63   31   59 1
    64   32   60 1
    65   33   61 1
    66   33   62 1
    67   33   63 1
@<TRIPOS>PROPERTY_DATA
  Total_Score	| 13.0190
  Crash		| -1.8524
  Polar		| 6.0368
  FragIndex	| 1
  FragRMSD	| 0.393

