@<TRIPOS>MOLECULE
BindingDB_50329008
 59 63 0 0 0
SMALL
NO_CHARGES


@<TRIPOS>ATOM
1    C        -8.6582  -27.3203   -3.6569  C     
2    C        -9.8046  -26.8981   -4.3668  C     
3    C       -10.5061  -25.7301   -3.9795  C     
4    C        -8.1748  -26.5778   -2.5583  C     
5    N       -10.4640  -23.9530   -2.1896  N     
6    C        -9.6871  -23.6330   -1.1473  C     
7    C        -8.6645  -24.5102   -1.1286  C     
8    C        -8.8469  -25.4042   -2.1723  C     
9    C        -9.9934  -25.0173   -2.8598  C     
10   C       -11.7396  -23.5805   -2.2879  C     
11   C       -12.6781  -24.1899   -1.4379  C     
12   C       -14.0141  -23.7458   -1.5084  C     
13   C       -14.3484  -22.6150   -2.2863  C     
14   C       -13.3590  -21.9453   -3.0399  C     
15   C       -12.0453  -22.4581   -3.0695  C     
16   C        -7.6567  -24.5576   -0.2207  C     
17   N        -7.5126  -25.5013    0.7325  N     
18   O        -6.8066  -23.6889   -0.3758  O     
19   C        -6.3601  -25.4560    1.6278  C     
20   C        -6.3046  -26.5829    2.6970  C     
21   N        -7.6296  -26.7827    3.3200  N     
22   C        -8.7720  -26.8758    2.3845  C     
23   C        -8.4373  -26.6094    0.8957  C     
24   C        -9.9676  -22.4644   -0.2708  C     
25   C       -10.1097  -22.7673    1.1993  C     
26   C       -11.1267  -23.6781    1.5814  C     
27   C       -11.3771  -23.9957    2.9241  C     
28   C       -10.5905  -23.4275    3.9306  C     
29   C        -9.5751  -22.5140    3.5950  C     
30   C        -9.3372  -22.1508    2.2401  C     
31   C        -8.3380  -21.0860    1.9367  C     
32   F        -8.8932  -22.0025    4.5876  F     
33   F       -11.5727  -25.2964   -4.6697  F     
34   H        -8.1765  -28.1727   -3.9417  H     
35   H       -10.1263  -27.4391   -5.1706  H     
36   H        -7.3552  -26.9016   -2.0445  H     
37   H       -12.3183  -24.9242   -0.7798  H     
38   H       -14.7274  -24.1896   -0.9167  H     
39   H       -15.3005  -22.2521   -2.2696  H     
40   H       -13.6028  -21.1152   -3.5860  H     
41   H       -11.2427  -21.9613   -3.4826  H     
42   H        -5.4353  -25.5064    1.0411  H     
43   H        -6.3665  -24.4991    2.1620  H     
44   H        -5.9838  -27.5182    2.2331  H     
45   H        -5.5814  -26.3303    3.4773  H     
46   H        -7.6310  -27.6508    3.8597  H     
47   H        -7.8070  -26.0086    3.9675  H     
48   H        -9.2080  -27.8715    2.4791  H     
49   H        -9.5196  -26.1594    2.7168  H     
50   H        -9.3829  -26.4768    0.3673  H     
51   H        -7.9638  -27.5030    0.4824  H     
52   H        -9.1436  -21.7722   -0.4547  H     
53   H       -10.9193  -21.9396   -0.5852  H     
54   H       -11.7065  -24.1294    0.8808  H     
55   H       -12.1086  -24.6662    3.1675  H     
56   H       -10.7692  -23.6770    4.9082  H     
57   H        -7.5308  -21.4973    1.3278  H     
58   H        -8.8349  -20.2793    1.3917  H     
59   H        -7.8926  -20.6427    2.8272  H     
@<TRIPOS>BOND
     1    1    2 2
     2    7   16 1
     3    8    4 2
     4   16   17 1
     5    5    6 1
     6   16   18 2
     7   17   19 1
     8    7    8 1
     9    9    5 1
    10    4    1 1
    11    8    9 1
    12   10   11 2
    13   17   23 1
    14   19   20 1
    15   20   21 1
    16   21   22 1
    17   22   23 1
    18    6   24 1
    19   24   25 1
    20   11   12 1
    21    2    3 1
    22   25   26 2
    23   12   13 2
    24   26   27 1
    25    6    7 2
    26   27   28 2
    27   13   14 1
    28   28   29 1
    29    3    9 2
    30   29   30 2
    31   30   25 1
    32   14   15 2
    33   30   31 1
    34   15   10 1
    35   29   32 1
    36    5   10 1
    37    3   33 1
    38    1   34 1
    39    2   35 1
    40    4   36 1
    41   11   37 1
    42   12   38 1
    43   13   39 1
    44   14   40 1
    45   15   41 1
    46   19   42 1
    47   19   43 1
    48   20   44 1
    49   20   45 1
    50   21   46 1
    51   21   47 1
    52   22   48 1
    53   22   49 1
    54   23   50 1
    55   23   51 1
    56   24   52 1
    57   24   53 1
    58   26   54 1
    59   27   55 1
    60   28   56 1
    61   31   57 1
    62   31   58 1
    63   31   59 1
@<TRIPOS>PROPERTY_DATA
  Total_Score	| 11.4137
  Crash		| -1.4284
  Polar		| 4.1900
  FragIndex	| 1
  FragRMSD	| 0.613

