@<TRIPOS>MOLECULE
BindingDB_50419724
 76 81 0 0 0
SMALL
NO_CHARGES


@<TRIPOS>ATOM
1    C        -8.7360  -24.2139   -0.9923  C     
2    C        -9.6635  -23.2353   -0.9222  C     
3    N       -10.5669  -23.4101   -1.9080  N     
4    C        -9.0729  -25.0352   -2.0360  C     
5    C       -10.2372  -24.5223   -2.5915  C     
6    C        -7.6374  -24.3965   -0.2034  C     
7    C        -9.7134  -22.1796    0.0937  C     
8    C       -10.8367  -25.1414   -3.7016  C     
9    C        -8.4908  -26.2053   -2.5570  C     
10   N        -7.4518  -25.4172    0.6620  N     
11   C       -10.2519  -26.2947   -4.2783  C     
12   C        -9.9365  -22.6884    1.4870  C     
13   C       -11.2828  -25.9123   -6.5482  C     
14   C        -9.0849  -26.8428   -3.6686  C     
15   C       -10.9273  -26.8977   -5.4688  C     
16   C        -9.3127  -22.1293    2.6440  C     
17   C       -12.6006  -25.7493   -7.0892  C     
18   C       -11.6875  -22.6579   -2.1694  C     
19   O        -6.7497  -23.5806   -0.4168  O     
20   N        -7.4990  -26.7913    3.1780  N     
21   C       -12.8047  -24.8104   -8.1368  C     
22   C        -9.6200  -22.6705    3.9240  C     
23   F        -9.0445  -22.2362    5.0149  F     
24   F       -13.9782  -24.6186   -8.6869  F     
25   O        -8.5068  -28.0075   -4.0603  O     
26   C        -6.2219  -25.5492    1.4365  C     
27   C        -8.4201  -26.4878    0.8757  C     
28   C       -10.8940  -23.7171    1.6610  C     
29   C       -10.2378  -25.0978   -7.0601  C     
30   C       -10.4644  -24.1599   -8.0789  C     
31   C       -11.2036  -24.2237    2.9360  C     
32   C        -8.7324  -26.6712    2.3815  C     
33   C        -6.5415  -25.6855    2.9494  C     
34   C       -13.7660  -26.5166   -6.5638  C     
35   C        -8.3818  -20.9759    2.5424  C     
36   C       -10.5553  -23.7097    4.0643  C     
37   C       -11.7462  -24.0195   -8.6221  C     
38   C       -12.9598  -23.2730   -2.2135  C     
39   C       -11.5896  -21.2654   -2.3959  C     
40   C       -12.7484  -20.4991   -2.6329  C     
41   C       -14.1154  -22.5071   -2.4546  C     
42   C       -14.0109  -21.1194   -2.6551  C     
43   H        -8.7978  -21.5960   -0.0045  H     
44   H       -10.5288  -21.4793   -0.1079  H     
45   H       -11.6908  -24.7376   -4.0933  H     
46   H        -7.6456  -26.5960   -2.1327  H     
47   H       -10.3050  -27.6732   -5.9177  H     
48   H       -11.8057  -27.4126   -5.0850  H     
49   H        -7.7739  -26.8047    4.1628  H     
50   H        -7.0558  -27.6814    2.9335  H     
51   H        -8.2730  -27.9107   -5.0036  H     
52   H        -5.6916  -26.4467    1.1039  H     
53   H        -5.5307  -24.7091    1.3225  H     
54   H        -9.3703  -26.3339    0.3638  H     
55   H        -7.9947  -27.4201    0.4939  H     
56   H       -11.3881  -24.1117    0.8549  H     
57   H        -9.2888  -25.1679   -6.6795  H     
58   H        -9.6967  -23.5729   -8.4218  H     
59   H       -11.8887  -24.9742    3.0353  H     
60   H        -9.3161  -27.5813    2.5259  H     
61   H        -9.3175  -25.8263    2.7468  H     
62   H        -6.9656  -24.7502    3.3273  H     
63   H        -5.6255  -25.8952    3.5054  H     
64   H       -13.5882  -27.5878   -6.6706  H     
65   H       -14.7034  -26.2925   -7.0694  H     
66   H       -13.9033  -26.2805   -5.5077  H     
67   H        -7.5057  -21.2729    1.9608  H     
68   H        -8.0394  -20.6108    3.5096  H     
69   H        -8.8824  -20.1394    2.0457  H     
70   H       -10.7774  -24.0865    4.9894  H     
71   H       -11.9052  -23.3396   -9.3687  H     
72   H       -13.0526  -24.2799   -2.0550  H     
73   H       -10.6759  -20.8047   -2.3814  H     
74   H       -12.6735  -19.4917   -2.7794  H     
75   H       -15.0289  -22.9564   -2.4710  H     
76   H       -14.8542  -20.5608   -2.8176  H     
@<TRIPOS>BOND
     1    1    2 2
     2    1    4 1
     3    1    6 1
     4    2    3 1
     5    2    7 1
     6    3    5 1
     7    3   18 1
     8    4    5 1
     9    4    9 2
    10    5    8 2
    11    6   10 am
    12    6   19 2
    13    7   12 1
    14    8   11 1
    15    9   14 1
    16   10   26 1
    17   10   27 1
    18   11   14 2
    19   11   15 1
    20   12   16 1
    21   12   28 2
    22   13   15 1
    23   13   17 2
    24   13   29 1
    25   14   25 1
    26   16   22 2
    27   16   35 1
    28   17   21 1
    29   17   34 1
    30   18   38 2
    31   18   39 1
    32   20   32 1
    33   20   33 1
    34   21   24 1
    35   21   37 2
    36   22   23 1
    37   22   36 1
    38   26   33 1
    39   27   32 1
    40   28   31 1
    41   29   30 2
    42   30   37 1
    43   31   36 2
    44   38   41 1
    45   39   40 2
    46   40   42 1
    47   41   42 2
    48    7   43 1
    49    7   44 1
    50    8   45 1
    51    9   46 1
    52   15   47 1
    53   15   48 1
    54   20   49 1
    55   20   50 1
    56   25   51 1
    57   26   52 1
    58   26   53 1
    59   27   54 1
    60   27   55 1
    61   28   56 1
    62   29   57 1
    63   30   58 1
    64   31   59 1
    65   32   60 1
    66   32   61 1
    67   33   62 1
    68   33   63 1
    69   34   64 1
    70   34   65 1
    71   34   66 1
    72   35   67 1
    73   35   68 1
    74   35   69 1
    75   36   70 1
    76   37   71 1
    77   38   72 1
    78   39   73 1
    79   40   74 1
    80   41   75 1
    81   42   76 1
@<TRIPOS>PROPERTY_DATA
  Total_Score	| 13.6255
  Crash		| -3.5579
  Polar		| 6.4304
  FragIndex	| 1
  FragRMSD	| 0.623

