@<TRIPOS>MOLECULE
BindingDB_50329016
 60 64 0 0 0
SMALL
NO_CHARGES


@<TRIPOS>ATOM
1    C        -8.3321  -27.5745   -2.9397  C     
2    C        -9.5553  -27.4088   -3.6258  C     
3    C       -10.3484  -26.2719   -3.3687  C     
4    C        -7.8913  -26.6062   -2.0130  C     
5    N       -10.4531  -24.1651   -1.9910  N     
6    C        -9.6239  -23.5843   -1.0991  C     
7    C        -8.5487  -24.3837   -0.9448  C     
8    C        -8.6915  -25.4668   -1.7743  C     
9    C        -9.8996  -25.3069   -2.4388  C     
10   C       -11.7406  -23.8348   -2.2778  C     
11   C       -12.0369  -22.6316   -2.9534  C     
12   C       -13.3707  -22.2972   -3.2515  C     
13   C       -14.4121  -23.1661   -2.8797  C     
14   C       -14.1221  -24.3650   -2.2007  C     
15   C       -12.7903  -24.7001   -1.8908  C     
16   C        -7.5107  -24.2861   -0.0725  C     
17   N        -7.4884  -24.8958    1.1308  N     
18   O        -6.4971  -23.7826   -0.5412  O     
19   C        -6.2186  -25.2039    1.7744  C     
20   C        -6.3413  -25.8773    3.1731  C     
21   N        -7.4210  -26.8926    3.2415  N     
22   C        -8.6341  -26.6374    2.4324  C     
23   C        -8.6968  -25.1953    1.8791  C     
24   C        -9.8388  -22.2776   -0.4509  C     
25   C       -10.2361  -22.3829    0.9894  C     
26   C       -11.4571  -23.0394    1.2829  C     
27   C       -11.7855  -23.3907    2.6004  C     
28   C       -10.9367  -23.0332    3.6545  C     
29   C        -9.7881  -22.2589    3.4014  C     
30   C        -9.4448  -21.8838    2.0736  C     
31   O        -9.9863  -28.3497   -4.5047  O     
32   C        -8.3051  -20.9488    1.8524  C     
33   F        -9.0510  -21.9317    4.4335  F     
34   H        -7.7598  -28.4073   -3.1066  H     
35   H       -11.2443  -26.1521   -3.8447  H     
36   H        -7.0110  -26.7379   -1.5134  H     
37   H       -11.2822  -21.9990   -3.2316  H     
38   H       -13.5809  -21.4230   -3.7363  H     
39   H       -15.3764  -22.9265   -3.1084  H     
40   H       -14.8823  -24.9900   -1.9212  H     
41   H       -12.5902  -25.5689   -1.3805  H     
42   H        -5.6228  -24.2927    1.8896  H     
43   H        -5.6745  -25.8933    1.1217  H     
44   H        -6.5564  -25.1087    3.9208  H     
45   H        -5.3944  -26.3456    3.4432  H     
46   H        -7.7325  -26.9692    4.2158  H     
47   H        -7.0541  -27.7969    2.9472  H     
48   H        -8.6614  -27.3491    1.5971  H     
49   H        -9.5090  -26.8261    3.0559  H     
50   H        -9.6239  -25.0913    1.3104  H     
51   H        -8.7423  -24.4853    2.7196  H     
52   H       -10.6068  -21.7216   -0.9980  H     
53   H        -8.9390  -21.6799   -0.5672  H     
54   H       -12.1312  -23.2619    0.5367  H     
55   H       -12.6418  -23.9125    2.7897  H     
56   H       -11.1798  -23.2985    4.6141  H     
57   H        -9.2402  -28.4792   -5.1301  H     
58   H        -7.5480  -21.4531    1.2627  H     
59   H        -8.6559  -20.0612    1.3172  H     
60   H        -7.8330  -20.6057    2.7758  H     
@<TRIPOS>BOND
     1    1    2 2
     2    7   16 1
     3    8    4 2
     4   16   17 1
     5    5    6 1
     6   16   18 2
     7   17   19 1
     8    7    8 1
     9    9    5 1
    10    4    1 1
    11    8    9 1
    12   10   11 2
    13   17   23 1
    14   19   20 1
    15   20   21 1
    16   21   22 1
    17   22   23 1
    18    6   24 1
    19   24   25 1
    20   11   12 1
    21    2    3 1
    22   25   26 2
    23   12   13 2
    24   26   27 1
    25    6    7 2
    26   27   28 2
    27   13   14 1
    28   28   29 1
    29    3    9 2
    30   29   30 2
    31   30   25 1
    32   14   15 2
    33    2   31 1
    34   15   10 1
    35   30   32 1
    36    5   10 1
    37   29   33 1
    38    1   34 1
    39    3   35 1
    40    4   36 1
    41   11   37 1
    42   12   38 1
    43   13   39 1
    44   14   40 1
    45   15   41 1
    46   19   42 1
    47   19   43 1
    48   20   44 1
    49   20   45 1
    50   21   46 1
    51   21   47 1
    52   22   48 1
    53   22   49 1
    54   23   50 1
    55   23   51 1
    56   24   52 1
    57   24   53 1
    58   26   54 1
    59   27   55 1
    60   28   56 1
    61   31   57 1
    62   32   58 1
    63   32   59 1
    64   32   60 1
@<TRIPOS>PROPERTY_DATA
  Total_Score	| 12.8456
  Crash		| -1.6009
  Polar		| 7.2105
  FragIndex	| 1
  FragRMSD	| 0.820

