@<TRIPOS>MOLECULE
BindingDB_50352892
 58 62 0 0 0
SMALL
NO_CHARGES


@<TRIPOS>ATOM
1    N        -8.7140  -27.1689   -3.6117  N     
2    C        -9.8456  -26.8149   -4.2799  C     
3    C       -10.5856  -25.6858   -3.8696  C     
4    C        -8.2384  -26.4693   -2.5480  C     
5    C        -8.9519  -25.3369   -2.1066  C     
6    C       -10.1247  -24.9561   -2.7519  C     
7    N       -10.5956  -23.8599   -2.1158  N     
8    C        -9.7627  -23.5751   -1.0869  C     
9    C        -8.7450  -24.4585   -1.0801  C     
10   C        -7.6702  -24.5132   -0.2448  C     
11   N        -7.4344  -25.4823    0.6660  N     
12   O        -6.8270  -23.6543   -0.4798  O     
13   C        -8.3392  -26.6030    0.8936  C     
14   C        -8.6700  -26.7646    2.3967  C     
15   N        -7.4514  -26.7755    3.2237  N     
16   C        -6.5486  -25.6276    2.9747  C     
17   C        -6.2132  -25.5184    1.4645  C     
18   C       -11.7365  -23.1926   -2.4898  C     
19   C       -11.6972  -21.8227   -2.8407  C     
20   C       -12.8725  -21.1359   -3.2003  C     
21   C       -14.1057  -21.8145   -3.2146  C     
22   C       -14.1581  -23.1816   -2.8858  C     
23   C       -12.9802  -23.8650   -2.5320  C     
24   C        -9.9286  -22.4823   -0.1192  C     
25   C       -10.1130  -22.9029    1.3083  C     
26   C       -11.1814  -23.7900    1.5951  C     
27   C       -11.4755  -24.1790    2.9118  C     
28   C       -10.6952  -23.7007    3.9731  C     
29   C        -9.6341  -22.8145    3.7219  C     
30   C        -9.3479  -22.3788    2.3989  C     
31   C        -8.2994  -21.3423    2.1889  C     
32   F        -8.9405  -22.4141    4.7570  F     
33   H       -10.1566  -27.3763   -5.0733  H     
34   H       -11.4323  -25.4124   -4.3692  H     
35   H        -7.3854  -26.7727   -2.0781  H     
36   H        -9.2912  -26.5195    0.3685  H     
37   H        -7.8572  -27.5181    0.5378  H     
38   H        -9.3191  -25.9528    2.7227  H     
39   H        -9.1957  -27.7069    2.5521  H     
40   H        -7.7442  -26.7685    4.2034  H     
41   H        -6.9541  -27.6459    3.0211  H     
42   H        -7.0236  -24.7034    3.3171  H     
43   H        -5.6301  -25.7729    3.5465  H     
44   H        -5.6277  -26.3962    1.1695  H     
45   H        -5.5678  -24.6467    1.3273  H     
46   H       -10.8083  -21.3155   -2.8314  H     
47   H       -12.8362  -20.1427   -3.4425  H     
48   H       -14.9622  -21.3166   -3.4639  H     
49   H       -15.0520  -23.6753   -2.8979  H     
50   H       -13.0342  -24.8580   -2.2901  H     
51   H        -9.0692  -21.8282   -0.2525  H     
52   H       -10.8014  -21.8775   -0.3629  H     
53   H       -11.7669  -24.1612    0.8416  H     
54   H       -12.2532  -24.8165    3.0994  H     
55   H       -10.9095  -23.9890    4.9309  H     
56   H        -7.4861  -21.7492    1.5861  H     
57   H        -7.8710  -20.9668    3.1175  H     
58   H        -8.7359  -20.4840    1.6750  H     
@<TRIPOS>BOND
     1    1    2 2
     2    1    4 1
     3    2    3 1
     4    3    6 2
     5    4    5 2
     6    5    6 1
     7    5    9 1
     8    6    7 1
     9    7    8 1
    10    7   18 1
    11    8    9 2
    12    8   24 1
    13    9   10 1
    14   10   11 am
    15   10   12 2
    16   11   13 1
    17   11   17 1
    18   13   14 1
    19   14   15 1
    20   15   16 1
    21   16   17 1
    22   18   19 2
    23   18   23 1
    24   19   20 1
    25   20   21 2
    26   21   22 1
    27   22   23 2
    28   24   25 1
    29   25   26 2
    30   25   30 1
    31   26   27 1
    32   27   28 2
    33   28   29 1
    34   29   30 2
    35   29   32 1
    36   30   31 1
    37    2   33 1
    38    3   34 1
    39    4   35 1
    40   13   36 1
    41   13   37 1
    42   14   38 1
    43   14   39 1
    44   15   40 1
    45   15   41 1
    46   16   42 1
    47   16   43 1
    48   17   44 1
    49   17   45 1
    50   19   46 1
    51   20   47 1
    52   21   48 1
    53   22   49 1
    54   23   50 1
    55   24   51 1
    56   24   52 1
    57   26   53 1
    58   27   54 1
    59   28   55 1
    60   31   56 1
    61   31   57 1
    62   31   58 1
@<TRIPOS>PROPERTY_DATA
  Total_Score	| 12.7557
  Crash		| -0.8621
  Polar		| 5.2227
  FragIndex	| 1
  FragRMSD	| 0.294

