@<TRIPOS>MOLECULE
BindingDB_50352996
 55 59 0 0 0
SMALL
NO_CHARGES


@<TRIPOS>ATOM
1    C        -8.7438  -27.1869   -3.5909  C     
2    N        -9.8930  -26.7648   -4.1842  N     
3    C       -10.5677  -25.6548   -3.7827  C     
4    C        -8.2050  -26.4658   -2.5112  C     
5    N       -10.5048  -23.7926   -2.0670  N     
6    C        -9.6427  -23.5206   -1.0585  C     
7    C        -8.6432  -24.4273   -1.0635  C     
8    C        -8.8929  -25.3093   -2.0790  C     
9    C       -10.0695  -24.9045   -2.6964  C     
10   C        -7.5663  -24.5074   -0.2302  C     
11   C        -9.7715  -22.4430   -0.0690  C     
12   C       -11.6449  -23.1099   -2.4250  C     
13   C       -11.6268  -21.7065   -2.6077  C     
14   C       -12.7966  -21.0182   -2.9873  C     
15   C       -13.9935  -21.7201   -3.1999  C     
16   C       -14.0174  -23.1155   -3.0479  C     
17   C       -12.8531  -23.8060   -2.6606  C     
18   O        -6.7267  -23.6374   -0.4358  O     
19   N        -7.3529  -25.4916    0.6740  N     
20   C        -8.2619  -26.6106    0.8865  C     
21   C        -8.6035  -26.7918    2.3837  C     
22   N        -7.3894  -26.8290    3.2164  N     
23   C        -6.4682  -25.6961    2.9829  C     
24   C        -6.1367  -25.5445    1.4756  C     
25   C        -9.9552  -22.9164    1.3291  C     
26   C        -9.2189  -22.3635    2.4028  C     
27   C        -9.4917  -22.7370    3.7348  C     
28   C       -10.5066  -23.6689    4.0090  C     
29   C       -11.2280  -24.2466    2.9490  C     
30   C       -10.9560  -23.8706    1.6233  C     
31   H        -8.2788  -28.0332   -3.9301  H     
32   H       -11.4235  -25.3830   -4.2633  H     
33   H        -7.3477  -26.7753   -2.0517  H     
34   H        -8.8888  -21.8041   -0.1520  H     
35   H       -10.6204  -21.7990   -0.2999  H     
36   H       -10.7589  -21.1809   -2.4724  H     
37   H       -12.7735  -20.0028   -3.1097  H     
38   H       -14.8401  -21.2224   -3.4746  H     
39   H       -14.8803  -23.6336   -3.2202  H     
40   H       -12.8894  -24.8236   -2.5513  H     
41   H        -9.2070  -26.5181    0.3498  H     
42   H        -7.7794  -27.5193    0.5171  H     
43   H        -9.2551  -25.9853    2.7154  H     
44   H        -9.1281  -27.7374    2.5153  H     
45   H        -7.7014  -26.8262    4.1919  H     
46   H        -6.9131  -27.7108    3.0047  H     
47   H        -6.9199  -24.7757    3.3625  H     
48   H        -5.5493  -25.8782    3.5454  H     
49   H        -5.5480  -26.4086    1.1578  H     
50   H        -5.4976  -24.6598    1.3701  H     
51   H        -8.4811  -21.6783    2.2262  H     
52   H        -8.9565  -22.3263    4.4998  H     
53   H       -10.7107  -23.9346    4.9784  H     
54   H       -11.9588  -24.9330    3.1499  H     
55   H       -11.5105  -24.2890    0.8709  H     
@<TRIPOS>BOND
     1    1    2 2
     2    1    4 1
     3    2    3 1
     4    3    9 2
     5    4    8 2
     6    5    6 1
     7    5    9 1
     8    5   12 1
     9    6    7 2
    10    6   11 1
    11    7    8 1
    12    7   10 1
    13    8    9 1
    14   10   18 2
    15   10   19 am
    16   11   25 1
    17   12   13 2
    18   12   17 1
    19   13   14 1
    20   14   15 2
    21   15   16 1
    22   16   17 2
    23   19   20 1
    24   19   24 1
    25   20   21 1
    26   21   22 1
    27   22   23 1
    28   23   24 1
    29   25   26 2
    30   25   30 1
    31   26   27 1
    32   27   28 2
    33   28   29 1
    34   29   30 2
    35    1   31 1
    36    3   32 1
    37    4   33 1
    38   11   34 1
    39   11   35 1
    40   13   36 1
    41   14   37 1
    42   15   38 1
    43   16   39 1
    44   17   40 1
    45   20   41 1
    46   20   42 1
    47   21   43 1
    48   21   44 1
    49   22   45 1
    50   22   46 1
    51   23   47 1
    52   23   48 1
    53   24   49 1
    54   24   50 1
    55   26   51 1
    56   27   52 1
    57   28   53 1
    58   29   54 1
    59   30   55 1
@<TRIPOS>PROPERTY_DATA
  Total_Score	| 11.7248
  Crash		| -0.6331
  Polar		| 5.3162
  FragIndex	| 1
  FragRMSD	| 0.353

