@<TRIPOS>MOLECULE
BindingDB_50329046
 56 60 0 0 0
SMALL
NO_CHARGES


@<TRIPOS>ATOM
1    C       -14.1150  -21.7602   -3.2625  C     
2    C       -12.8909  -21.0806   -3.1535  C     
3    C       -11.7254  -21.7830   -2.8037  C     
4    C       -11.7656  -23.1682   -2.5183  C     
5    C       -13.0120  -23.8376   -2.6366  C     
6    C       -14.1722  -23.1432   -3.0181  C     
7    N       -10.6303  -23.8584   -2.1475  N     
8    C       -10.1789  -24.9794   -2.7619  C     
9    C        -9.0100  -25.3998   -2.1253  C     
10   C        -8.7463  -24.5067   -1.0966  C     
11   C        -9.7735  -23.5495   -1.1230  C     
12   C       -10.6693  -25.7063   -3.8745  C     
13   C        -9.9797  -26.8516   -4.3165  C     
14   C        -8.8056  -27.2708   -3.6606  C     
15   C        -8.3086  -26.5414   -2.5606  C     
16   C       -10.0969  -22.8750    1.2675  C     
17   C        -9.3680  -22.2882    2.3354  C     
18   C        -9.6081  -22.6737    3.6694  C     
19   C       -10.5712  -23.6532    3.9585  C     
20   C       -11.2931  -24.2486    2.9194  C     
21   C       -11.0610  -23.8581    1.5788  C     
22   C        -7.6557  -24.5704   -0.2319  C     
23   N        -7.4125  -25.5689    0.6445  N     
24   O        -6.8526  -23.6608   -0.3886  O     
25   C        -6.1887  -25.6359    1.4325  C     
26   C        -6.5145  -25.7000    2.9491  C     
27   N        -7.4610  -26.7975    3.2389  N     
28   C        -8.6818  -26.7723    2.4041  C     
29   C        -8.3439  -26.6596    0.8976  C     
30   C        -9.8954  -22.4321   -0.1433  C     
31   H       -14.9654  -21.2514   -3.5210  H     
32   H       -12.8489  -20.0733   -3.3253  H     
33   H       -10.8385  -21.2703   -2.7366  H     
34   H       -13.0751  -24.8434   -2.4409  H     
35   H       -15.0591  -23.6446   -3.1145  H     
36   H       -11.5142  -25.4058   -4.3633  H     
37   H       -10.3303  -27.3803   -5.1188  H     
38   H        -8.3074  -28.1045   -3.9824  H     
39   H        -7.4495  -26.8396   -2.0898  H     
40   H        -8.6657  -21.5707    2.1495  H     
41   H        -9.0893  -22.2286    4.4302  H     
42   H       -10.7506  -23.9236    4.9309  H     
43   H       -12.0013  -24.9589    3.1267  H     
44   H       -11.6119  -24.2959    0.8365  H     
45   H        -5.6367  -26.5378    1.1538  H     
46   H        -5.5121  -24.7908    1.2689  H     
47   H        -5.5975  -25.8718    3.5185  H     
48   H        -6.9423  -24.7505    3.2751  H     
49   H        -7.0006  -27.6914    3.0687  H     
50   H        -7.7500  -26.7409    4.2151  H     
51   H        -9.2410  -27.6941    2.5789  H     
52   H        -9.3080  -25.9348    2.7051  H     
53   H        -9.2946  -26.5661    0.3703  H     
54   H        -7.8847  -27.5958    0.5663  H     
55   H        -9.0010  -21.8140   -0.2415  H     
56   H       -10.7393  -21.7886   -0.3917  H     
@<TRIPOS>BOND
     1    1    2 2
     2    1    6 1
     3    2    3 1
     4    3    4 2
     5    4    5 1
     6    4    7 1
     7    5    6 2
     8    7    8 1
     9    7   11 1
    10    8    9 2
    11    8   12 1
    12    9   10 1
    13    9   15 1
    14   10   11 2
    15   10   22 1
    16   11   30 1
    17   12   13 2
    18   13   14 1
    19   14   15 2
    20   16   17 2
    21   16   21 1
    22   16   30 1
    23   17   18 1
    24   18   19 2
    25   19   20 1
    26   20   21 2
    27   22   23 am
    28   22   24 2
    29   23   25 1
    30   23   29 1
    31   25   26 1
    32   26   27 1
    33   27   28 1
    34   28   29 1
    35    1   31 1
    36    2   32 1
    37    3   33 1
    38    5   34 1
    39    6   35 1
    40   12   36 1
    41   13   37 1
    42   14   38 1
    43   15   39 1
    44   17   40 1
    45   18   41 1
    46   19   42 1
    47   20   43 1
    48   21   44 1
    49   25   45 1
    50   25   46 1
    51   26   47 1
    52   26   48 1
    53   27   49 1
    54   27   50 1
    55   28   51 1
    56   28   52 1
    57   29   53 1
    58   29   54 1
    59   30   55 1
    60   30   56 1
@<TRIPOS>PROPERTY_DATA
  Total_Score	| 12.1189
  Crash		| -0.6936
  Polar		| 5.2206
  FragIndex	| 1
  FragRMSD	| 0.305

