@<TRIPOS>MOLECULE
BindingDB_50329048
 56 60 0 0 0
SMALL
NO_CHARGES


@<TRIPOS>ATOM
1    C        -8.7650  -27.3093   -3.6504  C     
2    C        -9.9555  -26.9467   -4.3124  C     
3    C       -10.6880  -25.8194   -3.8872  C     
4    C        -8.2966  -26.5408   -2.5663  C     
5    N       -10.6954  -23.9506   -2.1876  N     
6    C        -9.8620  -23.6306   -1.1742  C     
7    C        -8.8384  -24.5092   -1.1394  C     
8    C        -9.0385  -25.4159   -2.1460  C     
9    C       -10.2200  -25.0605   -2.7928  C     
10   C       -11.8066  -23.2642   -2.6097  C     
11   C       -13.0595  -23.9131   -2.7138  C     
12   C       -14.1940  -23.2012   -3.1536  C     
13   C       -14.1000  -21.8382   -3.4834  C     
14   C       -12.8548  -21.1885   -3.3914  C     
15   C       -11.7141  -21.8974   -2.9678  C     
16   C        -7.7684  -24.5350   -0.2957  C     
17   N        -7.5225  -25.4963    0.6206  N     
18   O        -6.9554  -23.6406   -0.5047  O     
19   C        -6.2914  -25.5220    1.4037  C     
20   C        -6.6013  -25.6155    2.9189  C     
21   N        -7.5018  -26.7563    3.1963  N     
22   C        -8.7414  -26.7464    2.3973  C     
23   C        -8.4337  -26.6037    0.8878  C     
24   C       -10.0507  -22.5196   -0.2334  C     
25   C       -10.1849  -22.9243    1.2017  C     
26   C        -9.3548  -22.3836    2.2374  C     
27   C        -9.5749  -22.7353    3.5867  C     
28   C       -10.6158  -23.6099    3.9387  C     
29   C       -11.4478  -24.1398    2.9345  C     
30   C       -11.2448  -23.7908    1.5862  C     
31   F       -12.0735  -24.2920    0.7039  F     
32   Cl       -8.0946  -21.2745    1.9534  Cl    
33   H        -8.2415  -28.1326   -3.9561  H     
34   H       -10.2874  -27.5015   -5.1045  H     
35   H       -11.5503  -25.5635   -4.3697  H     
36   H        -7.4367  -26.8121   -2.0838  H     
37   H       -13.1529  -24.9023   -2.4659  H     
38   H       -15.0925  -23.6758   -3.2323  H     
39   H       -14.9299  -21.3280   -3.8024  H     
40   H       -12.7789  -20.2002   -3.6403  H     
41   H       -10.8150  -21.4145   -2.9256  H     
42   H        -5.7061  -26.3995    1.1132  H     
43   H        -5.6497  -24.6515    1.2475  H     
44   H        -7.0594  -24.6835    3.2605  H     
45   H        -5.6743  -25.7606    3.4750  H     
46   H        -7.0215  -27.6331    2.9825  H     
47   H        -7.7687  -26.7451    4.1826  H     
48   H        -9.2670  -27.6902    2.5692  H     
49   H        -9.3760  -25.9275    2.7373  H     
50   H        -9.3919  -26.5240    0.3714  H     
51   H        -7.9563  -27.5267    0.5471  H     
52   H       -10.9541  -21.9566   -0.4633  H     
53   H        -9.2260  -21.8309   -0.3947  H     
54   H        -8.9860  -22.3480    4.3308  H     
55   H       -10.7635  -23.8663    4.9170  H     
56   H       -12.2035  -24.7756    3.1909  H     
@<TRIPOS>BOND
     1    5   10 1
     2    1    2 2
     3    7   16 1
     4    8    4 2
     5   16   17 1
     6    5    6 1
     7   16   18 2
     8   17   19 1
     9    7    8 1
    10    9    5 1
    11    4    1 1
    12    8    9 1
    13   10   11 2
    14   17   23 1
    15   19   20 1
    16   20   21 1
    17   21   22 1
    18   22   23 1
    19    6   24 1
    20   24   25 1
    21   11   12 1
    22    2    3 1
    23   25   26 2
    24   12   13 2
    25   26   27 1
    26    6    7 2
    27   27   28 2
    28   13   14 1
    29   28   29 1
    30    3    9 2
    31   29   30 2
    32   30   25 1
    33   14   15 2
    34   30   31 1
    35   15   10 1
    36   26   32 1
    37    1   33 1
    38    2   34 1
    39    3   35 1
    40    4   36 1
    41   11   37 1
    42   12   38 1
    43   13   39 1
    44   14   40 1
    45   15   41 1
    46   19   42 1
    47   19   43 1
    48   20   44 1
    49   20   45 1
    50   21   46 1
    51   21   47 1
    52   22   48 1
    53   22   49 1
    54   23   50 1
    55   23   51 1
    56   24   52 1
    57   24   53 1
    58   27   54 1
    59   28   55 1
    60   29   56 1
@<TRIPOS>PROPERTY_DATA
  Total_Score	| 12.1549
  Crash		| -1.0274
  Polar		| 5.1374
  FragIndex	| 1
  FragRMSD	| 0.299

