@<TRIPOS>MOLECULE
BindingDB_50352912
 55 59 0 0 0
SMALL
NO_CHARGES


@<TRIPOS>ATOM
1    N        -8.6007  -27.1644   -3.5415  N     
2    C        -9.7664  -26.8464   -4.1555  C     
3    C       -10.5167  -25.7375   -3.7061  C     
4    C        -8.0936  -26.4621   -2.4971  C     
5    C        -8.8135  -25.3419   -2.0287  C     
6    C       -10.0239  -24.9948   -2.6071  C     
7    N       -10.5231  -23.9359   -1.9224  N     
8    C        -9.5797  -23.5500   -1.0117  C     
9    C        -8.5759  -24.4529   -1.0243  C     
10   C        -7.5064  -24.5443   -0.1893  C     
11   N        -7.3290  -25.5231    0.7229  N     
12   O        -6.6421  -23.6978   -0.3868  O     
13   C        -6.1498  -25.5868    1.5764  C     
14   C        -6.5516  -25.6883    3.0735  C     
15   N        -7.4944  -26.8081    3.2787  N     
16   C        -8.6803  -26.7576    2.4029  C     
17   C        -8.2676  -26.6270    0.9217  C     
18   C       -11.8233  -23.4760   -2.1146  C     
19   C       -12.9080  -24.3956   -2.2350  C     
20   C       -14.2143  -23.9597   -2.5538  C     
21   C       -14.4805  -22.5838   -2.7081  C     
22   C       -13.4385  -21.6537   -2.5360  C     
23   C       -12.1350  -22.0941   -2.2367  C     
24   C        -9.5721  -22.3693   -0.1231  C     
25   C        -9.9999  -22.6849    1.2711  C     
26   C       -11.3477  -22.9465    1.5882  C     
27   C       -11.7427  -23.2458    2.9041  C     
28   C       -10.7882  -23.2772    3.9348  C     
29   C        -9.4362  -23.0146    3.6426  C     
30   C        -9.0442  -22.7254    2.3258  C     
31   H       -10.0954  -27.4038   -4.9456  H     
32   H       -11.3979  -25.4766   -4.1652  H     
33   H        -7.2038  -26.7314   -2.0776  H     
34   H        -5.5756  -26.4795    1.3093  H     
35   H        -5.4797  -24.7282    1.4630  H     
36   H        -5.6643  -25.8570    3.6892  H     
37   H        -7.0200  -24.7540    3.3922  H     
38   H        -7.0163  -27.6901    3.0802  H     
39   H        -7.8260  -26.8083    4.2433  H     
40   H        -9.2402  -27.6843    2.5485  H     
41   H        -9.3215  -25.9237    2.6949  H     
42   H        -9.1888  -26.5455    0.3405  H     
43   H        -7.7770  -27.5560    0.6076  H     
44   H       -12.7381  -25.4049   -2.1340  H     
45   H       -14.9594  -24.6548   -2.6760  H     
46   H       -15.4251  -22.2617   -2.9331  H     
47   H       -13.6264  -20.6574   -2.6529  H     
48   H       -11.4053  -21.3995   -2.1239  H     
49   H        -8.5562  -21.9595   -0.1000  H     
50   H       -10.1304  -21.5438   -0.5468  H     
51   H       -12.0680  -22.9223    0.8628  H     
52   H       -12.7265  -23.4477    3.1201  H     
53   H       -11.0728  -23.4947    4.8956  H     
54   H        -8.7330  -23.0459    4.3944  H     
55   H        -8.0585  -22.5430    2.1423  H     
@<TRIPOS>BOND
     1    1    2 2
     2    1    4 1
     3    2    3 1
     4    3    6 2
     5    4    5 2
     6    5    6 1
     7    5    9 1
     8    6    7 1
     9    7    8 1
    10    7   18 1
    11    8    9 2
    12    8   24 1
    13    9   10 1
    14   10   11 am
    15   10   12 2
    16   11   13 1
    17   11   17 1
    18   13   14 1
    19   14   15 1
    20   15   16 1
    21   16   17 1
    22   18   19 2
    23   18   23 1
    24   19   20 1
    25   20   21 2
    26   21   22 1
    27   22   23 2
    28   24   25 1
    29   25   26 2
    30   25   30 1
    31   26   27 1
    32   27   28 2
    33   28   29 1
    34   29   30 2
    35    2   31 1
    36    3   32 1
    37    4   33 1
    38   13   34 1
    39   13   35 1
    40   14   36 1
    41   14   37 1
    42   15   38 1
    43   15   39 1
    44   16   40 1
    45   16   41 1
    46   17   42 1
    47   17   43 1
    48   19   44 1
    49   20   45 1
    50   21   46 1
    51   22   47 1
    52   23   48 1
    53   24   49 1
    54   24   50 1
    55   26   51 1
    56   27   52 1
    57   28   53 1
    58   29   54 1
    59   30   55 1
@<TRIPOS>PROPERTY_DATA
  Total_Score	| 11.7914
  Crash		| -1.2674
  Polar		| 5.5421
  FragIndex	| 1
  FragRMSD	| 0.426

