@<TRIPOS>MOLECULE
BindingDB_50329015
 63 67 0 0 0
SMALL
NO_CHARGES


@<TRIPOS>ATOM
1    C        -8.9429  -26.7864   -3.6947  C     
2    C       -10.1513  -26.3321   -4.2799  C     
3    C       -10.8358  -25.2514   -3.6851  C     
4    C        -8.4087  -26.1582   -2.5461  C     
5    N       -10.7034  -23.5249   -1.8985  N     
6    C        -9.8306  -23.2959   -0.8953  C     
7    C        -8.8520  -24.2266   -0.9304  C     
8    C        -9.1021  -25.0548   -1.9970  C     
9    C       -10.2847  -24.6090   -2.5738  C     
10   C       -11.7412  -22.7335   -2.3152  C     
11   C       -11.5045  -21.7039   -3.2577  C     
12   C       -12.5683  -20.9318   -3.7556  C     
13   C       -13.8823  -21.1722   -3.3142  C     
14   C       -14.1300  -22.2048   -2.3895  C     
15   C       -13.0692  -22.9866   -1.9000  C     
16   C        -7.7510  -24.3172   -0.1272  C     
17   N        -7.6876  -25.0004    1.0415  N     
18   O        -6.7593  -23.7490   -0.5810  O     
19   C        -6.3990  -25.1384    1.7121  C     
20   C        -6.4572  -25.7318    3.1425  C     
21   N        -7.3271  -26.9189    3.2280  N     
22   C        -8.5459  -26.9225    2.3786  C     
23   C        -8.8574  -25.5745    1.6855  C     
24   C        -9.9485  -22.2074    0.0791  C     
25   C       -10.1791  -22.6701    1.4845  C     
26   C       -11.2597  -23.5586    1.7151  C     
27   C       -11.5656  -24.0238    2.9999  C     
28   C       -10.7815  -23.6241    4.0905  C     
29   C        -9.7046  -22.7347    3.8934  C     
30   C        -9.4120  -22.2139    2.6015  C     
31   O       -10.6242  -27.0120   -5.3739  O     
32   C       -11.3082  -26.2552   -6.3959  C     
33   C        -8.3543  -21.1828    2.4479  C     
34   F        -9.0009  -22.4027    4.9549  F     
35   H        -8.4407  -27.5774   -4.1147  H     
36   H       -11.7177  -24.9214   -4.0563  H     
37   H        -7.5374  -26.4950   -2.1371  H     
38   H       -10.5532  -21.5313   -3.6002  H     
39   H       -12.3897  -20.2023   -4.4477  H     
40   H       -14.6538  -20.6165   -3.6814  H     
41   H       -15.0877  -22.3903   -2.0841  H     
42   H       -13.2660  -23.7478   -1.2476  H     
43   H        -5.9166  -24.1586    1.8023  H     
44   H        -5.7511  -25.7784    1.0976  H     
45   H        -6.8456  -24.9708    3.8232  H     
46   H        -5.4546  -26.0085    3.4787  H     
47   H        -7.6246  -27.0224    4.2038  H     
48   H        -6.7935  -27.7466    2.9609  H     
49   H        -9.3808  -27.2217    3.0186  H     
50   H        -8.4226  -27.6951    1.6093  H     
51   H        -9.2099  -24.8857    2.4483  H     
52   H        -9.6783  -25.7539    0.9920  H     
53   H        -9.0518  -21.5989   -0.0263  H     
54   H       -10.7815  -21.5532   -0.1862  H     
55   H       -11.8422  -23.8763    0.9415  H     
56   H       -12.3486  -24.6580    3.1422  H     
57   H       -11.0009  -23.9747    5.0288  H     
58   H       -11.5872  -26.9385   -7.1768  H     
59   H       -10.6644  -25.4704   -6.8113  H     
60   H       -12.2312  -25.8071   -6.0163  H     
61   H        -7.5581  -21.5771    1.8173  H     
62   H        -8.7862  -20.2945    1.9832  H     
63   H        -7.9167  -20.8659    3.3942  H     
@<TRIPOS>BOND
     1    7   16 1
     2    8    4 2
     3   16   17 1
     4    5    6 1
     5   16   18 2
     6   17   19 1
     7    7    8 1
     8    9    5 1
     9    4    1 1
    10    8    9 1
    11   10   11 2
    12   17   23 1
    13   19   20 1
    14   20   21 1
    15   21   22 1
    16   22   23 1
    17    6   24 1
    18   24   25 1
    19   11   12 1
    20    2    3 1
    21   25   26 2
    22   12   13 2
    23   26   27 1
    24    6    7 2
    25   27   28 2
    26   13   14 1
    27   28   29 1
    28    3    9 2
    29   29   30 2
    30   30   25 1
    31   14   15 2
    32    2   31 1
    33   15   10 1
    34   31   32 1
    35    5   10 1
    36   30   33 1
    37    1    2 2
    38   29   34 1
    39    1   35 1
    40    3   36 1
    41    4   37 1
    42   11   38 1
    43   12   39 1
    44   13   40 1
    45   14   41 1
    46   15   42 1
    47   19   43 1
    48   19   44 1
    49   20   45 1
    50   20   46 1
    51   21   47 1
    52   21   48 1
    53   22   49 1
    54   22   50 1
    55   23   51 1
    56   23   52 1
    57   24   53 1
    58   24   54 1
    59   26   55 1
    60   27   56 1
    61   28   57 1
    62   32   58 1
    63   32   59 1
    64   32   60 1
    65   33   61 1
    66   33   62 1
    67   33   63 1
@<TRIPOS>PROPERTY_DATA
  Total_Score	| 10.7235
  Crash		| -2.3092
  Polar		| 4.6754
  FragIndex	| 1
  FragRMSD	| 0.666

