@<TRIPOS>MOLECULE
BindingDB_50329017
 60 64 0 0 0
SMALL
NO_CHARGES


@<TRIPOS>ATOM
1    C        -8.7307  -27.3654   -3.5048  C     
2    C        -9.9139  -27.0014   -4.1870  C     
3    C       -10.6302  -25.8486   -3.8043  C     
4    C        -8.2596  -26.5701   -2.4399  C     
5    N       -10.6177  -23.9334   -2.1561  N     
6    C        -9.7859  -23.5956   -1.1472  C     
7    C        -8.7757  -24.4854   -1.0891  C     
8    C        -8.9811  -25.4176   -2.0689  C     
9    C       -10.1534  -25.0639   -2.7314  C     
10   C       -11.7442  -23.2710   -2.5719  C     
11   C       -11.6787  -21.9066   -2.9417  C     
12   C       -12.8350  -21.2245   -3.3649  C     
13   C       -14.0665  -21.9021   -3.4314  C     
14   C       -14.1403  -23.2626   -3.0762  C     
15   C       -12.9865  -23.9436   -2.6460  C     
16   C        -7.7394  -24.5046   -0.2055  C     
17   N        -7.5680  -25.4122    0.7794  N     
18   O        -6.9039  -23.6277   -0.4023  O     
19   C        -6.4392  -25.2759    1.6944  C     
20   C        -6.2856  -26.4215    2.7303  C     
21   N        -7.5762  -26.7827    3.3582  N     
22   C        -8.7655  -26.7709    2.4798  C     
23   C        -8.4570  -26.5464    0.9816  C     
24   C        -9.9683  -22.4681   -0.2213  C     
25   C       -10.1391  -22.8576    1.2178  C     
26   C       -11.1654  -23.7888    1.5201  C     
27   C       -11.4286  -24.1855    2.8380  C     
28   C       -10.6769  -23.6473    3.8914  C     
29   C        -9.6544  -22.7236    3.6275  C     
30   C        -9.3803  -22.2995    2.2973  C     
31   C        -8.3337  -21.2607    2.0681  C     
32   O        -8.0333  -28.4772   -3.8510  O     
33   F        -8.9824  -22.2729    4.6588  F     
34   H       -10.2573  -27.5767   -4.9602  H     
35   H       -11.4856  -25.5911   -4.2996  H     
36   H        -7.4047  -26.8289   -1.9429  H     
37   H       -10.7868  -21.4045   -2.9049  H     
38   H       -12.7797  -20.2371   -3.6293  H     
39   H       -14.9066  -21.4077   -3.7417  H     
40   H       -15.0330  -23.7567   -3.1337  H     
41   H       -13.0553  -24.9313   -2.3842  H     
42   H        -5.5039  -25.2226    1.1273  H     
43   H        -6.5561  -24.3369    2.2447  H     
44   H        -5.8844  -27.3073    2.2294  H     
45   H        -5.5777  -26.1276    3.5130  H     
46   H        -7.7523  -26.1345    4.1323  H     
47   H        -7.5113  -27.7300    3.7344  H     
48   H        -9.2823  -27.7237    2.5992  H     
49   H        -9.4288  -25.9832    2.8300  H     
50   H        -7.9594  -27.4382    0.5967  H     
51   H        -9.4104  -26.4597    0.4605  H     
52   H       -10.8527  -21.8855   -0.4853  H     
53   H        -9.1182  -21.8024   -0.3737  H     
54   H       -11.7373  -24.1921    0.7733  H     
55   H       -12.1628  -24.8716    3.0284  H     
56   H       -10.8740  -23.9407    4.8523  H     
57   H        -7.9161  -20.8540    2.9928  H     
58   H        -7.5137  -21.6876    1.4932  H     
59   H        -8.7600  -20.4197    1.5199  H     
60   H        -8.2235  -28.6378   -4.7986  H     
@<TRIPOS>BOND
     1    1    2 2
     2    7   16 1
     3    8    4 2
     4   16   17 1
     5    5    6 1
     6   16   18 2
     7   17   19 1
     8    7    8 1
     9    9    5 1
    10    4    1 1
    11    8    9 1
    12   10   11 2
    13   17   23 1
    14   19   20 1
    15   20   21 1
    16   21   22 1
    17   22   23 1
    18    6   24 1
    19   24   25 1
    20   11   12 1
    21    2    3 1
    22   25   26 2
    23   12   13 2
    24   26   27 1
    25    6    7 2
    26   27   28 2
    27   13   14 1
    28   28   29 1
    29    3    9 2
    30   29   30 2
    31   30   25 1
    32   14   15 2
    33   30   31 1
    34   15   10 1
    35    1   32 1
    36    5   10 1
    37   29   33 1
    38    2   34 1
    39    3   35 1
    40    4   36 1
    41   11   37 1
    42   12   38 1
    43   13   39 1
    44   14   40 1
    45   15   41 1
    46   19   42 1
    47   19   43 1
    48   20   44 1
    49   20   45 1
    50   21   46 1
    51   21   47 1
    52   22   48 1
    53   22   49 1
    54   23   50 1
    55   23   51 1
    56   24   52 1
    57   24   53 1
    58   26   54 1
    59   27   55 1
    60   28   56 1
    61   31   57 1
    62   31   58 1
    63   31   59 1
    64   32   60 1
@<TRIPOS>PROPERTY_DATA
  Total_Score	| 12.5768
  Crash		| -1.1378
  Polar		| 5.5877
  FragIndex	| 1
  FragRMSD	| 0.341

