@<TRIPOS>MOLECULE
BindingDB_10873
 29 30 0 0 0
SMALL
NO_CHARGES


@<TRIPOS>ATOM
1    C        -4.2280    4.0235   13.9430  C     
2    C        -5.4330    4.3262   14.6137  C     
3    C        -5.9588    3.4537   15.5791  C     
4    C        -5.3013    2.2456   15.8830  C     
5    C        -4.0642    1.9548   15.2561  C     
6    C        -3.5452    2.8280   14.2883  C     
7    N        -3.8633    4.8252   12.9137  N     
8    C        -2.8000    4.7038   12.0806  C     
9    C        -0.5421    4.1400   11.6062  C     
10   C        -3.0009    5.0560   10.7321  C     
11   C        -1.9467    4.8532    9.8319  C     
12   N        -1.5592    4.2799   12.4953  N     
13   N        -0.7451    4.4065   10.2857  N     
14   N         0.6952    3.7877   12.0083  N     
15   S        -6.0157    1.0951   16.9690  S     
16   O        -5.9462   -0.3054   16.2230  O     
17   O        -5.1862    0.9179   18.3210  O     
18   N        -7.6526    1.3154   17.2503  N     
19   H        -5.9621    5.1663   14.3612  H     
20   H        -6.8514    3.6926   16.0189  H     
21   H        -3.5611    1.0780   15.4627  H     
22   H        -2.6904    2.5555   13.7996  H     
23   H        -4.4800    5.5550   12.7044  H     
24   H        -3.9218    5.3688   10.3919  H     
25   H        -2.0589    5.0758    8.8453  H     
26   H         1.3892    3.6899   11.3521  H     
27   H         0.8781    3.6165   12.9394  H     
28   H        -8.2464    0.5607   17.1189  H     
29   H        -8.0146    2.2163   17.2252  H     
@<TRIPOS>BOND
     1    1    2 1
     2    1    6 2
     3    1    7 1
     4    2    3 2
     5    3    4 1
     6    4    5 2
     7    4   15 1
     8    5    6 1
     9    7    8 1
    10    8   10 2
    11    8   12 1
    12    9   12 2
    13    9   13 1
    14    9   14 1
    15   10   11 1
    16   11   13 2
    17   15   16 2
    18   15   17 2
    19   15   18 am
    20    2   19 1
    21    3   20 1
    22    5   21 1
    23    6   22 1
    24    7   23 1
    25   10   24 1
    26   11   25 1
    27   14   26 1
    28   14   27 1
    29   18   28 1
    30   18   29 1
@<TRIPOS>PROPERTY_DATA
  Total_Score	| 3.1008
  Crash		| -0.6456
  Polar		| 3.5225
  FragIndex	| 1
  FragRMSD	| 1.315

