@<TRIPOS>MOLECULE
BindingDB_50329761
 35 36 0 0 0
SMALL
NO_CHARGES


@<TRIPOS>ATOM
1    C        -6.1952    2.3555   15.9222  C     
2    C        -5.3455    1.9241   14.8834  C     
3    C        -4.9206    2.8334   13.8980  C     
4    C        -5.3244    4.1897   13.9395  C     
5    C        -6.1490    4.6259   15.0027  C     
6    C        -6.5875    3.7125   15.9795  C     
7    S        -6.7539    1.2222   17.1111  S     
8    O        -8.3280    1.3277   17.2892  O     
9    O        -6.3786   -0.2492   16.6387  O     
10   N        -5.9659    1.5553   18.5548  N     
11   C        -4.8876    5.1181   12.8647  C     
12   N        -3.5061    5.4559   12.9703  N     
13   C        -1.5526    2.9004   11.2930  C     
14   N        -2.6063    3.5781   11.8344  N     
15   C        -2.4413    4.7865   12.4484  C     
16   C        -1.1379    5.3490   12.5397  C     
17   C        -0.0762    4.6428   11.9233  C     
18   N        -0.3097    3.4457   11.3380  N     
19   S        -1.6866    1.3342   10.5390  S     
20   C        -2.8695    0.5439   11.6486  C     
21   C        -0.9077    6.4706   13.1778  C     
22   N        -0.7084    7.4586   13.7355  N     
23   Cl        1.5200    5.2033   11.8400  Cl    
24   H        -5.0331    0.9514   14.8131  H     
25   H        -4.3222    2.4859   13.1359  H     
26   H        -6.4327    5.6053   15.0605  H     
27   H        -7.1947    4.0505   16.7332  H     
28   H        -5.5845    0.8267   19.0731  H     
29   H        -5.6891    2.4687   18.7477  H     
30   H        -5.1128    4.6923   11.8820  H     
31   H        -5.4382    6.0537   12.9280  H     
32   H        -3.3147    6.3102   13.3912  H     
33   H        -2.5584    0.6593   12.6892  H     
34   H        -2.9131   -0.5193   11.4103  H     
35   H        -3.8566    0.9845   11.5010  H     
@<TRIPOS>BOND
     1    1    2 1
     2    1    6 2
     3    1    7 1
     4    2    3 2
     5    3    4 1
     6    4    5 2
     7    4   11 1
     8    5    6 1
     9    7    8 2
    10    7    9 2
    11    7   10 am
    12   11   12 1
    13   12   15 1
    14   13   14 1
    15   13   18 2
    16   13   19 1
    17   14   15 2
    18   15   16 1
    19   16   17 2
    20   16   21 1
    21   17   18 1
    22   17   23 1
    23   19   20 1
    24   21   22 3
    25    2   24 1
    26    3   25 1
    27    5   26 1
    28    6   27 1
    29   10   28 1
    30   10   29 1
    31   11   30 1
    32   11   31 1
    33   12   32 1
    34   20   33 1
    35   20   34 1
    36   20   35 1
@<TRIPOS>PROPERTY_DATA
  Total_Score	| 3.7077
  Crash		| -1.4253
  Polar		| 1.9985
  FragIndex	| 1
  FragRMSD	| 1.346

