@<TRIPOS>MOLECULE
BindingDB_50329766
 44 46 0 0 0
SMALL
NO_CHARGES


@<TRIPOS>ATOM
1    C        -3.6581    3.9830   14.5819  C     
2    C        -5.0414    4.2434   14.5103  C     
3    C        -5.9459    3.4503   15.2302  C     
4    C        -5.4794    2.4102   16.0622  C     
5    C        -4.0923    2.1854   16.1766  C     
6    C        -3.1895    2.9815   15.4614  C     
7    S        -6.5851    1.4072   16.9467  S     
8    O        -8.0934    1.9130   16.9722  O     
9    O        -6.6385   -0.0075   16.2266  O     
10   N        -6.0598    1.0442   18.4967  N     
11   N        -2.8189    4.8004   13.8748  N     
12   N        -0.2935    3.5484   10.9162  N     
13   C        -1.2238    2.7258   11.4270  C     
14   N        -2.0231    3.1827   12.4121  N     
15   C        -1.9208    4.4410   12.9238  C     
16   C        -0.9533    5.3462   12.3976  C     
17   C        -0.1157    4.8261   11.3477  C     
18   N         0.8979    5.5267   10.7585  N     
19   C         2.2482    5.0717   10.5615  C     
20   C         3.0905    5.6850   11.6208  C     
21   C         3.3996    4.9719   12.8046  C     
22   C         4.0707    5.6020   13.8713  C     
23   C         4.4340    6.9594   13.7704  C     
24   C         4.1439    7.6761   12.5993  C     
25   C         3.4724    7.0485   11.5331  C     
26   N        -0.7462    6.5938   12.9535  N     
27   O         0.0673    7.3806   12.5544  O     
28   O        -1.3483    7.0261   14.0363  O     
29   H        -5.4030    4.9860   13.9025  H     
30   H        -6.9488    3.6260   15.1459  H     
31   H        -3.7231    1.4471   16.7860  H     
32   H        -2.1845    2.8340   15.5798  H     
33   H        -6.2160    1.6768   19.2218  H     
34   H        -5.7071    0.1601   18.6897  H     
35   H        -2.8977    5.7460   14.0706  H     
36   H        -1.3244    1.7740   11.0649  H     
37   H         0.7688    6.4761   10.6374  H     
38   H         2.3605    3.9920   10.5733  H     
39   H         2.5631    5.4099    9.5736  H     
40   H         3.1045    3.9970   12.9166  H     
41   H         4.2868    5.0802   14.7291  H     
42   H         4.9058    7.4309   14.5471  H     
43   H         4.4029    8.6636   12.5224  H     
44   H         3.2272    7.6003   10.7077  H     
@<TRIPOS>BOND
     1    1    2 2
     2    1    6 1
     3    1   11 1
     4    2    3 1
     5    3    4 2
     6    4    5 1
     7    4    7 1
     8    5    6 2
     9    7    8 2
    10    7    9 2
    11    7   10 am
    12   11   15 1
    13   12   13 2
    14   12   17 1
    15   13   14 1
    16   14   15 2
    17   15   16 1
    18   16   17 2
    19   16   26 am
    20   17   18 1
    21   18   19 1
    22   19   20 1
    23   20   21 2
    24   20   25 1
    25   21   22 1
    26   22   23 2
    27   23   24 1
    28   24   25 2
    29   26   27 2
    30   26   28 1
    31    2   29 1
    32    3   30 1
    33    5   31 1
    34    6   32 1
    35   10   33 1
    36   10   34 1
    37   11   35 1
    38   13   36 1
    39   18   37 1
    40   19   38 1
    41   19   39 1
    42   21   40 1
    43   22   41 1
    44   23   42 1
    45   24   43 1
    46   25   44 1
@<TRIPOS>PROPERTY_DATA
  Total_Score	| 5.5543
  Crash		| -1.1047
  Polar		| 2.2155
  FragIndex	| 1
  FragRMSD	| 0.999

