@<TRIPOS>MOLECULE
BindingDB_50329759
 29 30 0 0 0
SMALL
NO_CHARGES


@<TRIPOS>ATOM
1    N        -0.3581    4.4412   11.0795  N     
2    C         0.0007    4.8279   12.3221  C     
3    N        -0.9566    4.9709   13.2621  N     
4    C        -2.2646    4.7201   13.0160  C     
5    C        -2.6941    4.3540   11.7036  C     
6    C        -1.6480    4.2060   10.7423  C     
7    N        -3.0067    4.7798   14.1464  N     
8    C        -3.8780    3.8223   14.5584  C     
9    C        -5.1909    4.1894   14.9153  C     
10   C        -6.0076    3.3049   15.6455  C     
11   C        -5.5077    2.0527   16.0650  C     
12   C        -4.2103    1.6639   15.6705  C     
13   C        -3.4024    2.5417   14.9252  C     
14   S        -6.4536    1.0717   17.1525  S     
15   O        -6.3737    1.7360   18.5952  O     
16   O        -7.9689    1.1335   16.6682  O     
17   N        -5.9948   -0.5389   17.3060  N     
18   N        -4.0220    4.2552   11.3780  N     
19   O        -4.4605    3.7648   10.2505  O     
20   O        -4.8879    4.7613   12.0441  O     
21   Cl       -1.8369    3.8684    9.0958  Cl    
22   H         0.9773    5.0055   12.5502  H     
23   H        -2.5902    5.2583   14.8816  H     
24   H        -5.5401    5.1254   14.6869  H     
25   H        -6.9470    3.6119   15.9195  H     
26   H        -3.8205    0.7661   15.9671  H     
27   H        -2.4359    2.2716   14.7195  H     
28   H        -6.4988   -1.1052   17.9107  H     
29   H        -5.0995   -0.8140   17.0638  H     
@<TRIPOS>BOND
     1    1    2 2
     2    1    6 1
     3    2    3 1
     4    3    4 2
     5    4    5 1
     6    4    7 1
     7    5    6 2
     8    5   18 am
     9    6   21 1
    10    7    8 1
    11    8    9 2
    12    8   13 1
    13    9   10 1
    14   10   11 2
    15   11   12 1
    16   11   14 1
    17   12   13 2
    18   14   15 2
    19   14   16 2
    20   14   17 am
    21   18   19 1
    22   18   20 2
    23    2   22 1
    24    7   23 1
    25    9   24 1
    26   10   25 1
    27   12   26 1
    28   13   27 1
    29   17   28 1
    30   17   29 1
@<TRIPOS>PROPERTY_DATA
  Total_Score	| 3.1080
  Crash		| -0.8366
  Polar		| 2.3444
  FragIndex	| 1
  FragRMSD	| 1.266

