@<TRIPOS>MOLECULE
BindingDB_50329763
 33 34 0 0 0
SMALL
NO_CHARGES


@<TRIPOS>ATOM
1    N        -0.7651    3.8750   10.5620  N     
2    C        -1.4322    2.9543   11.2900  C     
3    N        -2.2238    3.3910   12.2945  N     
4    C        -2.3874    4.7034   12.6181  C     
5    C        -1.6870    5.6912   11.8616  C     
6    C        -0.8647    5.2049   10.8034  C     
7    N        -3.2680    5.0119   13.6107  N     
8    C        -3.9028    4.1359   14.4421  C     
9    C        -5.2853    4.2890   14.6780  C     
10   C        -5.9767    3.3706   15.4922  C     
11   C        -5.2843    2.3045   16.1038  C     
12   C        -3.8951    2.1735   15.9043  C     
13   C        -3.2094    3.0899   15.0917  C     
14   S        -6.1254    1.1013   17.0342  S     
15   O        -6.4721   -0.1478   16.1195  O     
16   O        -5.1359    0.5354   18.1410  O     
17   N        -7.5205    1.5592   17.8401  N     
18   C        -1.7566    7.0609   12.1356  C     
19   O        -1.6576    7.5390   13.2554  O     
20   Cl        0.0759    6.1684    9.7711  Cl    
21   S        -1.2248    1.2706   10.8994  S     
22   C        -2.6964    0.5534   11.6642  C     
23   H        -3.5380    5.9383   13.6887  H     
24   H        -5.8037    5.0459   14.2251  H     
25   H        -6.9867    3.4757   15.6183  H     
26   H        -3.3726    1.4064   16.3359  H     
27   H        -2.1996    2.9859   14.9703  H     
28   H        -7.6194    1.3077   18.7716  H     
29   H        -8.3059    1.8009   17.3256  H     
30   H        -1.8121    7.7192   11.3978  H     
31   H        -2.6646    0.6926   12.7456  H     
32   H        -2.7200   -0.5146   11.4469  H     
33   H        -3.5953    1.0185   11.2578  H     
@<TRIPOS>BOND
     1    1    2 2
     2    1    6 1
     3    2    3 1
     4    2   21 1
     5    3    4 2
     6    4    5 1
     7    4    7 1
     8    5    6 2
     9    5   18 1
    10    6   20 1
    11    7    8 1
    12    8    9 2
    13    8   13 1
    14    9   10 1
    15   10   11 2
    16   11   12 1
    17   11   14 1
    18   12   13 2
    19   14   15 2
    20   14   16 2
    21   14   17 am
    22   18   19 2
    23   21   22 1
    24    7   23 1
    25    9   24 1
    26   10   25 1
    27   12   26 1
    28   13   27 1
    29   17   28 1
    30   17   29 1
    31   18   30 1
    32   22   31 1
    33   22   32 1
    34   22   33 1
@<TRIPOS>PROPERTY_DATA
  Total_Score	| 3.2960
  Crash		| -1.3631
  Polar		| 2.7120
  FragIndex	| 1
  FragRMSD	| 0.849

