@<TRIPOS>MOLECULE
BindingDB_50329760
 32 33 0 0 0
SMALL
NO_CHARGES


@<TRIPOS>ATOM
1    C        -5.2910    2.2728   16.1194  C     
2    C        -6.0201    3.2287   15.3771  C     
3    C        -5.3469    4.1616   14.5668  C     
4    C        -3.9385    4.1188   14.4537  C     
5    C        -3.2165    3.1929   15.2322  C     
6    C        -3.8846    2.2595   16.0415  C     
7    S        -6.1003    1.0539   17.0499  S     
8    O        -6.3802   -0.2366   16.1729  O     
9    O        -5.1044    0.5957   18.2000  O     
10   N        -7.5228    1.5183   17.8085  N     
11   N        -3.2933    4.9863   13.6278  N     
12   C        -1.4711    2.9104   11.2713  C     
13   N        -2.2832    3.3291   12.2728  N     
14   C        -2.4506    4.6398   12.6135  C     
15   C        -1.7510    5.6151   11.8600  C     
16   C        -0.8896    5.1686   10.8270  C     
17   N        -0.7812    3.8428   10.5774  N     
18   S        -1.2385    1.2397   10.8471  S     
19   C        -2.7048    0.4761   11.5755  C     
20   C        -1.8815    6.8899   12.1284  C     
21   N        -2.0005    8.0105   12.3657  N     
22   Cl        0.0515    6.1982    9.8672  Cl    
23   H        -7.0416    3.2381   15.4048  H     
24   H        -5.8893    4.8392   14.0203  H     
25   H        -2.1912    3.1838   15.2079  H     
26   H        -3.3420    1.5668   16.5613  H     
27   H        -7.6773    1.2585   18.7346  H     
28   H        -8.1930    2.0292   17.3160  H     
29   H        -3.5060    5.9272   13.7318  H     
30   H        -2.6645    0.5632   12.6622  H     
31   H        -2.7194   -0.5777   11.3040  H     
32   H        -3.6094    0.9539   11.1967  H     
@<TRIPOS>BOND
     1    1    2 1
     2    1    6 2
     3    1    7 1
     4    2    3 2
     5    3    4 1
     6    4    5 2
     7    4   11 1
     8    5    6 1
     9    7    8 2
    10    7    9 2
    11    7   10 am
    12   11   14 1
    13   12   13 1
    14   12   17 2
    15   12   18 1
    16   13   14 2
    17   14   15 1
    18   15   16 2
    19   15   20 1
    20   16   17 1
    21   16   22 1
    22   18   19 1
    23   20   21 3
    24    2   23 1
    25    3   24 1
    26    5   25 1
    27    6   26 1
    28   10   27 1
    29   10   28 1
    30   11   29 1
    31   19   30 1
    32   19   31 1
    33   19   32 1
@<TRIPOS>PROPERTY_DATA
  Total_Score	| 3.7788
  Crash		| -1.3485
  Polar		| 2.5832
  FragIndex	| 1
  FragRMSD	| 0.896

