@<TRIPOS>MOLECULE
BindingDB_50329769
 47 49 0 0 0
SMALL
NO_CHARGES


@<TRIPOS>ATOM
1    C        -3.6245    4.0644   14.6463  C     
2    C        -3.1475    3.0654   15.5296  C     
3    C        -4.0366    2.2582   16.2556  C     
4    C        -5.4274    2.4039   16.0898  C     
5    C        -5.9170    3.4098   15.2301  C     
6    C        -5.0213    4.2298   14.5082  C     
7    S        -6.5056    1.3652   16.9618  S     
8    O        -8.0294    1.8340   16.8811  O     
9    O        -6.5074   -0.0744   16.2842  O     
10   N        -6.0803    1.1588   18.5739  N     
11   N        -2.7994    4.8354   13.9019  N     
12   N        -0.4132    3.4589   10.8756  N     
13   C        -1.3356    2.6472   11.4340  C     
14   N        -2.1069    3.1327   12.4412  N     
15   C        -1.9917    4.4145   12.8825  C     
16   C        -1.0280    5.2727   12.2932  C     
17   C        -0.1979    4.7470   11.2638  C     
18   N         0.7919    5.4752   10.6903  N     
19   C         2.1677    5.0997   10.5852  C     
20   C         2.9530    5.7726   11.6528  C     
21   C         3.3316    5.0318   12.7955  C     
22   C         4.0433    5.6533   13.8441  C     
23   C         4.3931    7.0142   13.7587  C     
24   C         4.0274    7.7533   12.6166  C     
25   C         3.3171    7.1390   11.5624  C     
26   S        -1.4407    1.0047   10.8492  S     
27   C        -2.9087    0.4173   11.7225  C     
28   C        -0.8754    6.5080   12.7099  C     
29   N        -0.6908    7.5700   13.1196  N     
30   H        -2.1379    2.9510   15.6631  H     
31   H        -3.6526    1.5567   16.8977  H     
32   H        -6.9241    3.5424   15.1292  H     
33   H        -5.4032    4.9456   13.8860  H     
34   H        -6.4662    1.7509   19.2489  H     
35   H        -5.5336    0.3964   18.8413  H     
36   H        -2.8440    5.7824   14.0838  H     
37   H         0.5895    6.3970   10.4715  H     
38   H         2.3152    4.0154   10.6478  H     
39   H         2.5084    5.3963    9.5880  H     
40   H         3.0742    4.0438   12.8732  H     
41   H         4.2889    5.1220   14.6883  H     
42   H         4.9088    7.4634   14.5185  H     
43   H         4.2633    8.7451   12.5541  H     
44   H         3.0422    7.7006   10.7432  H     
45   H        -2.7572    0.4648   12.8056  H     
46   H        -3.0856   -0.6125   11.4393  H     
47   H        -3.7780    1.0203   11.4513  H     
@<TRIPOS>BOND
     1    1    2 2
     2    1    6 1
     3    1   11 1
     4    2    3 1
     5    3    4 2
     6    4    5 1
     7    4    7 1
     8    5    6 2
     9    7    8 2
    10    7    9 2
    11    7   10 am
    12   11   15 1
    13   12   13 2
    14   12   17 1
    15   13   14 1
    16   13   26 1
    17   14   15 2
    18   15   16 1
    19   16   17 2
    20   16   28 1
    21   17   18 1
    22   18   19 1
    23   19   20 1
    24   20   21 2
    25   20   25 1
    26   21   22 1
    27   22   23 2
    28   23   24 1
    29   24   25 2
    30   26   27 1
    31   28   29 3
    32    2   30 1
    33    3   31 1
    34    5   32 1
    35    6   33 1
    36   10   34 1
    37   10   35 1
    38   11   36 1
    39   18   37 1
    40   19   38 1
    41   19   39 1
    42   21   40 1
    43   22   41 1
    44   23   42 1
    45   24   43 1
    46   25   44 1
    47   27   45 1
    48   27   46 1
    49   27   47 1
@<TRIPOS>PROPERTY_DATA
  Total_Score	| 6.0998
  Crash		| -1.3436
  Polar		| 2.2441
  FragIndex	| 1
  FragRMSD	| 0.943

