@<TRIPOS>MOLECULE
BindingDB_50329764
 36 37 0 0 0
SMALL
NO_CHARGES


@<TRIPOS>ATOM
1    N        -0.5412    3.5023   11.0545  N     
2    C        -1.8272    3.1133   11.1809  C     
3    N        -2.6987    3.9260   11.8147  N     
4    C        -2.3375    5.1185   12.3468  C     
5    C        -0.9785    5.5523   12.2546  C     
6    C        -0.0954    4.6789   11.5555  C     
7    N        -3.3080    5.8621   12.9291  N     
8    C        -4.8623    4.3690   14.1504  C     
9    C        -6.1812    4.1229   14.5981  C     
10   C        -6.4632    3.0796   15.4929  C     
11   C        -5.4386    2.2345   15.9531  C     
12   C        -4.1129    2.4743   15.5297  C     
13   C        -3.8276    3.5433   14.6454  C     
14   S        -5.8636    0.8932   16.9736  S     
15   O        -5.7080   -0.4958   16.2143  O     
16   O        -4.8432    0.8475   18.1977  O     
17   N        -7.3764    0.9810   17.6843  N     
18   C        -0.4995    6.7255   12.8479  C     
19   O        -0.8739    7.1589   13.9246  O     
20   Cl        1.5631    4.9385   11.3205  Cl    
21   S        -2.3778    1.6222   10.4956  S     
22   C        -1.9473    0.5701   11.8925  C     
23   C        -4.6590    5.4568   13.1530  C     
24   H        -3.0861    6.7651   13.2080  H     
25   H        -6.9529    4.6996   14.2601  H     
26   H        -7.4276    2.9280   15.7850  H     
27   H        -3.3578    1.8592   15.8512  H     
28   H        -2.8593    3.6949   14.3479  H     
29   H        -7.4551    0.9314   18.6508  H     
30   H        -8.1604    1.1658   17.1368  H     
31   H         0.2323    7.2385   12.4211  H     
32   H        -0.8900    0.6817   12.1310  H     
33   H        -2.1442   -0.4693   11.6254  H     
34   H        -2.5520    0.8388   12.7590  H     
35   H        -5.2091    6.3417   13.4786  H     
36   H        -5.0770    5.1557   12.1886  H     
@<TRIPOS>BOND
     1    1    2 2
     2    1    6 1
     3    2    3 1
     4    2   21 1
     5    3    4 2
     6    4    5 1
     7    4    7 1
     8    5    6 2
     9    5   18 1
    10    6   20 1
    11    7   23 1
    12    8    9 2
    13    8   13 1
    14    8   23 1
    15    9   10 1
    16   10   11 2
    17   11   12 1
    18   11   14 1
    19   12   13 2
    20   14   15 2
    21   14   16 2
    22   14   17 am
    23   18   19 2
    24   21   22 1
    25    7   24 1
    26    9   25 1
    27   10   26 1
    28   12   27 1
    29   13   28 1
    30   17   29 1
    31   17   30 1
    32   18   31 1
    33   22   32 1
    34   22   33 1
    35   22   34 1
    36   23   35 1
    37   23   36 1
@<TRIPOS>PROPERTY_DATA
  Total_Score	| 3.4018
  Crash		| -1.8589
  Polar		| 2.4722
  FragIndex	| 1
  FragRMSD	| 1.239

