@<TRIPOS>MOLECULE
BindingDB_50329762
 38 39 0 0 0
SMALL
NO_CHARGES


@<TRIPOS>ATOM
1    C        -6.2277    2.2160   16.1032  C     
2    C        -6.5666    3.5376   16.4553  C     
3    C        -6.2940    4.5901   15.5649  C     
4    C        -5.7003    4.3275   14.3091  C     
5    C        -5.4605    2.9888   13.9258  C     
6    C        -5.7086    1.9405   14.8240  C     
7    S        -6.2469    0.9568   17.2928  S     
8    O        -6.6374   -0.4467   16.6617  O     
9    O        -4.7277    0.7286   17.6903  O     
10   N        -7.0506    1.2583   18.7328  N     
11   C        -3.6654    5.7416   14.1909  C     
12   N        -2.6662    6.0937   13.2391  N     
13   C        -2.0865    3.1228   11.2602  C     
14   N        -2.5756    3.9839   12.1836  N     
15   C        -2.1219    5.2630   12.3113  C     
16   C        -1.0922    5.7126   11.4464  C     
17   C        -0.5962    4.7972   10.4867  C     
18   N        -1.1119    3.5448   10.4185  N     
19   S        -2.8082    1.5517   11.1024  S     
20   C        -1.3070    0.5658   11.2436  C     
21   C        -0.6166    6.9289   11.5239  C     
22   N        -0.1991    7.9965   11.5927  N     
23   Cl        0.6158    5.1755    9.3636  Cl    
24   C        -5.0546    5.4253   13.5532  C     
25   H        -6.9253    3.7561   17.3883  H     
26   H        -6.4481    5.5539   15.8748  H     
27   H        -5.0133    2.7734   13.0317  H     
28   H        -5.4413    0.9883   14.5613  H     
29   H        -7.9823    1.0195   18.8195  H     
30   H        -6.6151    1.7770   19.4278  H     
31   H        -3.2753    4.9011   14.7758  H     
32   H        -3.7806    6.5815   14.8807  H     
33   H        -2.3095    6.9950   13.2928  H     
34   H        -0.6281    0.7875   10.4202  H     
35   H        -1.5725   -0.4908   11.2040  H     
36   H        -0.8121    0.7766   12.1922  H     
37   H        -4.9385    5.1469   12.5012  H     
38   H        -5.6882    6.3156   13.5665  H     
@<TRIPOS>BOND
     1    1    2 1
     2    1    6 2
     3    1    7 1
     4    2    3 2
     5    3    4 1
     6    4    5 2
     7    4   24 1
     8    5    6 1
     9    7    8 2
    10    7    9 2
    11    7   10 am
    12   11   12 1
    13   11   24 1
    14   12   15 1
    15   13   14 1
    16   13   18 2
    17   13   19 1
    18   14   15 2
    19   15   16 1
    20   16   17 2
    21   16   21 1
    22   17   18 1
    23   17   23 1
    24   19   20 1
    25   21   22 3
    26    2   25 1
    27    3   26 1
    28    5   27 1
    29    6   28 1
    30   10   29 1
    31   10   30 1
    32   11   31 1
    33   11   32 1
    34   12   33 1
    35   20   34 1
    36   20   35 1
    37   20   36 1
    38   24   37 1
    39   24   38 1
@<TRIPOS>PROPERTY_DATA
  Total_Score	| 3.8614
  Crash		| -2.2259
  Polar		| 2.5899
  FragIndex	| 1
  FragRMSD	| 1.222

