@<TRIPOS>MOLECULE
BindingDB_50329765
 39 40 0 0 0
SMALL
NO_CHARGES


@<TRIPOS>ATOM
1    C        -4.4192    4.6375   15.4023  C     
2    C        -5.7869    4.5101   15.7389  C     
3    C        -6.2821    3.2985   16.2622  C     
4    C        -5.4181    2.2026   16.4458  C     
5    C        -4.0612    2.3166   16.0869  C     
6    C        -3.5655    3.5203   15.5677  C     
7    S        -5.9758    0.7131   17.1423  S     
8    O        -5.8011   -0.4569   16.0794  O     
9    O        -5.0231    0.2711   18.3349  O     
10   N        -7.5598    0.6577   17.6774  N     
11   N        -0.3477    3.4742   10.8962  N     
12   C        -1.4587    2.7179   11.0709  C     
13   N        -2.5438    3.2609   11.6598  N     
14   C        -2.5724    4.5297   12.1252  C     
15   C        -1.4006    5.3295   12.0048  C     
16   C        -0.2855    4.7545   11.3351  C     
17   Cl        1.1781    5.5577   11.0151  Cl    
18   N        -3.7756    4.8738   12.6413  N     
19   S        -1.5033    1.1081   10.4307  S     
20   C        -2.8158    0.4268   11.4644  C     
21   C        -4.1495    6.0682   13.3304  C     
22   C        -3.8892    5.9144   14.8454  C     
23   C        -1.3528    6.6168   12.4838  C     
24   O        -1.4881    7.5751   11.7390  O     
25   H        -6.4242    5.3020   15.6167  H     
26   H        -7.2762    3.2310   16.4998  H     
27   H        -3.4214    1.5234   16.1964  H     
28   H        -2.5761    3.5790   15.3114  H     
29   H        -8.2523    0.3390   17.0852  H     
30   H        -7.7857    1.0365   18.5359  H     
31   H        -4.4601    4.1797   12.6031  H     
32   H        -2.5647    0.5485   12.5186  H     
33   H        -2.9070   -0.6353   11.2392  H     
34   H        -3.7646    0.9212   11.2516  H     
35   H        -3.5897    6.9279   12.9534  H     
36   H        -5.2179    6.2356   13.1558  H     
37   H        -4.3257    6.7510   15.3798  H     
38   H        -2.8061    5.9703   14.9967  H     
39   H        -0.9780    6.7827   13.3956  H     
@<TRIPOS>BOND
     1    1    2 2
     2    1    6 1
     3    1   22 1
     4    2    3 1
     5    3    4 2
     6    4    5 1
     7    4    7 1
     8    5    6 2
     9    7    8 2
    10    7    9 2
    11    7   10 am
    12   11   12 2
    13   11   16 1
    14   12   13 1
    15   12   19 1
    16   13   14 2
    17   14   15 1
    18   14   18 1
    19   15   16 2
    20   15   23 1
    21   16   17 1
    22   18   21 1
    23   19   20 1
    24   21   22 1
    25   23   24 2
    26    2   25 1
    27    3   26 1
    28    5   27 1
    29    6   28 1
    30   10   29 1
    31   10   30 1
    32   18   31 1
    33   20   32 1
    34   20   33 1
    35   20   34 1
    36   21   35 1
    37   21   36 1
    38   22   37 1
    39   22   38 1
    40   23   39 1
@<TRIPOS>PROPERTY_DATA
  Total_Score	| 1.4970
  Crash		| -3.0211
  Polar		| 1.8545
  FragIndex	| 1
  FragRMSD	| 1.230

