@<TRIPOS>MOLECULE
BindingDB_50341990
 89 92 0 0 0
SMALL
NO_CHARGES


@<TRIPOS>ATOM
1    O        14.1705   -2.3310    0.2468  O     
2    S        15.2178   -1.1365    0.2278  S     
3    O        14.6926    0.3159   -0.1508  O     
4    C        15.3058   -0.7064  -12.3235  C     
5    C        15.0989    0.4830  -11.6060  C     
6    C        16.1630    1.0818  -10.9034  C     
7    C        17.4433    0.4884  -10.9462  C     
8    C        17.6444   -0.7072  -11.6606  C     
9    C        16.5755   -1.3245  -12.3510  C     
10   C        16.7675   -2.6102  -13.0749  C     
11   C        16.6680   -3.7258  -12.1529  C     
12   O        15.6622   -4.4242  -12.1779  O     
13   N        17.6312   -3.9334  -11.2670  N     
14   C        17.6758   -4.9086  -10.2139  C     
15   C        18.0398   -4.2400   -8.9704  C     
16   N        17.5770   -4.6945   -7.8050  N     
17   O        18.8356   -3.3106   -8.9806  O     
18   C        17.8092   -4.1742   -6.4953  C     
19   C        18.9885   -4.7593   -5.8687  C     
20   N        19.0693   -6.0857   -5.6881  N     
21   O        19.8465   -3.9880   -5.4325  O     
22   C        18.6819   -6.0463  -10.5740  C     
23   C        16.5504   -4.4173   -5.6019  C     
24   C        16.5528   -3.6845   -4.2971  C     
25   C        16.7900   -2.2927   -4.2654  C     
26   C        16.8657   -1.6039   -3.0452  C     
27   C        16.6781   -2.2775   -1.8106  C     
28   C        16.3937   -3.6617   -1.8500  C     
29   C        16.8048   -1.5072   -0.5398  C     
30   O        15.9687    2.2547  -10.2295  O     
31   C        15.7551    2.0883   -8.8170  C     
32   C        16.3096   -4.3536   -3.0750  C     
33   C        19.9692   -6.7950   -4.8368  C     
34   C        21.4787   -6.4178   -4.9671  C     
35   C        22.2894   -6.7156   -3.6806  C     
36   C        22.0745   -5.6459   -2.5591  C     
37   C        23.0398   -4.4399   -2.6731  C     
38   N        15.8689   -1.0569    1.7655  N     
39   C        17.0745   -1.5650    1.8555  C     
40   C        17.6612   -2.0649    0.6364  C     
41   O        17.6264   -1.6414    2.9418  O     
42   C        18.1166   -7.0503  -11.5230  C     
43   C        17.2120   -8.0363  -11.0600  C     
44   C        16.7016   -9.0195  -11.9311  C     
45   C        17.0944   -9.0316  -13.2796  C     
46   C        17.9917   -8.0588  -13.7577  C     
47   C        18.5016   -7.0794  -12.8832  C     
48   H        14.5193   -1.1240  -12.8251  H     
49   H        14.1734    0.9161  -11.5986  H     
50   H        18.2272    0.9317  -10.4613  H     
51   H        18.5778   -1.1270  -11.6648  H     
52   H        16.0253   -2.6908  -13.8741  H     
53   H        17.7387   -2.6343  -13.5723  H     
54   H        18.4122   -3.3646  -11.3509  H     
55   H        16.6899   -5.3540  -10.0603  H     
56   H        16.9878   -5.4605   -7.8384  H     
57   H        17.9460   -3.0951   -6.6120  H     
58   H        18.3496   -6.6248   -6.0741  H     
59   H        19.5926   -5.5902  -10.9808  H     
60   H        18.9849   -6.5791   -9.6648  H     
61   H        15.6695   -4.0946   -6.1615  H     
62   H        16.4274   -5.4951   -5.4534  H     
63   H        16.9733   -1.7778   -5.1280  H     
64   H        17.0467   -0.6004   -3.0718  H     
65   H        16.2540   -4.1907   -0.9899  H     
66   H        17.2410   -0.5327   -0.7716  H     
67   H        14.8707    1.4781   -8.6150  H     
68   H        15.5960    3.0751   -8.3807  H     
69   H        16.6270    1.6400   -8.3356  H     
70   H        16.1176   -5.3590   -3.0612  H     
71   H        19.6117   -6.6647   -3.7988  H     
72   H        19.8590   -7.8682   -5.0898  H     
73   H        21.8927   -6.9740   -5.8255  H     
74   H        21.6260   -5.3592   -5.1823  H     
75   H        22.0368   -7.7185   -3.2958  H     
76   H        23.3519   -6.7486   -3.9638  H     
77   H        21.0402   -5.2590   -2.5943  H     
78   H        22.2130   -6.1141   -1.5835  H     
79   H        24.0641   -4.7685   -2.4506  H     
80   H        22.7514   -3.6770   -1.9428  H     
81   H        23.0066   -4.0054   -3.6766  H     
82   H        15.3847   -0.7186    2.5312  H     
83   H        17.6705   -3.1535    0.6887  H     
84   H        18.6910   -1.7161    0.5594  H     
85   H        16.9124   -8.0403  -10.0848  H     
86   H        16.0367   -9.7138  -11.5874  H     
87   H        16.7294   -9.7449  -13.9086  H     
88   H        18.2699   -8.0625  -14.7405  H     
89   H        19.1445   -6.3769  -13.2538  H     
@<TRIPOS>BOND
     1    1    2 2
     2    2    3 2
     3    2   29 1
     4    2   38 1
     5    4    5 2
     6    4    9 1
     7    5    6 1
     8    6    7 2
     9    6   30 1
    10    7    8 1
    11    8    9 2
    12    9   10 1
    13   10   11 1
    14   11   12 2
    15   11   13 am
    16   13   14 1
    17   14   15 1
    18   14   22 1
    19   15   16 am
    20   15   17 2
    21   16   18 1
    22   18   19 1
    23   18   23 1
    24   19   20 am
    25   19   21 2
    26   20   33 1
    27   22   42 1
    28   23   24 1
    29   24   25 2
    30   24   32 1
    31   25   26 1
    32   26   27 2
    33   27   28 1
    34   27   29 1
    35   28   32 2
    36   29   40 1
    37   30   31 1
    38   33   34 1
    39   34   35 1
    40   35   36 1
    41   36   37 1
    42   38   39 1
    43   39   40 1
    44   39   41 2
    45   42   43 2
    46   42   47 1
    47   43   44 1
    48   44   45 2
    49   45   46 1
    50   46   47 2
    51    4   48 1
    52    5   49 1
    53    7   50 1
    54    8   51 1
    55   10   52 1
    56   10   53 1
    57   13   54 1
    58   14   55 1
    59   16   56 1
    60   18   57 1
    61   20   58 1
    62   22   59 1
    63   22   60 1
    64   23   61 1
    65   23   62 1
    66   25   63 1
    67   26   64 1
    68   28   65 1
    69   29   66 1
    70   31   67 1
    71   31   68 1
    72   31   69 1
    73   32   70 1
    74   33   71 1
    75   33   72 1
    76   34   73 1
    77   34   74 1
    78   35   75 1
    79   35   76 1
    80   36   77 1
    81   36   78 1
    82   37   79 1
    83   37   80 1
    84   37   81 1
    85   38   82 1
    86   40   83 1
    87   40   84 1
    88   43   85 1
    89   44   86 1
    90   45   87 1
    91   46   88 1
    92   47   89 1
@<TRIPOS>PROPERTY_DATA
  Total_Score	| 14.6701
  Crash		| -2.5637
  Polar		| 8.1711
  FragIndex	| 1
  FragRMSD	| 0.218

