@<TRIPOS>MOLECULE
BindingDB_13809
 77 81 0 0 0
SMALL
NO_CHARGES


@<TRIPOS>ATOM
1    C        16.5314   -3.7848   -4.1795  C     
2    C        16.6985   -2.3826   -4.0698  C     
3    C        16.7235   -1.7527   -2.8116  C     
4    C        16.5748   -2.5068   -1.6293  C     
5    C        16.3813   -3.9045   -1.7325  C     
6    C        16.3556   -4.5320   -2.9930  C     
7    C        16.5501   -1.8787   -0.4006  C     
8    C        17.1008   -1.4948    1.7342  C     
9    C        17.4730   -2.0122    0.5587  C     
10   O        14.8267    0.3146   -0.3024  O     
11   S        15.1488   -1.1501    0.2299  S     
12   O        13.9708   -2.2088    0.3915  O     
13   N        15.8871   -0.9943    1.7248  N     
14   O        17.7744   -1.5426    2.7548  O     
15   C        16.4872   -4.4386   -5.5208  C     
16   C        17.7131   -4.1425   -6.4425  C     
17   C        18.9594   -4.6745   -5.9032  C     
18   O        19.8493   -3.9262   -5.5252  O     
19   N        19.1769   -5.9694   -5.8313  N     
20   N        17.4761   -4.6975   -7.7497  N     
21   C        17.8889   -4.2211   -8.9216  C     
22   O        18.5914   -3.2153   -8.9659  O     
23   C        17.5948   -4.9591  -10.1491  C     
24   C        18.5888   -6.1439  -10.3467  C     
25   C        18.1216   -7.1038  -11.3850  C     
26   C        17.2049   -8.9549  -13.3243  C     
27   C        18.1194   -7.9498  -13.6879  C     
28   C        18.5811   -7.0317  -12.7233  C     
29   C        17.1755   -8.0978  -11.0470  C     
30   C        16.7324   -9.0304  -12.0014  C     
31   N        17.6549   -4.1026  -11.3044  N     
32   C        16.7517   -3.9911  -12.2731  C     
33   O        15.7728   -4.7254  -12.3156  O     
34   C        16.9335   -2.9754  -13.2934  C     
35   C        16.8661   -1.5619  -12.8275  C     
36   C        16.1571   -1.1779  -11.6657  C     
37   C        16.0479    0.1792  -11.3005  C     
38   C        16.6237    1.1985  -12.0985  C     
39   C        17.3145    0.8122  -13.2723  C     
40   C        17.4312   -0.5425  -13.6266  C     
41   C        16.5068    2.5411  -11.7454  C     
42   C        16.3436    4.7724  -11.9908  C     
43   C        16.4138    3.5749  -12.5920  C     
44   S        16.5558    3.1266  -10.1440  S     
45   O        15.2297    2.7242   -9.3604  O     
46   O        17.9766    2.7893   -9.5125  O     
47   N        16.4454    4.7063  -10.6839  N     
48   O        16.1271    5.8222  -12.5785  O     
49   H        16.7947   -1.8066   -4.9092  H     
50   H        16.8438   -0.7371   -2.7686  H     
51   H        16.2247   -4.4722   -0.8950  H     
52   H        16.1929   -5.5423   -3.0371  H     
53   H        18.3365   -2.4865    0.4310  H     
54   H        15.4425   -0.6311    2.5110  H     
55   H        16.3766   -5.5222   -5.4164  H     
56   H        15.5817   -4.0855   -6.0163  H     
57   H        17.7992   -3.0549   -6.5373  H     
58   H        20.0223   -6.3043   -5.4892  H     
59   H        18.5038   -6.5951   -6.1484  H     
60   H        16.9928   -5.5368   -7.7741  H     
61   H        16.5838   -5.3679  -10.0392  H     
62   H        19.5752   -5.7449  -10.6023  H     
63   H        18.7018   -6.6941   -9.4056  H     
64   H        16.8776   -9.6283  -14.0202  H     
65   H        18.4483   -7.8864  -14.6544  H     
66   H        19.2461   -6.3086  -13.0066  H     
67   H        16.8054   -8.1518  -10.0961  H     
68   H        16.0573   -9.7520  -11.7355  H     
69   H        18.4425   -3.5387  -11.3769  H     
70   H        17.9023   -3.1556  -13.7640  H     
71   H        16.1775   -3.0822  -14.0733  H     
72   H        15.7012   -1.8805  -11.0810  H     
73   H        15.5028    0.4161  -10.4713  H     
74   H        17.7524    1.5157  -13.8748  H     
75   H        17.9343   -0.7845  -14.4863  H     
76   H        16.3698    3.4698  -13.5811  H     
77   H        16.3341    5.4616  -10.0876  H     
@<TRIPOS>BOND
     1    1    2 1
     2    1    6 2
     3    1   15 1
     4    2    3 2
     5    3    4 1
     6    4    5 2
     7    4    7 1
     8    5    6 1
     9    7    9 2
    10    7   11 1
    11    8    9 1
    12    8   13 1
    13    8   14 2
    14   10   11 2
    15   11   12 2
    16   11   13 1
    17   16   15 1
    18   16   17 1
    19   16   20 1
    20   17   18 2
    21   17   19 am
    22   20   21 am
    23   21   22 2
    24   21   23 1
    25   23   24 1
    26   23   31 1
    27   24   25 1
    28   25   28 1
    29   25   29 2
    30   26   27 1
    31   26   30 2
    32   27   28 2
    33   29   30 1
    34   31   32 am
    35   32   33 2
    36   32   34 1
    37   34   35 1
    38   35   36 2
    39   35   40 1
    40   36   37 1
    41   37   38 2
    42   38   39 1
    43   38   41 1
    44   39   40 2
    45   41   43 2
    46   41   44 1
    47   42   43 1
    48   42   47 1
    49   42   48 2
    50   44   45 2
    51   44   46 2
    52   44   47 1
    53    2   49 1
    54    3   50 1
    55    5   51 1
    56    6   52 1
    57    9   53 1
    58   13   54 1
    59   15   55 1
    60   15   56 1
    61   16   57 1
    62   19   58 1
    63   19   59 1
    64   20   60 1
    65   23   61 1
    66   24   62 1
    67   24   63 1
    68   26   64 1
    69   27   65 1
    70   28   66 1
    71   29   67 1
    72   30   68 1
    73   31   69 1
    74   34   70 1
    75   34   71 1
    76   36   72 1
    77   37   73 1
    78   39   74 1
    79   40   75 1
    80   43   76 1
    81   47   77 1
@<TRIPOS>PROPERTY_DATA
  Total_Score	| 14.6920
  Crash		| -2.1215
  Polar		| 9.6038
  FragIndex	| 1
  FragRMSD	| 0.270

