@<TRIPOS>MOLECULE
BindingDB_13811
 58 60 0 0 0
SMALL
NO_CHARGES


@<TRIPOS>ATOM
1    C        16.4957   -3.7938   -4.2365  C     
2    C        16.6677   -2.3907   -4.1462  C     
3    C        16.7147   -1.7500   -2.8929  C     
4    C        16.5916   -2.4978   -1.6992  C     
5    C        16.4043   -3.8955   -1.7906  C     
6    C        16.3424   -4.5347   -3.0389  C     
7    C        16.5974   -1.8749   -0.4682  C     
8    C        17.1246   -1.5985    1.7006  C     
9    C        17.5104   -2.0633    0.5041  C     
10   O        14.8485    0.2832   -0.3017  O     
11   S        15.1931   -1.1817    0.1957  S     
12   O        14.0296   -2.2661    0.3153  O     
13   N        15.9287   -1.0739    1.6972  N     
14   O        17.8116   -1.6837    2.7171  O     
15   C        16.4773   -4.4726   -5.5585  C     
16   C        17.7080   -4.1279   -6.4631  C     
17   C        18.9638   -4.6605   -5.9347  C     
18   O        19.8323   -3.8956   -5.5375  O     
19   N        19.2033   -5.9492   -5.8862  N     
20   N        17.4820   -4.6649   -7.7755  N     
21   C        17.8564   -4.1475   -8.9335  C     
22   O        18.4650   -3.0747   -8.9634  O     
23   C        17.5502   -4.8736  -10.1625  C     
24   C        18.5011   -6.0900  -10.3578  C     
25   C        18.0087   -7.0518  -11.3853  C     
26   C        17.0864   -8.9247  -13.3002  C     
27   C        17.9394   -7.8778  -13.6945  C     
28   C        18.4059   -6.9500  -12.7396  C     
29   C        17.1193   -8.0892  -11.0155  C     
30   C        16.6750   -9.0340  -11.9590  C     
31   N        17.6626   -4.0208  -11.3160  N     
32   C        17.1060   -2.9254  -13.3485  C     
33   C        16.7896   -3.8724  -12.3031  C     
34   O        15.7326   -4.4999  -12.3434  O     
35   H        16.7670   -1.8309   -4.9991  H     
36   H        16.8281   -0.7301   -2.8661  H     
37   H        16.2663   -4.4583   -0.9416  H     
38   H        16.1981   -5.5466   -3.0690  H     
39   H        18.3498   -2.5876    0.3635  H     
40   H        15.4980   -0.7303    2.5004  H     
41   H        16.4118   -5.5637   -5.4378  H     
42   H        15.5648   -4.1706   -6.0703  H     
43   H        17.7652   -3.0304   -6.5278  H     
44   H        20.0500   -6.2632   -5.5373  H     
45   H        18.5435   -6.5791   -6.2050  H     
46   H        17.0353   -5.5281   -7.7997  H     
47   H        16.5280   -5.2463  -10.0584  H     
48   H        19.4965   -5.7272  -10.6371  H     
49   H        18.6259   -6.6334   -9.4120  H     
50   H        16.7622   -9.6092  -13.9903  H     
51   H        18.2260   -7.7923  -14.6708  H     
52   H        19.0328   -6.1999  -13.0389  H     
53   H        16.7929   -8.1679  -10.0544  H     
54   H        16.0457   -9.7882  -11.6734  H     
55   H        18.4710   -3.4841  -11.3696  H     
56   H        17.3956   -1.9627  -12.9177  H     
57   H        16.2508   -2.7559  -14.0094  H     
58   H        17.9373   -3.3062  -13.9453  H     
@<TRIPOS>BOND
     1    1    2 1
     2    1    6 2
     3    1   15 1
     4    2    3 2
     5    3    4 1
     6    4    5 2
     7    4    7 1
     8    5    6 1
     9    7    9 2
    10    7   11 1
    11    8    9 1
    12    8   13 1
    13    8   14 2
    14   10   11 2
    15   11   12 2
    16   11   13 1
    17   16   15 1
    18   16   17 1
    19   16   20 1
    20   17   18 2
    21   17   19 am
    22   20   21 am
    23   21   22 2
    24   21   23 1
    25   23   24 1
    26   23   31 1
    27   24   25 1
    28   25   28 1
    29   25   29 2
    30   26   27 1
    31   26   30 2
    32   27   28 2
    33   29   30 1
    34   31   33 am
    35   32   33 1
    36   33   34 2
    37    2   35 1
    38    3   36 1
    39    5   37 1
    40    6   38 1
    41    9   39 1
    42   13   40 1
    43   15   41 1
    44   15   42 1
    45   16   43 1
    46   19   44 1
    47   19   45 1
    48   20   46 1
    49   23   47 1
    50   24   48 1
    51   24   49 1
    52   26   50 1
    53   27   51 1
    54   28   52 1
    55   29   53 1
    56   30   54 1
    57   31   55 1
    58   32   56 1
    59   32   57 1
    60   32   58 1
@<TRIPOS>PROPERTY_DATA
  Total_Score	| 13.2736
  Crash		| -1.8526
  Polar		| 8.0764
  FragIndex	| 1
  FragRMSD	| 0.276

