@<TRIPOS>MOLECULE
BindingDB_13492
 62 66 0 0 0
SMALL
NO_CHARGES


@<TRIPOS>ATOM
1    C        17.1356   -3.0366   -4.5173  C     
2    C        17.7086   -1.9680   -3.7894  C     
3    C        17.4925   -1.8382   -2.3998  C     
4    C        16.6963   -2.7765   -1.6996  C     
5    C        16.1062   -3.8297   -2.4358  C     
6    C        16.3139   -3.9509   -3.8187  C     
7    C        16.4392   -2.6609   -0.2313  C     
8    C        17.1084   -1.6233    1.8286  C     
9    C        17.6513   -2.3334    0.6890  C     
10   N        15.9029   -1.1331    1.7039  N     
11   O        15.2784   -0.1213   -0.7069  O     
12   O        17.7364   -1.4826    2.8730  O     
13   C        17.3587   -3.2027   -5.9783  C     
14   C        18.5288   -4.1551   -6.4161  C     
15   C        18.9343   -5.1224   -5.3753  C     
16   C        18.9159   -6.8304   -4.0305  C     
17   C        19.8617   -5.9087   -3.5859  C     
18   C        19.4052   -8.2645   -2.1449  C     
19   C        18.6701   -8.0212   -3.3239  C     
20   C        20.6110   -6.1483   -2.4235  C     
21   C        20.3712   -7.3356   -1.6964  C     
22   N        19.8602   -4.8655   -4.4274  N     
23   N        18.3799   -6.3312   -5.1469  N     
24   N        18.1494   -4.8435   -7.6215  N     
25   S        15.2024   -1.4266    0.2068  S     
26   O        13.8055   -2.1752    0.3345  O     
27   C        18.2659   -4.3792   -8.8622  C     
28   O        18.8293   -3.3167   -9.1156  O     
29   C        17.7086   -5.1455   -9.9698  C     
30   C        18.7443   -6.1544  -10.5473  C     
31   C        18.1405   -7.1069  -11.5174  C     
32   C        17.0902   -9.0575  -13.2912  C     
33   C        18.0260   -8.1107  -13.7533  C     
34   C        18.5448   -7.1402  -12.8756  C     
35   C        17.1835   -8.0533  -11.0730  C     
36   C        16.6619   -9.0225  -11.9526  C     
37   H        18.3070   -1.2864   -4.2584  H     
38   H        17.9216   -1.0510   -1.9064  H     
39   H        15.4941   -4.5093   -1.9701  H     
40   H        15.8681   -4.7283   -4.3120  H     
41   H        16.0250   -3.6112    0.1343  H     
42   H        18.1322   -3.2616    1.0182  H     
43   H        18.3977   -1.6999    0.1913  H     
44   H        15.4248   -0.7128    2.4352  H     
45   H        16.4188   -3.5531   -6.4044  H     
46   H        17.5369   -2.2214   -6.4271  H     
47   H        19.4071   -3.5321   -6.6068  H     
48   H        19.2306   -9.1174   -1.6058  H     
49   H        17.9637   -8.6825   -3.6493  H     
50   H        21.3003   -5.4683   -2.1019  H     
51   H        20.8928   -7.5171   -0.8359  H     
52   H        17.6842   -6.7467   -5.6728  H     
53   H        17.6650   -5.6824   -7.5127  H     
54   H        16.8206   -5.6989   -9.6331  H     
55   H        17.3925   -4.4637  -10.7708  H     
56   H        19.5621   -5.5944  -11.0143  H     
57   H        19.1888   -6.7456   -9.7370  H     
58   H        16.7248   -9.7726  -13.9263  H     
59   H        18.3365   -8.1386  -14.7271  H     
60   H        19.2294   -6.4651  -13.2309  H     
61   H        16.8730   -8.0419  -10.0988  H     
62   H        15.9790   -9.7052  -11.6106  H     
@<TRIPOS>BOND
     1    1    2 1
     2    1    6 2
     3    1   13 1
     4    2    3 2
     5    3    4 1
     6    4    5 2
     7    4    7 1
     8    5    6 1
     9    7    9 1
    10    7   25 1
    11    8    9 1
    12    8   10 1
    13    8   12 2
    14   10   25 1
    15   11   25 2
    16   14   13 1
    17   14   15 1
    18   14   24 1
    19   15   22 2
    20   15   23 1
    21   16   17 2
    22   16   19 1
    23   16   23 1
    24   17   20 1
    25   17   22 1
    26   18   19 2
    27   18   21 1
    28   20   21 2
    29   24   27 am
    30   25   26 2
    31   27   28 2
    32   27   29 1
    33   29   30 1
    34   30   31 1
    35   31   34 2
    36   31   35 1
    37   32   33 2
    38   32   36 1
    39   33   34 1
    40   35   36 2
    41    2   37 1
    42    3   38 1
    43    5   39 1
    44    6   40 1
    45    7   41 1
    46    9   42 1
    47    9   43 1
    48   10   44 1
    49   13   45 1
    50   13   46 1
    51   14   47 1
    52   18   48 1
    53   19   49 1
    54   20   50 1
    55   21   51 1
    56   23   52 1
    57   24   53 1
    58   29   54 1
    59   29   55 1
    60   30   56 1
    61   30   57 1
    62   32   58 1
    63   33   59 1
    64   34   60 1
    65   35   61 1
    66   36   62 1
@<TRIPOS>PROPERTY_DATA
  Total_Score	| 10.1481
  Crash		| -2.7210
  Polar		| 5.0914
  FragIndex	| 1
  FragRMSD	| 0.611

