@<TRIPOS>MOLECULE
BindingDB_14268
 69 73 0 0 0
SMALL
NO_CHARGES


@<TRIPOS>ATOM
1    C        22.7734   -6.2437   -3.9782  C     
2    C        22.3773   -7.4581   -4.5795  C     
3    C        21.1975   -7.5276   -5.3449  C     
4    C        21.9906   -5.0767   -4.1384  C     
5    C        20.8173   -5.1551   -4.9085  C     
6    C        20.4259   -6.3600   -5.4912  C     
7    C        18.9501   -4.8334   -5.9653  C     
8    N        19.2751   -6.1329   -6.1170  N     
9    N        19.8985   -4.2246   -5.2137  N     
10   C        17.7304   -4.1951   -6.5073  C     
11   N        17.4964   -4.6995   -7.8247  N     
12   C        17.8856   -4.1974   -8.9927  C     
13   O        18.5337   -3.1556   -9.0334  O     
14   C        17.5587   -4.9267  -10.2151  C     
15   C        18.5219   -6.1422  -10.4121  C     
16   C        18.0510   -7.1371  -11.4197  C     
17   C        16.6661   -9.0805  -11.9986  C     
18   C        17.1250   -8.1403  -11.0538  C     
19   C        18.5237   -7.1098  -12.7520  C     
20   C        18.0658   -8.0498  -13.6980  C     
21   C        17.1342   -9.0314  -13.3205  C     
22   N        17.6408   -4.0947  -11.3883  N     
23   C        16.7823   -4.0399  -12.4002  C     
24   C        17.1315   -3.2578  -13.5638  C     
25   O        15.7374   -4.6777  -12.4018  O     
26   C        16.4869   -4.5184   -5.6179  C     
27   C        16.5135   -3.7939   -4.3148  C     
28   C        16.4191   -4.4787   -3.0814  C     
29   C        16.6691   -2.3865   -4.2897  C     
30   C        16.7467   -1.6878   -3.0731  C     
31   C        16.6901   -2.3682   -1.8308  C     
32   C        16.5085   -3.7790   -1.8625  C     
33   C        16.8252   -1.5606   -0.5787  C     
34   C        17.6652   -2.0785    0.6261  C     
35   S        15.2258   -1.1444    0.1549  S     
36   O        14.7182    0.3241   -0.1754  O     
37   O        14.1583   -2.3283    0.1424  O     
38   N        15.8340   -1.0804    1.7108  N     
39   C        17.0578   -1.5351    1.8228  C     
40   O        17.5929   -1.6179    2.9174  O     
41   H        23.6313   -6.2051   -3.4260  H     
42   H        22.9560   -8.2959   -4.4647  H     
43   H        20.9010   -8.4012   -5.7834  H     
44   H        22.2721   -4.1963   -3.7072  H     
45   H        18.7582   -6.7889   -6.6107  H     
46   H        17.8821   -3.1084   -6.5252  H     
47   H        17.0015   -5.5336   -7.8552  H     
48   H        16.5403   -5.3100  -10.0851  H     
49   H        19.5062   -5.7499  -10.6893  H     
50   H        18.6499   -6.6827   -9.4700  H     
51   H        15.9987   -9.7998  -11.7197  H     
52   H        16.7722   -8.1943  -10.0963  H     
53   H        19.2003   -6.4016  -13.0480  H     
54   H        18.4161   -8.0196  -14.6565  H     
55   H        16.8039   -9.7146  -14.0043  H     
56   H        18.4489   -3.5640  -11.4832  H     
57   H        17.2964   -2.2172  -13.2758  H     
58   H        16.3452   -3.2852  -14.3224  H     
59   H        18.0486   -3.6532  -14.0079  H     
60   H        15.5734   -4.2368   -6.1523  H     
61   H        16.4247   -5.6039   -5.4519  H     
62   H        16.3073   -5.4971   -3.0649  H     
63   H        16.7404   -1.8607   -5.1647  H     
64   H        16.8684   -0.6700   -3.1009  H     
65   H        16.4470   -4.3304   -1.0079  H     
66   H        17.2887   -0.6133   -0.8700  H     
67   H        17.6720   -3.1695    0.7067  H     
68   H        18.6944   -1.7089    0.5478  H     
69   H        15.3247   -0.7435    2.4673  H     
@<TRIPOS>BOND
     1    1    2 2
     2    1    4 1
     3    2    3 1
     4    3    6 2
     5    4    5 2
     6    5    6 1
     7    5    9 1
     8    6    8 1
     9    7    8 1
    10    7    9 2
    11    7   10 1
    12   10   11 1
    13   10   26 1
    14   11   12 am
    15   12   13 2
    16   12   14 1
    17   14   15 1
    18   14   22 1
    19   15   16 1
    20   16   18 1
    21   16   19 2
    22   17   18 2
    23   17   21 1
    24   19   20 1
    25   20   21 2
    26   22   23 am
    27   23   24 1
    28   23   25 2
    29   26   27 1
    30   27   28 1
    31   27   29 2
    32   28   32 2
    33   29   30 1
    34   30   31 2
    35   31   32 1
    36   31   33 1
    37   33   34 1
    38   33   35 1
    39   34   39 1
    40   35   36 2
    41   35   37 2
    42   35   38 1
    43   38   39 1
    44   39   40 2
    45    1   41 1
    46    2   42 1
    47    3   43 1
    48    4   44 1
    49    8   45 1
    50   10   46 1
    51   11   47 1
    52   14   48 1
    53   15   49 1
    54   15   50 1
    55   17   51 1
    56   18   52 1
    57   19   53 1
    58   20   54 1
    59   21   55 1
    60   22   56 1
    61   24   57 1
    62   24   58 1
    63   24   59 1
    64   26   60 1
    65   26   61 1
    66   28   62 1
    67   29   63 1
    68   30   64 1
    69   32   65 1
    70   33   66 1
    71   34   67 1
    72   34   68 1
    73   38   69 1
@<TRIPOS>PROPERTY_DATA
  Total_Score	| 13.9702
  Crash		| -2.1507
  Polar		| 7.9857
  FragIndex	| 1
  FragRMSD	| 0.204

