@<TRIPOS>MOLECULE
BindingDB_13465
 60 62 0 0 0
SMALL
NO_CHARGES


@<TRIPOS>ATOM
1    C        16.5859   -3.7806   -4.2803  C     
2    C        16.6721   -2.3664   -4.3032  C     
3    C        16.7188   -1.6277   -3.1139  C     
4    C        16.6528   -2.2694   -1.8562  C     
5    C        16.4648   -3.6744   -1.8310  C     
6    C        16.4552   -4.4193   -3.0209  C     
7    C        16.6186   -4.5439   -5.5558  C     
8    C        17.8804   -4.2631   -6.4351  C     
9    C        19.1028   -4.8344   -5.8746  C     
10   O        19.9646   -4.1155   -5.3897  O     
11   N        19.3206   -6.1278   -5.8486  N     
12   N        17.6637   -4.7987   -7.7523  N     
13   C        17.9091   -4.2154   -8.9186  C     
14   O        18.4920   -3.1283   -8.9526  O     
15   C        17.5807   -4.9169  -10.1613  C     
16   C        18.5438   -6.1238  -10.4101  C     
17   C        18.0518   -7.1297  -11.3929  C     
18   C        17.0598   -9.0260  -13.2757  C     
19   C        18.0155   -8.0692  -13.6692  C     
20   C        18.5119   -7.1457  -12.7383  C     
21   C        17.1091   -8.1157  -11.0069  C     
22   C        16.6237   -9.0610  -11.9342  C     
23   N        17.6341   -4.0161  -11.2864  N     
24   C        16.7626   -3.8983  -12.2779  C     
25   O        15.7309   -4.5580  -12.3215  O     
26   C        17.0211   -2.9372  -13.3219  C     
27   C        16.7702   -1.4592   -0.6148  C     
28   C        17.0891   -1.6446    1.7695  C     
29   C        17.6862   -2.0215    0.5089  C     
30   O        17.6627   -1.7628    2.8372  O     
31   N        15.8689   -1.1573    1.7202  N     
32   S        15.1935   -1.1334    0.1900  S     
33   O        14.6962    0.3491   -0.0938  O     
34   O        14.1109   -2.3008    0.1227  O     
35   H        16.7280   -1.8669   -5.1923  H     
36   H        16.8153   -0.6090   -3.1780  H     
37   H        16.3615   -4.1659   -0.9382  H     
38   H        16.3623   -5.4375   -2.9668  H     
39   H        16.5411   -5.6203   -5.3710  H     
40   H        15.7262   -4.2713   -6.1236  H     
41   H        18.0084   -3.1793   -6.5006  H     
42   H        20.1445   -6.4753   -5.4670  H     
43   H        18.6724   -6.7445   -6.2230  H     
44   H        17.2632   -5.6817   -7.7812  H     
45   H        16.5643   -5.3125  -10.0411  H     
46   H        19.5100   -5.7556  -10.7723  H     
47   H        18.7469   -6.6176   -9.4612  H     
48   H        16.6994   -9.6932  -13.9535  H     
49   H        18.3549   -8.0449  -14.6327  H     
50   H        19.2185   -6.4666  -13.0575  H     
51   H        16.7682   -8.1652  -10.0383  H     
52   H        15.9565   -9.7713  -11.6324  H     
53   H        18.3966   -3.4175  -11.3108  H     
54   H        17.1262   -1.9390  -12.8810  H     
55   H        16.2034   -2.9022  -14.0475  H     
56   H        17.9463   -3.1931  -13.8468  H     
57   H        17.1647   -0.4709   -0.8620  H     
58   H        17.7826   -3.1090    0.4737  H     
59   H        18.6830   -1.5838    0.4275  H     
60   H        15.3924   -0.8642    2.5114  H     
@<TRIPOS>BOND
     1    1    2 1
     2    1    6 2
     3    1    7 1
     4    2    3 2
     5    3    4 1
     6    4    5 2
     7    4   27 1
     8    5    6 1
     9    8    7 1
    10    8    9 1
    11    8   12 1
    12    9   10 2
    13    9   11 am
    14   12   13 am
    15   13   14 2
    16   13   15 1
    17   15   16 1
    18   15   23 1
    19   16   17 1
    20   17   20 1
    21   17   21 2
    22   18   19 1
    23   18   22 2
    24   19   20 2
    25   21   22 1
    26   23   24 am
    27   24   25 2
    28   24   26 1
    29   27   29 1
    30   27   32 1
    31   28   29 1
    32   28   30 2
    33   28   31 1
    34   31   32 1
    35   32   33 2
    36   32   34 2
    37    2   35 1
    38    3   36 1
    39    5   37 1
    40    6   38 1
    41    7   39 1
    42    7   40 1
    43    8   41 1
    44   11   42 1
    45   11   43 1
    46   12   44 1
    47   15   45 1
    48   16   46 1
    49   16   47 1
    50   18   48 1
    51   19   49 1
    52   20   50 1
    53   21   51 1
    54   22   52 1
    55   23   53 1
    56   26   54 1
    57   26   55 1
    58   26   56 1
    59   27   57 1
    60   29   58 1
    61   29   59 1
    62   31   60 1
@<TRIPOS>PROPERTY_DATA
  Total_Score	| 13.7095
  Crash		| -2.2581
  Polar		| 8.3108
  FragIndex	| 1
  FragRMSD	| 0.167

