@<TRIPOS>MOLECULE
BindingDB_50189674
 49 52 0 0 0
SMALL
NO_CHARGES


@<TRIPOS>ATOM
1    C        16.4646   -3.8032   -4.2322  C     
2    C        16.5930   -2.3950   -4.2692  C     
3    C        16.7006   -1.6521   -3.0829  C     
4    C        16.6310   -2.2857   -1.8169  C     
5    C        16.3995   -3.6831   -1.7808  C     
6    C        16.3416   -4.4339   -2.9700  C     
7    C        16.5036   -4.5984   -5.4959  C     
8    C        16.7772   -1.4721   -0.5753  C     
9    C        17.8137   -4.4024   -6.3232  C     
10   N        17.6610   -4.9602   -7.6314  N     
11   C        18.9788   -5.0130   -5.6443  C     
12   N        19.8415   -4.3250   -4.8679  N     
13   N        19.2838   -6.3273   -5.6169  N     
14   C        20.3365   -6.4889   -4.8045  C     
15   C        20.6902   -5.2204   -4.3425  C     
16   C        21.7602   -5.0450   -3.4470  C     
17   C        22.4728   -6.1861   -3.0165  C     
18   C        22.1122   -7.4745   -3.4805  C     
19   C        21.0374   -7.6348   -4.3846  C     
20   S        15.2109   -1.1208    0.2378  S     
21   N        15.8975   -1.1108    1.7640  N     
22   C        17.1100   -1.6050    1.8103  C     
23   C        17.6908   -2.0257    0.5567  C     
24   O        14.1302   -2.2858    0.1885  O     
25   O        14.7248    0.3540   -0.0992  O     
26   O        17.6815   -1.7429    2.8810  O     
27   C        17.9361   -4.3690   -8.7861  C     
28   C        17.6363   -5.0723  -10.0114  C     
29   O        18.4372   -3.2533   -8.8336  O     
30   H        16.6518   -1.9000   -5.1628  H     
31   H        16.8288   -0.6378   -3.1550  H     
32   H        16.2937   -4.1718   -0.8872  H     
33   H        16.2223   -5.4493   -2.9071  H     
34   H        16.3881   -5.6680   -5.2826  H     
35   H        15.6439   -4.3062   -6.1045  H     
36   H        17.1799   -0.4899   -0.8378  H     
37   H        17.9828   -3.3246   -6.4280  H     
38   H        17.3263   -5.8640   -7.6766  H     
39   H        18.8022   -7.0335   -6.0829  H     
40   H        22.0055   -4.1120   -3.1050  H     
41   H        23.2519   -6.0804   -2.3612  H     
42   H        22.6331   -8.2954   -3.1597  H     
43   H        20.7684   -8.5634   -4.7203  H     
44   H        15.4246   -0.8079    2.5522  H     
45   H        17.7579   -3.1151    0.5518  H     
46   H        18.6986   -1.6176    0.4590  H     
47   H        18.1469   -6.0372  -10.0214  H     
48   H        17.9537   -4.5034  -10.8887  H     
49   H        16.5592   -5.2409  -10.0810  H     
@<TRIPOS>BOND
     1    1    2 2
     2    1    6 1
     3    1    7 1
     4    2    3 1
     5    3    4 2
     6    4    5 1
     7    4    8 1
     8    5    6 2
     9    9    7 1
    10    8   20 1
    11    8   23 1
    12    9   10 1
    13    9   11 1
    14   10   27 am
    15   11   12 2
    16   11   13 1
    17   12   15 1
    18   13   14 1
    19   14   15 2
    20   14   19 1
    21   15   16 1
    22   16   17 2
    23   17   18 1
    24   18   19 2
    25   20   21 1
    26   20   24 2
    27   20   25 2
    28   21   22 1
    29   22   23 1
    30   22   26 2
    31   27   28 1
    32   27   29 2
    33    2   30 1
    34    3   31 1
    35    5   32 1
    36    6   33 1
    37    7   34 1
    38    7   35 1
    39    8   36 1
    40    9   37 1
    41   10   38 1
    42   13   39 1
    43   16   40 1
    44   17   41 1
    45   18   42 1
    46   19   43 1
    47   21   44 1
    48   23   45 1
    49   23   46 1
    50   28   47 1
    51   28   48 1
    52   28   49 1
@<TRIPOS>PROPERTY_DATA
  Total_Score	| 11.5369
  Crash		| -1.5527
  Polar		| 7.1811
  FragIndex	| 1
  FragRMSD	| 0.182

