@<TRIPOS>MOLECULE
BindingDB_13812
 60 62 0 0 0
SMALL
NO_CHARGES


@<TRIPOS>ATOM
1    C        16.5822   -3.9361   -4.3082  C     
2    C        16.5949   -2.5562   -3.9975  C     
3    C        16.5747   -2.1192   -2.6569  C     
4    C        16.5153   -3.0501   -1.5919  C     
5    C        16.5525   -4.4263   -1.9131  C     
6    C        16.5751   -4.8652   -3.2453  C     
7    C        16.3675   -2.6441   -0.1637  C     
8    C        17.1162   -1.4139    1.7251  C     
9    C        17.6265   -2.1465    0.5832  C     
10   O        15.2363   -0.0957   -0.8225  O     
11   S        15.1606   -1.3464    0.1551  S     
12   O        13.7419   -2.0331    0.3632  O     
13   N        15.8862   -0.9654    1.6165  N     
14   O        17.6844   -1.3945    2.8057  O     
15   C        16.5580   -4.4117   -5.7196  C     
16   C        17.8475   -4.1139   -6.5425  C     
17   C        19.0492   -4.7009   -5.9607  C     
18   O        19.9549   -3.9891   -5.5532  O     
19   N        19.1974   -6.0015   -5.8336  N     
20   N        17.6659   -4.6607   -7.8595  N     
21   C        17.9895   -4.1258   -9.0325  C     
22   O        18.5258   -3.0260   -9.0854  O     
23   C        17.6570   -4.8625  -10.2526  C     
24   C        18.6418   -6.0521  -10.4829  C     
25   C        18.1291   -7.0649  -11.4501  C     
26   C        17.1447   -9.0069  -13.2674  C     
27   C        18.0713   -8.0412  -13.7011  C     
28   C        18.5650   -7.0804  -12.7977  C     
29   C        17.1934   -8.0416  -11.0311  C     
30   C        16.7107   -9.0103  -11.9300  C     
31   N        17.6891   -4.0143  -11.4189  N     
32   C        17.0314   -3.0395  -13.4917  C     
33   C        16.7867   -3.9380  -12.3880  C     
34   O        15.7697   -4.6208  -12.3867  O     
35   H        16.6000   -1.8614   -4.7502  H     
36   H        16.5756   -1.1152   -2.4648  H     
37   H        16.5482   -5.1302   -1.1719  H     
38   H        16.5759   -5.8716   -3.4316  H     
39   H        15.9971   -3.4965    0.4149  H     
40   H        18.2491   -2.9915    0.8917  H     
41   H        18.2219   -1.4764   -0.0399  H     
42   H        15.4024   -0.5723    2.3595  H     
43   H        16.3669   -5.4903   -5.7533  H     
44   H        15.7083   -3.9362   -6.2107  H     
45   H        17.9646   -3.0245   -6.5858  H     
46   H        20.0030   -6.3627   -5.4324  H     
47   H        18.5079   -6.6039   -6.1521  H     
48   H        17.2262   -5.5267   -7.8915  H     
49   H        16.6494   -5.2678  -10.1048  H     
50   H        19.6009   -5.6482  -10.8240  H     
51   H        18.8400   -6.5687   -9.5387  H     
52   H        16.7881   -9.7062  -13.9220  H     
53   H        18.3876   -8.0382  -14.6739  H     
54   H        19.2366   -6.3852  -13.1342  H     
55   H        16.8616   -8.0564  -10.0640  H     
56   H        16.0436   -9.7155  -11.6093  H     
57   H        18.4758   -3.4534  -11.5186  H     
58   H        17.1162   -2.0157  -13.1222  H     
59   H        16.2233   -3.0750  -14.2267  H     
60   H        17.9627   -3.3144  -13.9911  H     
@<TRIPOS>BOND
     1    1    2 1
     2    1    6 2
     3    1   15 1
     4    2    3 2
     5    3    4 1
     6    4    5 2
     7    4    7 1
     8    5    6 1
     9    7    9 1
    10    7   11 1
    11    8    9 1
    12    8   13 1
    13    8   14 2
    14   10   11 2
    15   11   12 2
    16   11   13 1
    17   16   15 1
    18   16   17 1
    19   16   20 1
    20   17   18 2
    21   17   19 am
    22   20   21 am
    23   21   22 2
    24   21   23 1
    25   23   24 1
    26   23   31 1
    27   24   25 1
    28   25   28 1
    29   25   29 2
    30   26   27 1
    31   26   30 2
    32   27   28 2
    33   29   30 1
    34   31   33 am
    35   32   33 1
    36   33   34 2
    37    2   35 1
    38    3   36 1
    39    5   37 1
    40    6   38 1
    41    7   39 1
    42    9   40 1
    43    9   41 1
    44   13   42 1
    45   15   43 1
    46   15   44 1
    47   16   45 1
    48   19   46 1
    49   19   47 1
    50   20   48 1
    51   23   49 1
    52   24   50 1
    53   24   51 1
    54   26   52 1
    55   27   53 1
    56   28   54 1
    57   29   55 1
    58   30   56 1
    59   31   57 1
    60   32   58 1
    61   32   59 1
    62   32   60 1
@<TRIPOS>PROPERTY_DATA
  Total_Score	| 10.3984
  Crash		| -2.7524
  Polar		| 6.6252
  FragIndex	| 1
  FragRMSD	| 0.450

