@<TRIPOS>MOLECULE
BindingDB_10859
 20 20 0 0 0
SMALL
NO_CHARGES


@<TRIPOS>ATOM
1    C        15.9717    4.2114   16.1758  C     
2    C        17.3695    4.2808   16.0025  C     
3    C        17.9520    5.3829   15.3461  C     
4    C        17.1454    6.4274   14.8394  C     
5    C        15.7450    6.3459   15.0005  C     
6    C        15.1630    5.2469   15.6572  C     
7    O        15.2557    1.6295   16.0178  O     
8    O        16.1150    2.5149   18.2982  O     
9    S        15.2596    2.8677   17.0136  S     
10   N        13.6722    3.1477   17.4642  N     
11   C        17.7787    7.5783   14.1524  C     
12   H        17.9775    3.5417   16.3651  H     
13   H        18.9688    5.4201   15.2407  H     
14   H        15.1347    7.0868   14.6440  H     
15   H        14.1479    5.2193   15.7598  H     
16   H        13.1630    2.4609   17.9028  H     
17   H        13.2803    4.0247   17.3160  H     
18   H        18.4663    8.0798   14.8356  H     
19   H        17.0439    8.3098   13.8108  H     
20   H        18.3364    7.2263   13.2837  H     
@<TRIPOS>BOND
     1    1    2 1
     2    1    6 2
     3    1    9 1
     4    2    3 2
     5    3    4 1
     6    4    5 2
     7    4   11 1
     8    5    6 1
     9    7    9 2
    10    8    9 2
    11    9   10 am
    12    2   12 1
    13    3   13 1
    14    5   14 1
    15    6   15 1
    16   10   16 1
    17   10   17 1
    18   11   18 1
    19   11   19 1
    20   11   20 1
@<TRIPOS>PROPERTY_DATA
  Total_Score	| 3.5051
  Crash		| -0.8072
  Polar		| 2.5777
  FragIndex	| 1
  FragRMSD	| 1.255

