@<TRIPOS>MOLECULE
BindingDB_10857
 19 19 0 0 0
SMALL
NO_CHARGES


@<TRIPOS>ATOM
1    C        15.9594    4.2242   16.2283  C     
2    C        17.3635    4.2848   16.0688  C     
3    C        17.9546    5.3889   15.4275  C     
4    C        17.1509    6.4415   14.9348  C     
5    C        15.7514    6.3772   15.0856  C     
6    C        15.1601    5.2740   15.7250  C     
7    O        15.2097    1.6651   16.0006  O     
8    O        16.1167    2.4840   18.3006  O     
9    S        15.2422    2.8676   17.0357  S     
10   N        13.6469    3.1186   17.4832  N     
11   N        17.7102    7.4964   14.3268  N     
12   H        17.9600    3.5235   16.4109  H     
13   H        18.9730    5.4251   15.3239  H     
14   H        15.1538    7.1282   14.7310  H     
15   H        14.1389    5.2452   15.8014  H     
16   H        13.1435    2.4006   17.8822  H     
17   H        13.2363    3.9866   17.3441  H     
18   H        17.1513    8.2114   13.9901  H     
19   H        18.6707    7.5443   14.2275  H     
@<TRIPOS>BOND
     1    1    2 1
     2    1    6 2
     3    1    9 1
     4    2    3 2
     5    3    4 1
     6    4    5 2
     7    4   11 1
     8    5    6 1
     9    7    9 2
    10    8    9 2
    11    9   10 am
    12    2   12 1
    13    3   13 1
    14    5   14 1
    15    6   15 1
    16   10   16 1
    17   10   17 1
    18   11   18 1
    19   11   19 1
@<TRIPOS>PROPERTY_DATA
  Total_Score	| 3.4198
  Crash		| -0.8821
  Polar		| 2.5968
  FragIndex	| 1
  FragRMSD	| 1.240

