@<TRIPOS>MOLECULE
BindingDB_11372
 18 18 0 0 0
SMALL
NO_CHARGES


@<TRIPOS>ATOM
1    O        13.2573    2.7956   16.8877  O     
2    S        14.7710    2.9535   17.3572  S     
3    O        14.6636    3.4907   18.8517  O     
4    N        15.4935    1.4374   17.4377  N     
5    O        15.8667    0.8557   16.3275  O     
6    C        15.6664    4.1426   16.4579  C     
7    C        17.0652    4.0233   16.3055  C     
8    C        17.7858    4.9905   15.5809  C     
9    C        17.1102    6.0796   15.0012  C     
10   C        15.7196    6.2150   15.1658  C     
11   C        15.0012    5.2516   15.8941  C     
12   H        15.5750    0.9773   18.2883  H     
13   H        16.7655    0.5013   16.5274  H     
14   H        17.5710    3.2340   16.7157  H     
15   H        18.7972    4.9024   15.4758  H     
16   H        17.6347    6.7825   14.4699  H     
17   H        15.2334    7.0127   14.7565  H     
18   H        13.9919    5.3638   16.0072  H     
@<TRIPOS>BOND
     1    1    2 2
     2    2    3 2
     3    2    4 1
     4    2    6 1
     5    4    5 1
     6    6    7 1
     7    6   11 2
     8    7    8 2
     9    8    9 1
    10    9   10 2
    11   10   11 1
    12    4   12 1
    13    5   13 1
    14    7   14 1
    15    8   15 1
    16    9   16 1
    17   10   17 1
    18   11   18 1
@<TRIPOS>PROPERTY_DATA
  Total_Score	| 4.6908
  Crash		| -0.4481
  Polar		| 2.5804
  FragIndex	| 1
  FragRMSD	| 0.296

