@<TRIPOS>MOLECULE
BindingDB_12414
 17 17 0 0 0
SMALL
NO_CHARGES


@<TRIPOS>ATOM
1    C        17.9090    5.4197   15.3926  C     
2    C        17.3356    4.2966   16.0188  C     
3    C        15.9380    4.2211   16.2074  C     
4    C        15.1203    5.2706   15.7420  C     
5    C        15.6966    6.3940   15.1151  C     
6    C        17.0889    6.4699   14.9472  C     
7    N        13.6359    2.9648   17.4080  N     
8    S        15.2578    2.8414   17.0211  S     
9    O        15.3427    1.6114   16.0325  O     
10   O        16.1118    2.5321   18.3244  O     
11   H        18.9210    5.4689   15.2602  H     
12   H        17.9490    3.5442   16.3426  H     
13   H        14.1055    5.2304   15.8592  H     
14   H        15.0971    7.1528   14.7819  H     
15   H        17.5042    7.2860   14.4879  H     
16   H        13.1812    2.2089   17.8013  H     
17   H        13.1525    3.7941   17.2497  H     
@<TRIPOS>BOND
     1    1    2 2
     2    1    6 1
     3    2    3 1
     4    3    4 2
     5    3    8 1
     6    4    5 1
     7    5    6 2
     8    7    8 am
     9    8    9 2
    10    8   10 2
    11    1   11 1
    12    2   12 1
    13    4   13 1
    14    5   14 1
    15    6   15 1
    16    7   16 1
    17    7   17 1
@<TRIPOS>PROPERTY_DATA
  Total_Score	| 3.4227
  Crash		| -0.6848
  Polar		| 2.5324
  FragIndex	| 1
  FragRMSD	| 1.239

