@<TRIPOS>MOLECULE
BindingDB_10855
 19 19 0 0 0
SMALL
NO_CHARGES


@<TRIPOS>ATOM
1    C        15.8810    4.2969   16.2196  C     
2    C        15.0427    5.4210   15.9853  C     
3    C        15.5342    6.5511   15.3178  C     
4    C        16.8608    6.5774   14.8604  C     
5    C        17.7018    5.4724   15.0809  C     
6    C        17.2227    4.3324   15.7618  C     
7    O        15.1950    1.6886   16.0254  O     
8    O        16.1101    2.5728   18.2987  O     
9    N        18.0772    3.2952   15.9078  N     
10   S        15.2080    2.9062   17.0363  S     
11   N        13.6255    3.0772   17.5405  N     
12   H        14.0637    5.4265   16.2851  H     
13   H        14.9188    7.3557   15.1695  H     
14   H        17.2092    7.4029   14.3719  H     
15   H        18.6636    5.5010   14.7303  H     
16   H        18.9681    3.3585   15.5323  H     
17   H        17.7959    2.4646   16.3212  H     
18   H        13.2680    2.4682   18.1967  H     
19   H        13.1253    3.8692   17.2929  H     
@<TRIPOS>BOND
     1    1    2 1
     2    1    6 2
     3    1   10 1
     4    2    3 2
     5    3    4 1
     6    4    5 2
     7    5    6 1
     8    6    9 1
     9    7   10 2
    10    8   10 2
    11   10   11 am
    12    2   12 1
    13    3   13 1
    14    4   14 1
    15    5   15 1
    16    9   16 1
    17    9   17 1
    18   11   18 1
    19   11   19 1
@<TRIPOS>PROPERTY_DATA
  Total_Score	| 4.1120
  Crash		| -1.0608
  Polar		| 3.5757
  FragIndex	| 1
  FragRMSD	| 1.262

