@<TRIPOS>MOLECULE
BindingDB_50155502
 19 19 0 0 0
SMALL
NO_CHARGES


@<TRIPOS>ATOM
1    S        15.2172    2.8998   17.0730  S     
2    C        16.5654    8.0284   12.9265  C     
3    N        15.7128    8.1603   12.1608  N     
4    C        15.8795    4.2984   16.2747  C     
5    O        15.1660    1.6874   16.0488  O     
6    O        16.1999    2.5180   18.2668  O     
7    N        13.6860    3.0779   17.7303  N     
8    S        17.7415    7.8365   14.0437  S     
9    C        17.2696    4.3621   16.0371  C     
10   C        15.0544    5.3501   15.8278  C     
11   C        17.0042    6.4953   14.8898  C     
12   C        17.8248    5.4514   15.3515  C     
13   C        15.6123    6.4448   15.1416  C     
14   H        13.4490    2.5771   18.5364  H     
15   H        13.0558    3.7165   17.3437  H     
16   H        17.8900    3.6042   16.3516  H     
17   H        14.0433    5.3180   15.9924  H     
18   H        18.8327    5.4753   15.1839  H     
19   H        14.9920    7.1884   14.8242  H     
@<TRIPOS>BOND
     1    1    4 1
     2    1    5 2
     3    1    6 2
     4    1    7 am
     5    2    3 3
     6    2    8 1
     7    4    9 2
     8    4   10 1
     9    8   11 1
    10    9   12 1
    11   10   13 2
    12   11   12 2
    13   11   13 1
    14    7   14 1
    15    7   15 1
    16    9   16 1
    17   10   17 1
    18   12   18 1
    19   13   19 1
@<TRIPOS>PROPERTY_DATA
  Total_Score	| 3.9235
  Crash		| -1.0998
  Polar		| 3.1129
  FragIndex	| 1
  FragRMSD	| 1.244

