@<TRIPOS>MOLECULE
BindingDB_11374
 18 18 0 0 0
SMALL
NO_CHARGES


@<TRIPOS>ATOM
1    O        13.3012    2.6780   16.8055  O     
2    S        14.7812    2.8287   17.3606  S     
3    O        14.5583    3.4688   18.7985  O     
4    N        15.4606    1.3204   17.6508  N     
5    O        15.6500    0.4961   16.6615  O     
6    C        15.7243    3.9889   16.4665  C     
7    C        17.0977    3.7679   16.2301  C     
8    C        17.8539    4.7048   15.5023  C     
9    C        17.2469    5.8784   15.0119  C     
10   C        15.8737    6.0992   15.2374  C     
11   C        15.1159    5.1590   15.9611  C     
12   Cl       18.1674    7.0032   14.1440  Cl    
13   H        15.4944    0.9856   18.5649  H     
14   H        16.1720   -0.2375   17.0438  H     
15   H        17.5554    2.9178   16.5712  H     
16   H        18.8432    4.5129   15.3186  H     
17   H        15.4192    6.9415   14.8758  H     
18   H        14.1206    5.3341   16.1160  H     
@<TRIPOS>BOND
     1    1    2 2
     2    2    3 2
     3    2    4 1
     4    2    6 1
     5    4    5 1
     6    6    7 1
     7    6   11 2
     8    7    8 2
     9    8    9 1
    10    9   10 2
    11    9   12 1
    12   10   11 1
    13    4   13 1
    14    5   14 1
    15    7   15 1
    16    8   16 1
    17   10   17 1
    18   11   18 1
@<TRIPOS>PROPERTY_DATA
  Total_Score	| 4.7862
  Crash		| -0.6853
  Polar		| 3.2353
  FragIndex	| 1
  FragRMSD	| 0.386

