@<TRIPOS>MOLECULE
BindingDB_50165297
 51 53 0 0 0
SMALL
NO_CHARGES


@<TRIPOS>ATOM
1    N        -1.9012   10.4596   26.6431  N     
2    C        -0.9707    9.8156   27.3949  C     
3    N         0.3283    9.7576   26.9806  N     
4    C        -1.5650   11.0742   25.4700  C     
5    N        -2.5005   11.7030   24.7356  N     
6    C        -0.2269   11.0283   25.0374  C     
7    C         0.7024   10.3376   25.8049  C     
8    N         1.8745   10.3690   25.1401  N     
9    C         1.6673   11.1148   24.0157  C     
10   N         0.3794   11.5008   23.9455  N     
11   C         3.0789    9.7121   25.5721  C     
12   C         3.1158    8.1757   25.3675  C     
13   C         3.1823    7.7223   23.8802  C     
14   C         2.4746    6.5689   23.6700  C     
15   C         1.8342    5.5743   23.4958  C     
16   C         2.6201   11.5046   22.9587  C     
17   C         3.6977   12.4048   23.4576  C     
18   C         5.0640   12.0016   23.3832  C     
19   C         6.0974   12.8035   23.9119  C     
20   C         5.7860   14.0625   24.4792  C     
21   C         4.4401   14.4971   24.5340  C     
22   C         3.4185   13.6662   24.0286  C     
23   O         6.7799   14.7883   25.0756  O     
24   C         7.4894   15.6827   24.1978  C     
25   O         7.4407   12.4552   23.8881  O     
26   C         7.8147   11.1385   23.4407  C     
27   O         4.1210   15.7593   24.9540  O     
28   C         4.2236   15.9845   26.3651  C     
29   H        -1.2498    9.3670   28.2730  H     
30   H        -2.2464   12.1494   23.9112  H     
31   H        -3.4379   11.6648   24.9887  H     
32   H         3.9502   10.1325   25.0705  H     
33   H         3.2054    9.9074   26.6378  H     
34   H         3.9972    7.7833   25.8870  H     
35   H         2.2408    7.7291   25.8579  H     
36   H         2.7641    8.5017   23.2305  H     
37   H         4.2237    7.5540   23.5793  H     
38   H         1.3312    4.8143   23.3706  H     
39   H         3.0274   10.5901   22.5193  H     
40   H         2.1058   12.0361   22.1485  H     
41   H         5.2963   11.1127   22.9434  H     
42   H         2.4561   14.0054   24.0660  H     
43   H         7.8568   15.1792   23.2991  H     
44   H         8.3606   16.0728   24.7354  H     
45   H         6.8470   16.5206   23.9166  H     
46   H         7.2710   10.3589   23.9927  H     
47   H         8.8963   10.9736   23.6140  H     
48   H         7.6264   11.0187   22.3745  H     
49   H         3.5588   15.3252   26.9278  H     
50   H         3.9248   17.0127   26.5473  H     
51   H         5.2484   15.8655   26.7150  H     
@<TRIPOS>BOND
     1    1    2 2
     2    1    4 1
     3    2    3 1
     4    3    7 2
     5    4    5 1
     6    4    6 2
     7    6    7 1
     8    6   10 1
     9    7    8 1
    10    8    9 1
    11    8   11 1
    12    9   10 2
    13    9   16 1
    14   11   12 1
    15   12   13 1
    16   13   14 1
    17   14   15 3
    18   16   17 1
    19   17   18 2
    20   17   22 1
    21   18   19 1
    22   19   20 2
    23   19   25 1
    24   20   21 1
    25   20   23 1
    26   21   22 2
    27   21   27 1
    28   23   24 1
    29   25   26 1
    30   27   28 1
    31    2   29 1
    32    5   30 1
    33    5   31 1
    34   11   32 1
    35   11   33 1
    36   12   34 1
    37   12   35 1
    38   13   36 1
    39   13   37 1
    40   15   38 1
    41   16   39 1
    42   16   40 1
    43   18   41 1
    44   22   42 1
    45   24   43 1
    46   24   44 1
    47   24   45 1
    48   26   46 1
    49   26   47 1
    50   26   48 1
    51   28   49 1
    52   28   50 1
    53   28   51 1
@<TRIPOS>PROPERTY_DATA
  Total_Score	| 9.4093
  Crash		| -0.7269
  Polar		| 1.2107
  FragIndex	| 1
  FragRMSD	| 0.290

