@<TRIPOS>MOLECULE
BindingDB_50165270
 51 53 0 0 0
SMALL
NO_CHARGES


@<TRIPOS>ATOM
1    C         0.7538   10.3690   25.7963  C     
2    C        -0.1674   11.0561   25.0144  C     
3    N         0.4675   11.5601   23.9546  N     
4    N         1.9518   10.4518   25.1856  N     
5    C         1.7639   11.2026   24.0624  C     
6    N         0.3611    9.7555   26.9439  N     
7    N        -1.8631   10.4513   26.5625  N     
8    C        -1.5149   11.0852   25.4087  C     
9    C        -0.9444    9.7997   27.3297  C     
10   C         5.9216   14.0782   24.5477  C     
11   C         6.1953   12.7435   24.1775  C     
12   C         4.6100   14.5979   24.4344  C     
13   C         2.7425   11.5771   23.0144  C     
14   C         3.8343   12.4499   23.5266  C     
15   C         1.8099    7.6382   23.6310  C     
16   C         0.6762    7.4976   23.2831  C     
17   C         3.5806   13.7856   23.9167  C     
18   C         5.1521   11.9549   23.6446  C     
19   N        -2.4420   11.7040   24.6622  N     
20   F        -1.3167    9.2174   28.4329  F     
21   C         3.1576    9.8363   25.6820  C     
22   O         6.9336   14.8309   25.0868  O     
23   O         7.4516   12.2543   24.4595  O     
24   O         4.3322   15.8953   24.7798  O     
25   C         3.1071    7.7906   24.0393  C     
26   C         7.5792   15.6897   24.1314  C     
27   C         4.3389   16.1324   26.1982  C     
28   C         7.9448   11.1311   23.7074  C     
29   C         3.2384    8.2945   25.5022  C     
30   H         3.1326   10.6505   22.5863  H     
31   H         2.2364   12.1071   22.2023  H     
32   H        -0.1985    7.3890   23.0207  H     
33   H         2.6368   14.1719   23.8325  H     
34   H         5.3490   10.9901   23.3780  H     
35   H        -3.3731   11.6862   24.9276  H     
36   H        -2.1841   12.1519   23.8401  H     
37   H         4.0362   10.2604   25.2027  H     
38   H         3.2481   10.0630   26.7472  H     
39   H         3.5908    6.8151   23.9583  H     
40   H         3.6159    8.4764   23.3584  H     
41   H         7.9160   15.1477   23.2414  H     
42   H         8.4508   16.1320   24.6129  H     
43   H         6.9096   16.5001   23.8353  H     
44   H         3.5630   15.5459   26.6984  H     
45   H         4.1363   17.1924   26.3683  H     
46   H         5.3099   15.8992   26.6464  H     
47   H         7.4867   10.2015   24.0486  H     
48   H         9.0187   11.0571   23.8750  H     
49   H         7.7657   11.2627   22.6367  H     
50   H         4.2193    7.9774   25.8694  H     
51   H         2.4939    7.8042   26.1361  H     
@<TRIPOS>BOND
     1    1    2 1
     2    1    4 1
     3    1    6 2
     4    2    3 1
     5    2    8 2
     6    3    5 2
     7    4    5 1
     8    4   21 1
     9    5   13 1
    10    6    9 1
    11    7    8 1
    12    7    9 2
    13    8   19 1
    14    9   20 1
    15   10   11 1
    16   10   12 2
    17   10   22 1
    18   11   18 2
    19   11   23 1
    20   12   17 1
    21   12   24 1
    22   13   14 1
    23   14   17 2
    24   14   18 1
    25   15   16 3
    26   15   25 1
    27   21   29 1
    28   22   26 1
    29   23   28 1
    30   24   27 1
    31   25   29 1
    32   13   30 1
    33   13   31 1
    34   16   32 1
    35   17   33 1
    36   18   34 1
    37   19   35 1
    38   19   36 1
    39   21   37 1
    40   21   38 1
    41   25   39 1
    42   25   40 1
    43   26   41 1
    44   26   42 1
    45   26   43 1
    46   27   44 1
    47   27   45 1
    48   27   46 1
    49   28   47 1
    50   28   48 1
    51   28   49 1
    52   29   50 1
    53   29   51 1
@<TRIPOS>PROPERTY_DATA
  Total_Score	| 9.6041
  Crash		| -1.0534
  Polar		| 1.2417
  FragIndex	| 1
  FragRMSD	| 0.425

