@<TRIPOS>MOLECULE
BindingDB_15381
 51 53 0 0 0
SMALL
NO_CHARGES


@<TRIPOS>ATOM
1    C        -1.5462   11.0062   25.3636  C     
2    C        -0.9098    9.7713   27.2932  C     
3    N         0.3824    9.7310   26.8702  N     
4    N        -1.8569   10.4012   26.5453  N     
5    N        -2.4900   11.6079   24.6187  N     
6    C        -0.2134   10.9682   24.9223  C     
7    C         0.7409   10.3145   25.6960  C     
8    C         1.6896   11.1467   23.9274  C     
9    N         0.3827   11.4661   23.8404  N     
10   N         1.9227   10.4185   25.0562  N     
11   C         3.1626    9.8737   25.5504  C     
12   C         3.2710    8.3253   25.4847  C     
13   C         3.1375    7.7066   24.0707  C     
14   C         2.6343   11.5991   22.8826  C     
15   C         3.7205   12.4955   23.3911  C     
16   C         5.0636   12.1371   23.1362  C     
17   C         6.1371   12.9064   23.6169  C     
18   C         3.4768   13.6973   24.1167  C     
19   C         5.8849   14.0478   24.4096  C     
20   C         4.5502   14.4231   24.6890  C     
21   O         7.3966   12.5358   23.2325  O     
22   C         7.9780   11.4726   24.0116  C     
23   Cl        1.9024   14.3154   24.3074  Cl    
24   O         6.9317   14.7331   24.9741  O     
25   C         7.5631   15.6695   24.0843  C     
26   O         4.2684   15.3583   25.6548  O     
27   C         4.7776   16.6845   25.4492  C     
28   C         1.8382    7.5275   23.6826  C     
29   C         0.7015    7.3767   23.3350  C     
30   F        -1.2463    9.2057   28.4167  F     
31   H        -2.2508   12.0233   23.7716  H     
32   H        -3.4177   11.6138   24.9000  H     
33   H         4.0149   10.2832   25.0134  H     
34   H         3.2779   10.1799   26.5925  H     
35   H         4.2550    8.0483   25.8659  H     
36   H         2.5390    7.8721   26.1614  H     
37   H         3.6396    8.3366   23.3328  H     
38   H         3.6137    6.7265   24.0635  H     
39   H         3.0351   10.6968   22.4120  H     
40   H         2.0929   12.1442   22.1053  H     
41   H         5.2759   11.3037   22.5790  H     
42   H         8.3511   11.8633   24.9685  H     
43   H         8.8280   11.0645   23.4531  H     
44   H         7.2698   10.6517   24.1978  H     
45   H         7.9435   15.1821   23.1850  H     
46   H         8.4030   16.1189   24.6125  H     
47   H         6.8752   16.4610   23.7861  H     
48   H         5.8108   16.7418   25.7878  H     
49   H         4.1896   17.3742   26.0559  H     
50   H         4.7129   17.0031   24.4046  H     
51   H        -0.1744    7.2569   23.0771  H     
@<TRIPOS>BOND
     1    1    4 1
     2    1    5 1
     3    1    6 2
     4    2    3 1
     5    2    4 2
     6    2   30 1
     7    3    7 2
     8    6    7 1
     9    6    9 1
    10    7   10 1
    11    8    9 2
    12    8   10 1
    13    8   14 1
    14   10   11 1
    15   11   12 1
    16   12   13 1
    17   13   28 1
    18   14   15 1
    19   15   16 2
    20   15   18 1
    21   16   17 1
    22   17   19 2
    23   17   21 1
    24   18   20 2
    25   18   23 1
    26   19   20 1
    27   19   24 1
    28   20   26 1
    29   21   22 1
    30   24   25 1
    31   26   27 1
    32   28   29 3
    33    5   31 1
    34    5   32 1
    35   11   33 1
    36   11   34 1
    37   12   35 1
    38   12   36 1
    39   13   37 1
    40   13   38 1
    41   14   39 1
    42   14   40 1
    43   16   41 1
    44   22   42 1
    45   22   43 1
    46   22   44 1
    47   25   45 1
    48   25   46 1
    49   25   47 1
    50   27   48 1
    51   27   49 1
    52   27   50 1
    53   29   51 1
@<TRIPOS>PROPERTY_DATA
  Total_Score	| 8.9703
  Crash		| -2.0988
  Polar		| 1.1745
  FragIndex	| 1
  FragRMSD	| 0.313

