@<TRIPOS>MOLECULE
BindingDB_50165283
 56 58 0 0 0
SMALL
NO_CHARGES


@<TRIPOS>ATOM
1    N         0.3503   11.5766   23.9913  N     
2    C        -0.2546   11.0492   25.0564  C     
3    C         1.6336   11.1763   24.0247  C     
4    N         1.8504   10.3776   25.1078  N     
5    C         0.6801   10.3225   25.7853  C     
6    C        -1.5937   11.0588   25.4773  C     
7    N         0.3089    9.6710   26.9192  N     
8    C         5.7832   14.0275   24.6577  C     
9    N        -1.9226   10.3832   26.6101  N     
10   C         6.0867   12.8303   23.9546  C     
11   C         4.4335   14.4080   24.8286  C     
12   C         2.5879   11.6164   22.9788  C     
13   C         3.6746   12.4685   23.5188  C     
14   C        -0.9853    9.7064   27.3362  C     
15   C         5.0648   12.0777   23.3670  C     
16   C         3.4139   13.6449   24.2263  C     
17   C         3.0456    9.6592   25.4603  C     
18   N        -2.5336   11.6727   24.7445  N     
19   O         6.7791   14.7437   25.2709  O     
20   O         7.4197   12.4568   23.9858  O     
21   O         4.0083   15.3670   25.7086  O     
22   C         2.8570    8.1252   25.4280  C     
23   O         1.9212    7.7605   24.3837  O     
24   C         1.2425    6.4987   24.5226  C     
25   C         7.3989   15.7487   24.4711  C     
26   C         4.6624   16.6373   25.6878  C     
27   C         7.7983   11.1821   23.4681  C     
28   C        -0.2197    6.7150   24.9827  C     
29   C         1.2864    5.7673   23.1526  C     
30   H         2.9595   10.7257   22.4663  H     
31   H         2.0605   12.2169   22.2330  H     
32   H        -1.2661    9.1981   28.1745  H     
33   H         5.2409   11.2144   22.8760  H     
34   H         2.4356   13.9229   24.3733  H     
35   H         3.8601    9.8983   24.7711  H     
36   H         3.3720    9.9628   26.4564  H     
37   H        -3.4649   11.6122   24.9975  H     
38   H        -2.2861   12.1221   23.9237  H     
39   H         3.8124    7.6370   25.2229  H     
40   H         2.5281    7.7824   26.4257  H     
41   H         1.7479    5.8473   25.2435  H     
42   H         7.9635   15.3100   23.6286  H     
43   H         8.1201   16.3065   25.0778  H     
44   H         6.6914   16.4604   24.0568  H     
45   H         5.6813   16.5432   26.1232  H     
46   H         4.1083   17.3309   26.3243  H     
47   H         4.7296   17.0625   24.6826  H     
48   H         7.4305   10.3652   24.0682  H     
49   H         8.9312   11.1187   23.4830  H     
50   H         7.5255   11.0747   22.4323  H     
51   H        -0.2404    7.1280   25.9947  H     
52   H        -0.7711    5.7740   24.9964  H     
53   H        -0.7341    7.4121   24.3144  H     
54   H         0.7951    6.3644   22.3803  H     
55   H         0.7869    4.7989   23.2234  H     
56   H         2.3242    5.5991   22.8594  H     
@<TRIPOS>BOND
     1    1    2 1
     2    1    3 2
     3    2    5 1
     4    2    6 2
     5    3    4 1
     6    3   12 1
     7    4    5 1
     8    4   17 1
     9    5    7 2
    10    6    9 1
    11    6   18 1
    12    7   14 1
    13    8   10 2
    14    8   11 1
    15    8   19 1
    16    9   14 2
    17   10   15 1
    18   10   20 1
    19   11   16 2
    20   11   21 1
    21   12   13 1
    22   13   15 2
    23   13   16 1
    24   17   22 1
    25   19   25 1
    26   20   27 1
    27   21   26 1
    28   22   23 1
    29   23   24 1
    30   24   28 1
    31   24   29 1
    32   12   30 1
    33   12   31 1
    34   14   32 1
    35   15   33 1
    36   16   34 1
    37   17   35 1
    38   17   36 1
    39   18   37 1
    40   18   38 1
    41   22   39 1
    42   22   40 1
    43   24   41 1
    44   25   42 1
    45   25   43 1
    46   25   44 1
    47   26   45 1
    48   26   46 1
    49   26   47 1
    50   27   48 1
    51   27   49 1
    52   27   50 1
    53   28   51 1
    54   28   52 1
    55   28   53 1
    56   29   54 1
    57   29   55 1
    58   29   56 1
@<TRIPOS>PROPERTY_DATA
  Total_Score	| 10.1975
  Crash		| -0.9489
  Polar		| 1.1514
  FragIndex	| 1
  FragRMSD	| 0.371

