@<TRIPOS>MOLECULE
BindingDB_15377
 43 46 0 0 0
SMALL
NO_CHARGES


@<TRIPOS>ATOM
1    C        -1.4923   10.9991   25.4362  C     
2    C        -0.9283    9.7755   27.3985  C     
3    N         0.3738    9.6956   27.0054  N     
4    N        -1.8416   10.4166   26.6156  N     
5    N        -2.4057   11.6210   24.6749  N     
6    C        -0.1509   10.9231   25.0303  C     
7    C         0.7683   10.2561   25.8311  C     
8    C         1.7761   11.0207   24.0649  C     
9    N         0.4821   11.3831   23.9512  N     
10   N         1.9659   10.3141   25.2131  N     
11   C         3.1797    9.7264   25.7205  C     
12   C         3.2537    8.1873   25.5215  C     
13   C         3.6091    7.7223   24.0825  C     
14   C         5.0902    7.9373   23.6926  C     
15   C         2.7593   11.3985   23.0233  C     
16   C         3.7129   12.4485   23.4713  C     
17   C         5.1073   12.3214   23.2365  C     
18   C         6.0049   13.3344   23.6317  C     
19   C         3.2331   13.6263   24.1010  C     
20   C         5.4990   14.4834   24.2604  C     
21   C         4.1404   14.6239   24.4928  C     
22   C         5.1455   16.4128   25.1714  C     
23   O         3.8535   15.7802   25.1157  O     
24   O         6.1961   15.5438   24.7068  O     
25   H        -1.2227    9.3531   28.2803  H     
26   H        -2.1369   12.0307   23.8375  H     
27   H        -3.3368   11.6485   24.9406  H     
28   H         4.0579   10.1797   25.2621  H     
29   H         3.2481    9.9400   26.7904  H     
30   H         3.9923    7.7791   26.2170  H     
31   H         2.2895    7.7527   25.7946  H     
32   H         3.3998    6.6518   24.0093  H     
33   H         2.9668    8.2302   23.3591  H     
34   H         5.3465    8.9967   23.6958  H     
35   H         5.2673    7.5432   22.6899  H     
36   H         5.7464    7.4141   24.3906  H     
37   H         3.2742   10.4931   22.6972  H     
38   H         2.2311   11.7906   22.1498  H     
39   H         5.4799   11.4922   22.7695  H     
40   H         7.0079   13.2384   23.4607  H     
41   H         2.2358   13.7606   24.2785  H     
42   H         5.1254   17.3108   24.5501  H     
43   H         5.3555   16.7078   26.2014  H     
@<TRIPOS>BOND
     1    1    4 1
     2    1    5 1
     3    1    6 2
     4    2    3 1
     5    2    4 2
     6    3    7 2
     7    6    7 1
     8    6    9 1
     9    7   10 1
    10    8    9 2
    11    8   10 1
    12    8   15 1
    13   10   11 1
    14   11   12 1
    15   12   13 1
    16   13   14 1
    17   15   16 1
    18   16   17 2
    19   16   19 1
    20   17   18 1
    21   18   20 2
    22   19   21 2
    23   20   21 1
    24   20   24 1
    25   21   23 1
    26   22   23 1
    27   22   24 1
    28    2   25 1
    29    5   26 1
    30    5   27 1
    31   11   28 1
    32   11   29 1
    33   12   30 1
    34   12   31 1
    35   13   32 1
    36   13   33 1
    37   14   34 1
    38   14   35 1
    39   14   36 1
    40   15   37 1
    41   15   38 1
    42   17   39 1
    43   18   40 1
    44   19   41 1
    45   22   42 1
    46   22   43 1
@<TRIPOS>PROPERTY_DATA
  Total_Score	| 7.1883
  Crash		| -0.3549
  Polar		| 1.3004
  FragIndex	| 1
  FragRMSD	| 0.109

