@<TRIPOS>MOLECULE
BindingDB_5538
 49 52 0 0 0
SMALL
NO_CHARGES


@<TRIPOS>ATOM
1    C         6.9915   44.7137   51.4543  C     
2    C         7.5559   43.2047   49.6692  C     
3    N         8.8183   43.7221   49.6078  N     
4    N         6.6786   43.7087   50.5888  N     
5    C         8.2923   45.2375   51.3947  C     
6    C         9.1819   44.7145   50.4610  C     
7    C        10.1574   46.2832   51.6010  C     
8    N         8.9070   46.2041   52.0918  N     
9    N        10.3335   45.3834   50.6148  N     
10   O         6.1274   45.1824   52.4089  O     
11   N         7.2212   42.2182   48.7989  N     
12   C         4.8670   45.7078   51.9495  C     
13   C         3.6796   44.7456   52.2461  C     
14   C         1.9824   45.7679   54.5452  C     
15   C         3.3668   45.1139   54.7918  C     
16   C         3.7042   44.0991   53.6681  C     
17   C         2.3010   45.4374   52.0024  C     
18   C         1.8904   46.4186   53.1405  C     
19   C         6.0472   41.5204   48.7630  C     
20   C         4.1594   40.3871   49.8467  C     
21   C         3.5899   40.1135   48.5854  C     
22   C         4.2783   40.4822   47.4072  C     
23   C         5.5052   41.1741   47.5065  C     
24   C         5.3819   41.0772   49.9319  C     
25   C         2.9994   38.4965   46.0147  C     
26   S         3.5921   40.1898   45.8249  S     
27   H        10.8728   46.9393   51.9219  H     
28   H        11.1461   45.2524   50.1073  H     
29   H         7.8696   42.0125   48.1043  H     
30   H         4.7109   46.6517   52.4756  H     
31   H         4.8834   45.9489   50.8813  H     
32   H         3.7714   43.9235   51.5254  H     
33   H         1.2007   45.0093   54.6406  H     
34   H         1.8048   46.5286   55.3108  H     
35   H         4.1394   45.8874   54.8396  H     
36   H         3.3584   44.5979   55.7577  H     
37   H         2.9651   43.2880   53.7030  H     
38   H         4.6796   43.6518   53.8633  H     
39   H         2.3236   45.9819   51.0550  H     
40   H         1.5318   44.6666   51.9123  H     
41   H         0.8643   46.7533   52.9642  H     
42   H         2.5273   47.3059   53.1182  H     
43   H         3.6762   40.0869   50.6984  H     
44   H         2.6822   39.6423   48.5435  H     
45   H         5.9889   41.4680   46.6507  H     
46   H         5.7928   41.2425   50.8563  H     
47   H         3.8185   37.8282   46.2940  H     
48   H         2.5749   38.1715   45.0560  H     
49   H         2.2151   38.4619   46.7756  H     
@<TRIPOS>BOND
     1    1    4 1
     2    1    5 2
     3    1   10 1
     4    2    3 1
     5    2    4 2
     6    2   11 1
     7    3    6 2
     8    5    6 1
     9    5    8 1
    10    6    9 1
    11    7    8 2
    12    7    9 1
    13   10   12 1
    14   11   19 1
    15   12   13 1
    16   13   16 1
    17   13   17 1
    18   14   15 1
    19   14   18 1
    20   15   16 1
    21   17   18 1
    22   19   23 1
    23   19   24 2
    24   20   21 2
    25   20   24 1
    26   21   22 1
    27   22   23 2
    28   22   26 1
    29   25   26 1
    30    7   27 1
    31    9   28 1
    32   11   29 1
    33   12   30 1
    34   12   31 1
    35   13   32 1
    36   14   33 1
    37   14   34 1
    38   15   35 1
    39   15   36 1
    40   16   37 1
    41   16   38 1
    42   17   39 1
    43   17   40 1
    44   18   41 1
    45   18   42 1
    46   20   43 1
    47   21   44 1
    48   23   45 1
    49   24   46 1
    50   25   47 1
    51   25   48 1
    52   25   49 1
@<TRIPOS>PROPERTY_DATA
  Total_Score	| 8.6415
  Crash		| -0.7312
  Polar		| 2.7851
  FragIndex	| 1
  FragRMSD	| 0.464

