@<TRIPOS>MOLECULE
BindingDB_5545
 53 56 0 0 0
SMALL
NO_CHARGES


@<TRIPOS>ATOM
1    C         5.8682   44.1692   52.4171  C     
2    C         4.2444   42.4607   51.9683  C     
3    N         3.6073   42.7501   53.1353  N     
4    N         5.3549   43.1787   51.6364  N     
5    C         5.2211   44.4528   53.6328  C     
6    C         4.0849   43.7184   53.9589  C     
7    C         4.4875   45.1422   55.5387  C     
8    N         5.4681   45.3177   54.6289  N     
9    N         3.6456   44.1746   55.1354  N     
10   O         7.0444   44.7372   52.0429  O     
11   N         3.7120   41.4859   51.1983  N     
12   C         7.0239   46.1613   51.7948  C     
13   C         8.4697   46.7011   51.5372  C     
14   C         9.7540   47.4426   54.1816  C     
15   C         8.7315   48.3911   53.5029  C     
16   C         8.6598   48.1949   51.9621  C     
17   C         9.6014   45.8503   52.1959  C     
18   C         9.5666   45.9701   53.7386  C     
19   C         3.9940   41.0697   49.9283  C     
20   C         5.0800   41.1299   47.7278  C     
21   C         4.1439   40.1987   47.2347  C     
22   C         3.1773   39.6601   48.1036  C     
23   C         3.1129   40.0883   49.4371  C     
24   C         5.0047   41.5587   49.0674  C     
25   S         4.1372   39.7115   45.5617  S     
26   O         2.7181   40.1657   44.9834  O     
27   O         5.2548   40.4235   44.6768  O     
28   N         4.2991   38.0404   45.4535  N     
29   C         3.3281   37.2039   44.8438  C     
30   H         4.3950   45.6621   56.4135  H     
31   H         2.8642   43.8565   55.6105  H     
32   H         2.9545   41.0460   51.6168  H     
33   H         6.3915   46.3564   50.9171  H     
34   H         6.5703   46.6808   52.6464  H     
35   H         8.6269   46.6386   50.4516  H     
36   H        10.7684   47.7624   53.9346  H     
37   H         9.6402   47.5062   55.2679  H     
38   H         7.7454   48.2289   53.9414  H     
39   H         9.0096   49.4256   53.7140  H     
40   H         9.5851   48.5603   51.5185  H     
41   H         7.8477   48.8030   51.5607  H     
42   H         9.5231   44.8032   51.9010  H     
43   H        10.5746   46.2055   51.8304  H     
44   H        10.3574   45.3545   54.1689  H     
45   H         8.6114   45.5893   54.1179  H     
46   H         5.8016   41.5099   47.1104  H     
47   H         2.5075   38.9691   47.7693  H     
48   H         2.3888   39.6929   50.0338  H     
49   H         5.6864   42.2520   49.3754  H     
50   H         4.9845   37.6144   46.0023  H     
51   H         2.3718   37.2913   45.3643  H     
52   H         3.6753   36.1640   44.8944  H     
53   H         3.2019   37.4825   43.7908  H     
@<TRIPOS>BOND
     1    1    4 1
     2    1    5 2
     3    1   10 1
     4    2    3 1
     5    2    4 2
     6    2   11 1
     7    3    6 2
     8    5    6 1
     9    5    8 1
    10    6    9 1
    11    7    8 2
    12    7    9 1
    13   10   12 1
    14   11   19 1
    15   12   13 1
    16   13   16 1
    17   13   17 1
    18   14   15 1
    19   14   18 1
    20   15   16 1
    21   17   18 1
    22   19   23 1
    23   19   24 2
    24   20   21 2
    25   20   24 1
    26   21   22 1
    27   21   25 1
    28   22   23 2
    29   25   26 2
    30   25   27 2
    31   25   28 1
    32   28   29 1
    33    7   30 1
    34    9   31 1
    35   11   32 1
    36   12   33 1
    37   12   34 1
    38   13   35 1
    39   14   36 1
    40   14   37 1
    41   15   38 1
    42   15   39 1
    43   16   40 1
    44   16   41 1
    45   17   42 1
    46   17   43 1
    47   18   44 1
    48   18   45 1
    49   20   46 1
    50   22   47 1
    51   23   48 1
    52   24   49 1
    53   28   50 1
    54   29   51 1
    55   29   52 1
    56   29   53 1
@<TRIPOS>PROPERTY_DATA
  Total_Score	| 6.4402
  Crash		| -2.2815
  Polar		| 2.2774
  FragIndex	| 1
  FragRMSD	| 0.734

