@<TRIPOS>MOLECULE
BindingDB_5530
 45 48 0 0 0
SMALL
NO_CHARGES


@<TRIPOS>ATOM
1    C         6.9754   44.7112   51.3498  C     
2    C         7.5728   43.1061   49.6608  C     
3    N         8.8382   43.6194   49.5931  N     
4    N         6.6913   43.6590   50.5345  N     
5    C         8.2780   45.2212   51.2935  C     
6    C         9.1877   44.6523   50.4070  C     
7    C        10.1630   46.2190   51.5468  C     
8    N         8.8926   46.1859   51.9915  N     
9    N        10.3436   45.3017   50.5803  N     
10   O         6.0665   45.1965   52.2491  O     
11   N         7.2230   42.0748   48.8556  N     
12   C         4.7082   45.2731   51.7683  C     
13   C         3.7344   45.6317   52.9225  C     
14   C         1.2823   45.0988   54.6112  C     
15   C         1.2720   46.1623   53.4850  C     
16   C         2.2907   45.8289   52.3667  C     
17   C         3.7291   44.5552   54.0531  C     
18   C         2.7111   44.8939   55.1742  C     
19   C         6.0357   41.3828   48.7978  C     
20   C         4.1041   40.1860   49.7525  C     
21   C         3.5644   40.0124   48.4672  C     
22   C         4.2743   40.4694   47.3446  C     
23   C         5.5012   41.1426   47.5117  C     
24   C         5.3319   40.8583   49.9147  C     
25   H        10.8860   46.8403   51.9124  H     
26   H        11.1765   45.1191   50.1174  H     
27   H         7.8859   41.8260   48.1932  H     
28   H         4.6508   46.0403   50.9882  H     
29   H         4.3781   44.3208   51.3397  H     
30   H         4.0714   46.5798   53.3553  H     
31   H         0.6162   45.4207   55.4166  H     
32   H         0.9050   44.1491   54.2204  H     
33   H         0.2695   46.2247   53.0527  H     
34   H         1.5173   47.1379   53.9108  H     
35   H         2.2916   46.6425   51.6365  H     
36   H         1.9622   44.9202   51.8523  H     
37   H         3.4849   43.5746   53.6333  H     
38   H         4.7222   44.4845   54.5039  H     
39   H         3.0296   45.8053   55.6892  H     
40   H         2.6959   44.0835   55.9084  H     
41   H         3.6004   39.8266   50.5684  H     
42   H         2.6573   39.5503   48.3538  H     
43   H         3.8933   40.3212   46.4063  H     
44   H         5.9960   41.4724   46.6796  H     
45   H         5.7037   40.9399   50.8607  H     
@<TRIPOS>BOND
     1    1    4 1
     2    1    5 2
     3    1   10 1
     4    2    3 1
     5    2    4 2
     6    2   11 1
     7    3    6 2
     8    5    6 1
     9    5    8 1
    10    6    9 1
    11    7    8 2
    12    7    9 1
    13   10   12 1
    14   11   19 1
    15   12   13 1
    16   13   16 1
    17   13   17 1
    18   14   15 1
    19   14   18 1
    20   15   16 1
    21   17   18 1
    22   19   23 1
    23   19   24 2
    24   20   21 2
    25   20   24 1
    26   21   22 1
    27   22   23 2
    28    7   25 1
    29    9   26 1
    30   11   27 1
    31   12   28 1
    32   12   29 1
    33   13   30 1
    34   14   31 1
    35   14   32 1
    36   15   33 1
    37   15   34 1
    38   16   35 1
    39   16   36 1
    40   17   37 1
    41   17   38 1
    42   18   39 1
    43   18   40 1
    44   20   41 1
    45   21   42 1
    46   22   43 1
    47   23   44 1
    48   24   45 1
@<TRIPOS>PROPERTY_DATA
  Total_Score	| 8.5237
  Crash		| -0.4486
  Polar		| 2.8732
  FragIndex	| 1
  FragRMSD	| 0.121

