@<TRIPOS>MOLECULE
BindingDB_5542
 49 52 0 0 0
SMALL
NO_CHARGES


@<TRIPOS>ATOM
1    C         6.9805   44.7671   51.4602  C     
2    C         7.4914   43.2220   49.6989  C     
3    N         8.7713   43.6905   49.6349  N     
4    N         6.6294   43.7626   50.6089  N     
5    C         8.3037   45.2368   51.3984  C     
6    C         9.1779   44.6730   50.4747  C     
7    C        10.2192   46.1949   51.6136  C     
8    N         8.9593   46.1802   52.0926  N     
9    N        10.3537   45.2854   50.6305  N     
10   O         6.1379   45.3019   52.3964  O     
11   N         7.1213   42.2577   48.8293  N     
12   C         4.8567   45.7914   51.9572  C     
13   C         3.7093   44.7442   52.1382  C     
14   C         1.8434   45.5476   54.4007  C     
15   C         3.2493   44.9573   54.6829  C     
16   C         3.7104   44.0305   53.5267  C     
17   C         2.3020   45.3680   51.8673  C     
18   C         1.7761   46.2620   53.0246  C     
19   C         5.9070   41.6598   48.7447  C     
20   C         4.1166   40.3258   49.7469  C     
21   C         3.4025   40.3412   48.5348  C     
22   C         3.9553   40.9970   47.4131  C     
23   C         5.2083   41.6512   47.5199  C     
24   C         5.3538   40.9851   49.8579  C     
25   O         2.1648   39.7552   48.5221  O     
26   C         1.8257   39.0578   47.3204  C     
27   H        10.9671   46.7966   51.9603  H     
28   H        11.1679   45.1066   50.1342  H     
29   H         7.7715   42.0082   48.1467  H     
30   H         4.6449   46.6588   52.5785  H     
31   H         4.8788   46.1343   50.9211  H     
32   H         3.8725   43.9684   51.3820  H     
33   H         1.1063   44.7398   54.4245  H     
34   H         1.5884   46.2590   55.1874  H     
35   H         3.9714   45.7694   54.8117  H     
36   H         3.2217   44.3865   55.6164  H     
37   H         3.0287   43.1695   53.4862  H     
38   H         4.7053   43.6358   53.7536  H     
39   H         2.3345   45.9594   50.9472  H     
40   H         1.5805   44.5588   51.7018  H     
41   H         0.7384   46.5410   52.8233  H     
42   H         2.3590   47.1870   53.0703  H     
43   H         3.7259   39.8418   50.5596  H     
44   H         3.4427   41.0125   46.5276  H     
45   H         5.5910   42.1450   46.7099  H     
46   H         5.8569   40.9538   50.7492  H     
47   H         1.6204   39.7738   46.5260  H     
48   H         0.9228   38.4644   47.4979  H     
49   H         2.6194   38.3776   47.0062  H     
@<TRIPOS>BOND
     1    1    4 1
     2    1    5 2
     3    1   10 1
     4    2    3 1
     5    2    4 2
     6    2   11 1
     7    3    6 2
     8    5    6 1
     9    5    8 1
    10    6    9 1
    11    7    8 2
    12    7    9 1
    13   10   12 1
    14   11   19 1
    15   12   13 1
    16   13   16 1
    17   13   17 1
    18   14   15 1
    19   14   18 1
    20   15   16 1
    21   17   18 1
    22   19   23 1
    23   19   24 2
    24   20   21 2
    25   20   24 1
    26   21   22 1
    27   21   25 1
    28   22   23 2
    29   25   26 1
    30    7   27 1
    31    9   28 1
    32   11   29 1
    33   12   30 1
    34   12   31 1
    35   13   32 1
    36   14   33 1
    37   14   34 1
    38   15   35 1
    39   15   36 1
    40   16   37 1
    41   16   38 1
    42   17   39 1
    43   17   40 1
    44   18   41 1
    45   18   42 1
    46   20   43 1
    47   22   44 1
    48   23   45 1
    49   24   46 1
    50   26   47 1
    51   26   48 1
    52   26   49 1
@<TRIPOS>PROPERTY_DATA
  Total_Score	| 8.5575
  Crash		| -0.6325
  Polar		| 2.8694
  FragIndex	| 1
  FragRMSD	| 0.525

