@<TRIPOS>MOLECULE
BindingDB_5541
 46 49 0 0 0
SMALL
NO_CHARGES


@<TRIPOS>ATOM
1    C         7.0192   44.7695   51.4388  C     
2    C         7.5352   43.2214   49.6821  C     
3    N         8.8246   43.6709   49.6399  N     
4    N         6.6608   43.7756   50.5770  N     
5    C         8.3470   45.2112   51.4077  C     
6    C         9.2263   44.6436   50.4947  C     
7    C        10.2463   46.1850   51.6251  C     
8    N         8.9872   46.1649   52.0993  N     
9    N        10.3990   45.2639   50.6573  N     
10   O         6.1734   45.3625   52.3288  O     
11   N         7.1638   42.2708   48.7961  N     
12   C         4.8763   45.7834   51.8680  C     
13   C         3.7592   44.7502   52.2159  C     
14   C         2.0457   45.7023   54.5376  C     
15   C         3.4695   45.1351   54.7659  C     
16   C         3.8715   44.1372   53.6496  C     
17   C         2.3285   45.3402   52.0074  C     
18   C         1.8833   46.3239   53.1265  C     
19   C         5.9528   41.6537   48.7303  C     
20   C         4.1175   40.4102   49.7675  C     
21   C         3.4640   40.3303   48.5232  C     
22   C         4.0608   40.8971   47.3816  C     
23   C         5.3079   41.5430   47.4799  C     
24   C         5.3570   41.0652   49.8676  C     
25   O         2.2609   39.7182   48.4163  O     
26   H        10.9780   46.8156   51.9546  H     
27   H        11.2105   45.0942   50.1578  H     
28   H         7.8105   42.0306   48.1147  H     
29   H         4.6858   46.7230   52.3871  H     
30   H         4.8639   46.0064   50.7920  H     
31   H         3.8739   43.9223   51.5082  H     
32   H         1.3150   44.8990   54.6636  H     
33   H         1.8366   46.4641   55.2919  H     
34   H         4.1891   45.9568   54.7986  H     
35   H         3.5035   44.6249   55.7327  H     
36   H         3.2143   43.2642   53.7122  H     
37   H         4.8875   43.7822   53.8363  H     
38   H         2.2780   45.8478   51.0413  H     
39   H         1.6109   44.5163   51.9762  H     
40   H         0.8340   46.5914   52.9755  H     
41   H         2.4653   47.2467   53.0652  H     
42   H         3.6934   39.9946   50.6006  H     
43   H         3.5875   40.8401   46.4760  H     
44   H         5.7353   41.9426   46.6393  H     
45   H         5.8384   41.0872   50.7698  H     
46   H         2.4351   38.7769   48.6251  H     
@<TRIPOS>BOND
     1    1    4 1
     2    1    5 2
     3    1   10 1
     4    2    3 1
     5    2    4 2
     6    2   11 1
     7    3    6 2
     8    5    6 1
     9    5    8 1
    10    6    9 1
    11    7    8 2
    12    7    9 1
    13   10   12 1
    14   11   19 1
    15   12   13 1
    16   13   16 1
    17   13   17 1
    18   14   15 1
    19   14   18 1
    20   15   16 1
    21   17   18 1
    22   19   23 1
    23   19   24 2
    24   20   21 2
    25   20   24 1
    26   21   22 1
    27   21   25 1
    28   22   23 2
    29    7   26 1
    30    9   27 1
    31   11   28 1
    32   12   29 1
    33   12   30 1
    34   13   31 1
    35   14   32 1
    36   14   33 1
    37   15   34 1
    38   15   35 1
    39   16   36 1
    40   16   37 1
    41   17   38 1
    42   17   39 1
    43   18   40 1
    44   18   41 1
    45   20   42 1
    46   22   43 1
    47   23   44 1
    48   24   45 1
    49   25   46 1
@<TRIPOS>PROPERTY_DATA
  Total_Score	| 9.2516
  Crash		| -0.4277
  Polar		| 3.9859
  FragIndex	| 1
  FragRMSD	| 0.515

