@<TRIPOS>MOLECULE
BindingDB_5548
 50 53 0 0 0
SMALL
NO_CHARGES


@<TRIPOS>ATOM
1    C         6.9665   44.8420   51.5022  C     
2    C         7.4323   43.2622   49.7490  C     
3    N         8.7122   43.7158   49.6597  N     
4    N         6.5895   43.8324   50.6651  N     
5    C         8.2853   45.3069   51.3942  C     
6    C         9.1352   44.7101   50.4737  C     
7    C        10.2256   46.2152   51.5730  C     
8    N         8.9753   46.2373   52.0739  N     
9    N        10.3326   45.2859   50.6067  N     
10   O         6.1819   45.3183   52.5171  O     
11   N         7.1058   42.2536   48.9060  N     
12   C         4.8980   45.8888   52.1998  C     
13   C         3.7247   44.8707   52.3523  C     
14   C         1.7504   45.5856   54.5585  C     
15   C         3.1477   45.0040   54.8911  C     
16   C         3.6968   44.1313   53.7304  C     
17   C         2.3270   45.5090   52.0522  C     
18   C         1.7675   46.3680   53.2208  C     
19   C         5.9382   41.5643   48.7330  C     
20   C         3.6403   40.8857   49.3002  C     
21   C         3.5388   40.1445   48.0983  C     
22   C         4.6640   40.0743   47.2527  C     
23   C         5.8469   40.7642   47.5737  C     
24   C         4.8310   41.5701   49.6181  C     
25   C         0.9852   39.4640   48.9631  C     
26   S         2.0895   39.3477   47.5283  S     
27   O         1.5026   40.6258   46.7716  O     
28   H        10.9968   46.8060   51.8875  H     
29   H        11.1341   45.0643   50.1111  H     
30   H         7.8128   41.9940   48.2986  H     
31   H         4.7391   46.7066   52.9030  H     
32   H         4.8976   46.3187   51.1933  H     
33   H         3.8884   44.1040   51.5852  H     
34   H         1.0251   44.7704   54.4875  H     
35   H         1.4327   46.2529   55.3617  H     
36   H         3.8448   45.8209   55.0977  H     
37   H         3.0738   44.3921   55.7952  H     
38   H         3.0614   43.2431   53.6380  H     
39   H         4.6986   43.7793   53.9888  H     
40   H         2.3824   46.1240   51.1482  H     
41   H         1.6164   44.7006   51.8483  H     
42   H         0.7448   46.6767   52.9800  H     
43   H         2.3698   47.2750   53.3356  H     
44   H         2.8470   40.9485   49.9486  H     
45   H         4.6348   39.5324   46.3824  H     
46   H         6.6459   40.7007   46.9347  H     
47   H         4.8597   42.0818   50.5017  H     
48   H         1.4677   39.0172   49.8329  H     
49   H         0.0700   38.8943   48.7534  H     
50   H         0.7211   40.5031   49.1951  H     
@<TRIPOS>BOND
     1    1    4 1
     2    1    5 2
     3    1   10 1
     4    2    3 1
     5    2    4 2
     6    2   11 1
     7    3    6 2
     8    5    6 1
     9    5    8 1
    10    6    9 1
    11    7    8 2
    12    7    9 1
    13   10   12 1
    14   11   19 1
    15   12   13 1
    16   13   16 1
    17   13   17 1
    18   14   15 1
    19   14   18 1
    20   15   16 1
    21   17   18 1
    22   19   23 1
    23   19   24 2
    24   20   21 2
    25   20   24 1
    26   21   22 1
    27   21   26 1
    28   22   23 2
    29   25   26 1
    30   26   27 2
    31    7   28 1
    32    9   29 1
    33   11   30 1
    34   12   31 1
    35   12   32 1
    36   13   33 1
    37   14   34 1
    38   14   35 1
    39   15   36 1
    40   15   37 1
    41   16   38 1
    42   16   39 1
    43   17   40 1
    44   17   41 1
    45   18   42 1
    46   18   43 1
    47   20   44 1
    48   22   45 1
    49   23   46 1
    50   24   47 1
    51   25   48 1
    52   25   49 1
    53   25   50 1
@<TRIPOS>PROPERTY_DATA
  Total_Score	| 8.1791
  Crash		| -0.5306
  Polar		| 2.8033
  FragIndex	| 1
  FragRMSD	| 0.464

