@<TRIPOS>MOLECULE
BindingDB_5544
 50 53 0 0 0
SMALL
NO_CHARGES


@<TRIPOS>ATOM
1    C         5.5239   44.2400   52.5494  C     
2    C         4.0999   42.3708   52.0705  C     
3    N         3.4711   42.5069   53.2825  N     
4    N         5.1158   43.2284   51.7297  N     
5    C         4.8988   44.3763   53.8087  C     
6    C         3.8672   43.4924   54.1410  C     
7    C         4.1666   44.9228   55.7559  C     
8    N         5.0984   45.2423   54.8252  N     
9    N         3.4399   43.8601   55.3620  N     
10   O         6.5861   45.0192   52.2160  O     
11   N         3.6727   41.3632   51.2729  N     
12   C         6.3364   46.4375   52.1728  C     
13   C         7.6840   47.1731   52.4458  C     
14   C        10.3925   47.2469   53.7242  C     
15   C         9.2335   48.0882   54.3075  C     
16   C         7.8703   47.4261   53.9753  C     
17   C         8.8940   46.4137   51.8221  C     
18   C        10.2444   47.0808   52.1845  C     
19   C         3.9803   41.0014   49.9904  C     
20   C         5.0221   41.1849   47.7691  C     
21   C         4.1473   40.2059   47.2552  C     
22   C         3.2217   39.5944   48.1173  C     
23   C         3.1532   39.9786   49.4694  C     
24   C         4.9487   41.5702   49.1251  C     
25   N         4.3374   38.0751   45.4370  N     
26   S         4.1237   39.7383   45.5767  S     
27   O         2.6453   40.0316   45.0629  O     
28   O         5.1719   40.5423   44.6866  O     
29   H         4.0456   45.4253   56.6421  H     
30   H         2.7228   43.4369   55.8483  H     
31   H         2.9915   40.8221   51.6916  H     
32   H         5.9604   46.6717   51.1596  H     
33   H         5.5984   46.7733   52.9197  H     
34   H         7.6215   48.1550   51.9678  H     
35   H        11.3451   47.7245   53.9635  H     
36   H        10.3813   46.2632   54.2015  H     
37   H         9.3420   48.1658   55.3982  H     
38   H         9.2593   49.1048   53.8977  H     
39   H         7.0717   48.0693   54.3524  H     
40   H         7.8135   46.4784   54.5183  H     
41   H         8.9273   45.3818   52.1844  H     
42   H         8.7882   46.3963   50.7312  H     
43   H        10.2918   48.0603   51.6953  H     
44   H        11.0591   46.4624   51.7997  H     
45   H         5.7104   41.6287   47.1552  H     
46   H         2.5763   38.8695   47.7862  H     
47   H         2.4464   39.5306   50.0686  H     
48   H         5.5917   42.2910   49.4457  H     
49   H         4.0608   37.6085   44.6182  H     
50   H         4.9796   37.6408   46.0361  H     
@<TRIPOS>BOND
     1    1    4 1
     2    1    5 2
     3    1   10 1
     4    2    3 1
     5    2    4 2
     6    2   11 1
     7    3    6 2
     8    5    6 1
     9    5    8 1
    10    6    9 1
    11    7    8 2
    12    7    9 1
    13   10   12 1
    14   11   19 1
    15   12   13 1
    16   13   16 1
    17   13   17 1
    18   14   15 1
    19   14   18 1
    20   15   16 1
    21   17   18 1
    22   19   23 1
    23   19   24 2
    24   20   21 2
    25   20   24 1
    26   21   22 1
    27   21   26 1
    28   22   23 2
    29   25   26 am
    30   26   27 2
    31   26   28 2
    32    7   29 1
    33    9   30 1
    34   11   31 1
    35   12   32 1
    36   12   33 1
    37   13   34 1
    38   14   35 1
    39   14   36 1
    40   15   37 1
    41   15   38 1
    42   16   39 1
    43   16   40 1
    44   17   41 1
    45   17   42 1
    46   18   43 1
    47   18   44 1
    48   20   45 1
    49   22   46 1
    50   23   47 1
    51   24   48 1
    52   25   49 1
    53   25   50 1
@<TRIPOS>PROPERTY_DATA
  Total_Score	| 5.6347
  Crash		| -2.2108
  Polar		| 2.4097
  FragIndex	| 1
  FragRMSD	| 0.739

