@<TRIPOS>MOLECULE
BindingDB_5546
 56 59 0 0 0
SMALL
NO_CHARGES


@<TRIPOS>ATOM
1    C         7.0189   44.8897   51.5958  C     
2    C         7.4082   43.2337   49.9051  C     
3    N         8.7005   43.6554   49.7637  N     
4    N         6.5939   43.8567   50.8130  N     
5    C         8.3485   45.3109   51.4575  C     
6    C         9.1662   44.6829   50.5238  C     
7    C        10.2899   46.2172   51.5536  C     
8    N         9.0592   46.2569   52.0926  N     
9    N        10.3613   45.2748   50.6019  N     
10   O         6.2568   45.4650   52.5788  O     
11   N         7.0213   42.1969   49.1167  N     
12   C         4.9736   46.0080   52.2280  C     
13   C         3.8112   44.9686   52.3113  C     
14   C         1.7800   45.5952   54.4630  C     
15   C         3.1770   45.0301   54.8266  C     
16   C         3.7624   44.1876   53.6654  C     
17   C         2.4216   45.5967   51.9783  C     
18   C         1.8183   46.4151   53.1490  C     
19   C         5.8059   41.5763   48.9626  C     
20   C         4.4539   40.1059   47.5235  C     
21   C         3.3039   40.3673   48.2974  C     
22   C         3.4234   41.1569   49.4586  C     
23   C         4.6656   41.7419   49.7822  C     
24   C         5.6848   40.7085   47.8602  C     
25   S         1.7283   39.7920   47.8297  S     
26   O         1.3050   40.4879   46.4539  O     
27   O         1.7774   38.2372   47.4737  O     
28   N         0.5202   40.1272   48.9750  N     
29   C        -0.0222   39.0661   49.7657  C     
30   C        -0.1333   41.4049   48.9214  C     
31   H        11.0598   46.8182   51.8404  H     
32   H        11.1527   45.0654   50.0794  H     
33   H         7.7134   41.8664   48.5173  H     
34   H         4.7872   46.8036   52.9473  H     
35   H         5.0004   46.4779   51.2367  H     
36   H         4.0072   44.2396   51.5315  H     
37   H         1.0746   44.7690   54.3524  H     
38   H         1.4248   46.2332   55.2735  H     
39   H         3.8562   45.8530   55.0667  H     
40   H         3.0895   44.4016   55.7163  H     
41   H         3.1437   43.2967   53.5347  H     
42   H         4.7597   43.8364   53.9409  H     
43   H         2.5073   46.2379   51.0950  H     
44   H         1.7245   44.7917   51.7233  H     
45   H         0.8012   46.7105   52.8861  H     
46   H         2.3992   47.3312   53.2984  H     
47   H         4.3914   39.5033   46.7020  H     
48   H         2.6046   41.3393   50.0689  H     
49   H         4.7161   42.2848   50.6406  H     
50   H         6.4959   40.5246   47.2674  H     
51   H        -0.8725   38.6250   49.2437  H     
52   H        -0.3517   39.4393   50.7406  H     
53   H         0.7281   38.2984   49.9582  H     
54   H         0.5819   42.1916   48.6262  H     
55   H        -0.5441   41.6764   49.9015  H     
56   H        -0.9562   41.3662   48.1999  H     
@<TRIPOS>BOND
     1    1    4 1
     2    1    5 2
     3    1   10 1
     4    2    3 1
     5    2    4 2
     6    2   11 1
     7    3    6 2
     8    5    6 1
     9    5    8 1
    10    6    9 1
    11    7    8 2
    12    7    9 1
    13   10   12 1
    14   11   19 1
    15   12   13 1
    16   13   16 1
    17   13   17 1
    18   14   15 1
    19   14   18 1
    20   15   16 1
    21   17   18 1
    22   19   23 1
    23   19   24 2
    24   20   21 2
    25   20   24 1
    26   21   22 1
    27   21   25 1
    28   22   23 2
    29   25   26 2
    30   25   27 2
    31   25   28 1
    32   28   29 1
    33   28   30 1
    34    7   31 1
    35    9   32 1
    36   11   33 1
    37   12   34 1
    38   12   35 1
    39   13   36 1
    40   14   37 1
    41   14   38 1
    42   15   39 1
    43   15   40 1
    44   16   41 1
    45   16   42 1
    46   17   43 1
    47   17   44 1
    48   18   45 1
    49   18   46 1
    50   20   47 1
    51   22   48 1
    52   23   49 1
    53   24   50 1
    54   29   51 1
    55   29   52 1
    56   29   53 1
    57   30   54 1
    58   30   55 1
    59   30   56 1
@<TRIPOS>PROPERTY_DATA
  Total_Score	| 8.6216
  Crash		| -0.7007
  Polar		| 3.5190
  FragIndex	| 1
  FragRMSD	| 0.544

