@<TRIPOS>MOLECULE
BindingDB_50151333
 46 48 0 0 0
SMALL
NO_CHARGES


@<TRIPOS>ATOM
1    S        26.8294   43.4172   13.9500  S     
2    C        27.5603   44.1601   15.3459  C     
3    C        28.2979   43.9905   17.6826  C     
4    N        28.7301   43.9453   20.1294  N     
5    C        28.7174   45.3474   17.6531  C     
6    C        27.7351   43.4071   16.5243  C     
7    O        27.0480   41.8365   13.8679  O     
8    O        25.2622   43.5397   14.2345  O     
9    N        26.9392   44.1392   12.4332  N     
10   C        28.4454   43.1642   18.9080  C     
11   C        29.3392   45.9912   18.8464  C     
12   C        27.9536   45.5124   15.3258  C     
13   C        28.5246   46.1000   16.4693  C     
14   C        29.7683   44.9887   19.9634  C     
15   C        28.1733   44.4585   11.7939  C     
16   F        29.1040   46.6131   21.6588  F     
17   C        27.0355   45.6932    9.7805  C     
18   C        30.0595   45.6812   21.3235  C     
19   C        27.9842   44.6450   10.2606  C     
20   C        26.5033   45.6115    8.4727  C     
21   C        26.5848   46.7437   10.6144  C     
22   C        25.4811   46.4904    8.0513  C     
23   C        25.5706   47.6274   10.1971  C     
24   C        25.0062   47.4923    8.9192  C     
25   H        27.8589   44.3930   20.4175  H     
26   H        29.0193   43.2914   20.8617  H     
27   H        27.4346   42.4317   16.5523  H     
28   H        26.1326   44.5439   12.0849  H     
29   H        27.5145   42.6268   19.0975  H     
30   H        29.2394   42.4287   18.7534  H     
31   H        30.2306   46.5474   18.5360  H     
32   H        28.6134   46.7104   19.2345  H     
33   H        27.8222   46.0805   14.4825  H     
34   H        28.8060   47.0830   16.4279  H     
35   H        30.6926   44.4877   19.6460  H     
36   H        28.5884   45.3706   12.2348  H     
37   H        28.8883   43.6451   11.9718  H     
38   H        30.0904   44.9326   22.1148  H     
39   H        31.0273   46.1786   21.2860  H     
40   H        28.9550   44.8333    9.7930  H     
41   H        27.6290   43.6779    9.8935  H     
42   H        26.8217   44.8816    7.8292  H     
43   H        26.9782   46.8583   11.5502  H     
44   H        25.0752   46.3936    7.1163  H     
45   H        25.2399   48.3619   10.8297  H     
46   H        24.2632   48.1277    8.6196  H     
@<TRIPOS>BOND
     1    1    2 1
     2    1    7 2
     3    1    8 2
     4    1    9 1
     5    2    6 1
     6    2   12 2
     7    3    5 1
     8    3    6 2
     9    3   10 1
    10    4   10 1
    11    4   14 1
    12    5   11 1
    13    5   13 2
    14    9   15 1
    15   11   14 1
    16   12   13 1
    17   14   18 1
    18   15   19 1
    19   16   18 1
    20   17   19 1
    21   17   20 2
    22   17   21 1
    23   20   22 1
    24   21   23 2
    25   22   24 2
    26   23   24 1
    27    4   25 1
    28    4   26 1
    29    6   27 1
    30    9   28 1
    31   10   29 1
    32   10   30 1
    33   11   31 1
    34   11   32 1
    35   12   33 1
    36   13   34 1
    37   14   35 1
    38   15   36 1
    39   15   37 1
    40   18   38 1
    41   18   39 1
    42   19   40 1
    43   19   41 1
    44   20   42 1
    45   21   43 1
    46   22   44 1
    47   23   45 1
    48   24   46 1
@<TRIPOS>PROPERTY_DATA
  Total_Score	| 7.0615
  Crash		| -5.9117
  Polar		| 2.4362
  FragIndex	| 1
  FragRMSD	| 0.360

