@<TRIPOS>MOLECULE
BindingDB_50186679
 39 40 0 0 0
SMALL
NO_CHARGES


@<TRIPOS>ATOM
1    C        27.7162   45.5431   15.4700  C     
2    C        27.4216   44.1664   15.4264  C     
3    C        27.6562   43.3657   16.5656  C     
4    C        28.2663   46.1093   16.6315  C     
5    C        28.4993   45.3182   17.7760  C     
6    C        28.2080   43.9277   17.7395  C     
7    C        28.4627   43.0552   18.9201  C     
8    N        29.3484   43.6825   19.9263  N     
9    C        28.9610   45.0746   20.2611  C     
10   C        29.0877   45.9582   18.9859  C     
11   C        29.7991   45.5795   21.4592  C     
12   S        26.7811   43.4582   13.9758  S     
13   O        27.2267   41.9362   13.8333  O     
14   O        25.2132   43.4190   14.2625  O     
15   N        26.9789   44.2978   12.5243  N     
16   C        28.2481   44.4971   11.9057  C     
17   C        28.1264   44.4304   10.3549  C     
18   C        27.4798   45.6789    9.7148  C     
19   F        31.0785   45.8855   21.0792  F     
20   F        29.2391   46.7005   22.0196  F     
21   H        27.5393   46.1447   14.6616  H     
22   H        27.4367   42.3655   16.5364  H     
23   H        28.4832   47.1095   16.6320  H     
24   H        27.5115   42.7971   19.3900  H     
25   H        28.9441   42.1270   18.6027  H     
26   H        29.3306   43.1170   20.7807  H     
27   H        30.3050   43.6911   19.5561  H     
28   H        27.9117   45.0715   20.5815  H     
29   H        30.1393   46.1701   18.7683  H     
30   H        28.5765   46.9082   19.1753  H     
31   H        29.8454   44.7981   22.2192  H     
32   H        26.1922   44.6605   12.0894  H     
33   H        28.6457   45.4741   12.2025  H     
34   H        28.9532   43.7292   12.2325  H     
35   H        29.1219   44.3109    9.9269  H     
36   H        27.5480   43.5418   10.0772  H     
37   H        26.4610   45.8137   10.0867  H     
38   H        27.4425   45.5558    8.6293  H     
39   H        28.0609   46.5738    9.9368  H     
@<TRIPOS>BOND
     1    1    2 2
     2    1    4 1
     3    2    3 1
     4    2   12 1
     5    3    6 2
     6    4    5 2
     7    5    6 1
     8    5   10 1
     9    6    7 1
    10    7    8 1
    11    8    9 1
    12    9   10 1
    13    9   11 1
    14   11   19 1
    15   11   20 1
    16   12   13 2
    17   12   14 2
    18   12   15 1
    19   15   16 1
    20   16   17 1
    21   17   18 1
    22    1   21 1
    23    3   22 1
    24    4   23 1
    25    7   24 1
    26    7   25 1
    27    8   26 1
    28    8   27 1
    29    9   28 1
    30   10   29 1
    31   10   30 1
    32   11   31 1
    33   15   32 1
    34   16   33 1
    35   16   34 1
    36   17   35 1
    37   17   36 1
    38   18   37 1
    39   18   38 1
    40   18   39 1
@<TRIPOS>PROPERTY_DATA
  Total_Score	| 10.7429
  Crash		| -1.5880
  Polar		| 3.6651
  FragIndex	| 1
  FragRMSD	| 0.184

