@<TRIPOS>MOLECULE
BindingDB_50186680
 36 37 0 0 0
SMALL
NO_CHARGES


@<TRIPOS>ATOM
1    C        27.7909   45.4917   15.3587  C     
2    C        27.3934   44.1407   15.3457  C     
3    C        27.5612   43.3506   16.5026  C     
4    C        28.3854   46.0383   16.5049  C     
5    C        28.5868   45.2453   17.6563  C     
6    C        28.1248   43.9054   17.6704  C     
7    C        28.2399   43.0627   18.8858  C     
8    N        28.5453   43.8397   20.1069  N     
9    C        29.6402   44.8187   19.9412  C     
10   C        29.2580   45.8504   18.8416  C     
11   C        29.9650   45.4600   21.3143  C     
12   S        26.7002   43.4323   13.9225  S     
13   O        26.9896   41.8684   13.8004  O     
14   O        25.1249   43.5350   14.1600  O     
15   N        26.9729   44.1964   12.4487  N     
16   C        28.2590   44.4408   11.9035  C     
17   C        28.1889   44.2505   10.3750  C     
18   F        31.1331   46.1833   21.2329  F     
19   F        28.9675   46.3020   21.7452  F     
20   H        27.6543   46.0779   14.5298  H     
21   H        27.2562   42.3751   16.5029  H     
22   H        28.6819   47.0155   16.4878  H     
23   H        27.2964   42.5444   19.0706  H     
24   H        29.0157   42.3096   18.7306  H     
25   H        27.7056   44.3507   20.3907  H     
26   H        28.8001   43.1890   20.8531  H     
27   H        30.5302   44.2706   19.6132  H     
28   H        30.1723   46.3553   18.5111  H     
29   H        28.5857   46.6074   19.2493  H     
30   H        30.0917   44.6686   22.0497  H     
31   H        26.1988   44.5374   11.9673  H     
32   H        28.5526   45.4633   12.1252  H     
33   H        29.0000   43.7592   12.3171  H     
34   H        27.8487   43.2339   10.1440  H     
35   H        29.1744   44.4020    9.9266  H     
36   H        27.4867   44.9655    9.9321  H     
@<TRIPOS>BOND
     1    1    2 2
     2    1    4 1
     3    2    3 1
     4    2   12 1
     5    3    6 2
     6    4    5 2
     7    5    6 1
     8    5   10 1
     9    6    7 1
    10    7    8 1
    11    8    9 1
    12    9   10 1
    13    9   11 1
    14   11   18 1
    15   11   19 1
    16   12   13 2
    17   12   14 2
    18   12   15 1
    19   15   16 1
    20   16   17 1
    21    1   20 1
    22    3   21 1
    23    4   22 1
    24    7   23 1
    25    7   24 1
    26    8   25 1
    27    8   26 1
    28    9   27 1
    29   10   28 1
    30   10   29 1
    31   11   30 1
    32   15   31 1
    33   16   32 1
    34   16   33 1
    35   17   34 1
    36   17   35 1
    37   17   36 1
@<TRIPOS>PROPERTY_DATA
  Total_Score	| 8.8082
  Crash		| -1.8848
  Polar		| 3.3010
  FragIndex	| 1
  FragRMSD	| 0.411

