@<TRIPOS>MOLECULE
BindingDB_50163108
 39 40 0 0 0
SMALL
NO_CHARGES


@<TRIPOS>ATOM
1    S        27.4237   43.2102   14.0009  S     
2    C        27.9136   44.0368   15.4558  C     
3    C        27.3671   45.5683    9.2909  C     
4    C        28.5895   43.9692   17.8222  C     
5    N        29.5416   43.9202   20.1315  N     
6    C        28.7071   45.3829   17.8290  C     
7    C        28.1818   43.3119   16.6388  C     
8    O        27.7539   41.6602   14.1014  O     
9    O        25.8398   43.2507   13.8813  O     
10   N        28.1365   43.7454   12.5656  N     
11   C        27.7552   44.3978   10.2290  C     
12   C        28.8504   43.1737   19.0523  C     
13   C        29.1464   46.1132   19.0445  C     
14   C        28.0504   45.4396   15.4684  C     
15   C        28.4467   46.1048   16.6424  C     
16   F        27.3290   45.1468    7.9840  F     
17   F        26.1338   46.0924    9.5920  F     
18   F        28.2969   46.5743    9.3876  F     
19   C        29.0159   45.2891   20.3576  C     
20   C        27.5642   44.7361   11.7312  C     
21   F        29.4027   45.4562   22.7424  F     
22   C        29.7592   45.9881   21.5280  C     
23   H        29.4583   43.3633   20.9861  H     
24   H        30.5338   43.9916   19.8914  H     
25   H        28.0908   42.2907   16.6406  H     
26   H        29.0909   43.5841   12.4577  H     
27   H        27.1328   43.5322    9.9859  H     
28   H        28.8015   44.1245   10.0366  H     
29   H        27.8980   42.8008   19.4321  H     
30   H        29.4774   42.3128   18.8071  H     
31   H        30.1885   46.4038   18.8903  H     
32   H        28.5527   47.0223   19.1539  H     
33   H        27.8650   45.9861   14.6233  H     
34   H        28.5413   47.1250   16.6246  H     
35   H        27.9562   45.2176   20.6290  H     
36   H        26.4946   44.8281   11.9309  H     
37   H        28.0484   45.6873   11.9613  H     
38   H        30.8425   45.8794   21.4093  H     
39   H        29.5179   47.0557   21.5452  H     
@<TRIPOS>BOND
     1    1    2 1
     2    1    8 2
     3    1    9 2
     4    1   10 1
     5    2    7 1
     6    2   14 2
     7    3   11 1
     8    3   16 1
     9    3   17 1
    10    3   18 1
    11    4    6 1
    12    4    7 2
    13    4   12 1
    14    5   12 1
    15    5   19 1
    16    6   13 1
    17    6   15 2
    18   10   20 1
    19   11   20 1
    20   13   19 1
    21   14   15 1
    22   19   22 1
    23   21   22 1
    24    5   23 1
    25    5   24 1
    26    7   25 1
    27   10   26 1
    28   11   27 1
    29   11   28 1
    30   12   29 1
    31   12   30 1
    32   13   31 1
    33   13   32 1
    34   14   33 1
    35   15   34 1
    36   19   35 1
    37   20   36 1
    38   20   37 1
    39   22   38 1
    40   22   39 1
@<TRIPOS>PROPERTY_DATA
  Total_Score	| 10.0592
  Crash		| -1.4964
  Polar		| 2.8697
  FragIndex	| 1
  FragRMSD	| 0.654

