@<TRIPOS>MOLECULE
BindingDB_50240934
 40 41 0 0 0
SMALL
NO_CHARGES


@<TRIPOS>ATOM
1    C        27.5312   44.1620   15.5287  C     
2    C        27.8558   43.3926   16.6667  C     
3    C        28.2440   46.1726   16.7183  C     
4    C        27.7218   45.5584   15.5663  C     
5    C        28.5767   45.4081   17.8589  C     
6    C        28.3846   44.0001   17.8290  C     
7    C        28.7111   43.1696   19.0161  C     
8    N        29.4954   43.8698   20.0654  N     
9    C        29.0495   45.2607   20.3542  C     
10   C        29.1586   46.0882   19.0415  C     
11   C        29.8884   45.9125   21.4877  C     
12   O        29.3509   45.6671   22.7817  O     
13   S        26.8939   43.3815   14.1050  S     
14   N        26.9991   44.1750   12.6197  N     
15   O        27.3710   41.8676   13.9584  O     
16   O        25.3295   43.2778   14.3781  O     
17   C        28.2107   44.4194   11.9176  C     
18   C        28.0412   44.2975   10.3841  C     
19   C        27.4022   45.5187    9.6675  C     
20   F        27.4380   45.3446    8.3046  F     
21   F        26.0866   45.6658   10.0238  F     
22   F        28.0690   46.6923    9.9520  F     
23   H        27.7174   42.3796   16.6507  H     
24   H        28.3794   47.1886   16.7105  H     
25   H        27.4876   46.1379   14.7597  H     
26   H        27.7777   42.7983   19.4541  H     
27   H        29.3060   42.3035   18.7020  H     
28   H        29.4466   43.2991   20.9128  H     
29   H        30.4685   43.9013   19.7580  H     
30   H        28.0002   45.2410   20.6722  H     
31   H        30.2055   46.2938   18.8101  H     
32   H        28.6538   47.0435   19.1947  H     
33   H        30.9209   45.5433   21.4446  H     
34   H        29.9020   46.9991   21.3602  H     
35   H        29.5398   44.7229   22.9725  H     
36   H        26.1864   44.5822   12.2829  H     
37   H        28.5547   45.4289   12.1571  H     
38   H        28.9852   43.7194   12.2432  H     
39   H        29.0324   44.1445    9.9494  H     
40   H        27.4361   43.4051   10.1728  H     
@<TRIPOS>BOND
     1    1    2 2
     2    1    4 1
     3    1   13 1
     4    2    6 1
     5    3    4 2
     6    3    5 1
     7    5    6 2
     8    5   10 1
     9    6    7 1
    10    7    8 1
    11    8    9 1
    12    9   10 1
    13    9   11 1
    14   11   12 1
    15   13   14 1
    16   13   15 2
    17   13   16 2
    18   14   17 1
    19   17   18 1
    20   18   19 1
    21   19   20 1
    22   19   21 1
    23   19   22 1
    24    2   23 1
    25    3   24 1
    26    4   25 1
    27    7   26 1
    28    7   27 1
    29    8   28 1
    30    8   29 1
    31    9   30 1
    32   10   31 1
    33   10   32 1
    34   11   33 1
    35   11   34 1
    36   12   35 1
    37   14   36 1
    38   17   37 1
    39   17   38 1
    40   18   39 1
    41   18   40 1
@<TRIPOS>PROPERTY_DATA
  Total_Score	| 11.1642
  Crash		| -1.6400
  Polar		| 4.0113
  FragIndex	| 1
  FragRMSD	| 0.123

