@<TRIPOS>MOLECULE
BindingDB_50163107
 39 40 0 0 0
SMALL
NO_CHARGES


@<TRIPOS>ATOM
1    S        27.3392   43.4191   13.9067  S     
2    C        27.8673   44.1661   15.3861  C     
3    C        28.5510   43.9912   17.7406  C     
4    N        29.5122   43.8282   20.0461  N     
5    C        28.7170   45.4001   17.8008  C     
6    C        28.1112   43.3906   16.5400  C     
7    O        27.5325   41.8395   13.9364  O     
8    O        25.7633   43.6044   13.7882  O     
9    N        28.1149   43.9794   12.5122  N     
10   C        28.8004   43.1417   18.9404  C     
11   C        29.1676   46.0763   19.0472  C     
12   C        28.0482   45.5623   15.4469  C     
13   C        28.4710   46.1698   16.6388  C     
14   C        29.0274   45.2009   20.3280  C     
15   F        29.4175   47.0849   21.7916  F     
16   C        29.8010   45.7896   21.5366  C     
17   C        27.5512   44.9517   11.6369  C     
18   C        28.1711   44.9139   10.2098  C     
19   C        27.1217   44.8456    9.0846  C     
20   H        29.4013   43.2533   20.8881  H     
21   H        30.5075   43.8767   19.8021  H     
22   H        27.9862   42.3747   16.5008  H     
23   H        29.0789   43.8167   12.4286  H     
24   H        27.8399   42.7714   19.3095  H     
25   H        29.4074   42.2803   18.6515  H     
26   H        30.2114   46.3551   18.8991  H     
27   H        28.5886   46.9899   19.1939  H     
28   H        27.8752   46.1422   14.6275  H     
29   H        28.5950   47.1901   16.6618  H     
30   H        27.9666   45.1379   20.6014  H     
31   H        29.6015   45.1959   22.4318  H     
32   H        30.8759   45.7759   21.3426  H     
33   H        26.4656   44.7915   11.5824  H     
34   H        27.7415   45.9368   12.0750  H     
35   H        28.7698   45.8148   10.0654  H     
36   H        28.8332   44.0465   10.1113  H     
37   H        26.6046   43.8822    9.1194  H     
38   H        27.6004   44.9453    8.1094  H     
39   H        26.3857   45.6478    9.1834  H     
@<TRIPOS>BOND
     1    1    2 1
     2    1    7 2
     3    1    8 2
     4    1    9 1
     5    2    6 1
     6    2   12 2
     7    3    5 1
     8    3    6 2
     9    3   10 1
    10    4   10 1
    11    4   14 1
    12    5   11 1
    13    5   13 2
    14    9   17 1
    15   11   14 1
    16   12   13 1
    17   14   16 1
    18   15   16 1
    19   17   18 1
    20   18   19 1
    21    4   20 1
    22    4   21 1
    23    6   22 1
    24    9   23 1
    25   10   24 1
    26   10   25 1
    27   11   26 1
    28   11   27 1
    29   12   28 1
    30   13   29 1
    31   14   30 1
    32   16   31 1
    33   16   32 1
    34   17   33 1
    35   17   34 1
    36   18   35 1
    37   18   36 1
    38   19   37 1
    39   19   38 1
    40   19   39 1
@<TRIPOS>PROPERTY_DATA
  Total_Score	| 10.6566
  Crash		| -0.9516
  Polar		| 3.1498
  FragIndex	| 1
  FragRMSD	| 0.528

