@<TRIPOS>MOLECULE
BindingDB_50151344
 42 43 0 0 0
SMALL
NO_CHARGES


@<TRIPOS>ATOM
1    S        26.5444   43.4251   14.0803  S     
2    C        27.3139   44.1501   15.4610  C     
3    C        28.1731   43.9773   17.7547  C     
4    N        28.7132   43.9928   20.1821  N     
5    C        28.6500   45.3110   17.6706  C     
6    C        27.5296   43.3998   16.6338  C     
7    O        26.8214   41.8600   13.9540  O     
8    O        24.9849   43.5846   14.3344  O     
9    N        26.8589   44.1769   12.6076  N     
10   C        28.3510   43.1782   18.9964  C     
11   C        29.3754   45.9581   18.8044  C     
12   C        27.7330   45.4953   15.4083  C     
13   C        28.4031   46.0642   16.5045  C     
14   C        29.7973   44.9624   19.9287  C     
15   F        29.2138   46.5169   21.7121  F     
16   C        30.1973   45.6833   21.2435  C     
17   C        28.1728   44.3572   12.1016  C     
18   C        28.2983   45.6686   11.2790  C     
19   C        28.4000   45.4772    9.7517  C     
20   C        27.1011   45.0024    9.0616  C     
21   H        27.8879   44.5088   20.4882  H     
22   H        28.9976   43.3532   20.9263  H     
23   H        27.2203   42.4243   16.6816  H     
24   H        26.1137   44.3354   12.0022  H     
25   H        27.4183   42.6647   19.2358  H     
26   H        29.1211   42.4220   18.8237  H     
27   H        30.2810   46.4412   18.4206  H     
28   H        28.7193   46.7314   19.2075  H     
29   H        27.5816   46.0557   14.5717  H     
30   H        28.7231   47.0313   16.4400  H     
31   H        30.6735   44.4073   19.5846  H     
32   H        30.4131   44.9361   22.0099  H     
33   H        31.1022   46.2749   21.0743  H     
34   H        28.8809   44.4025   12.9396  H     
35   H        28.4399   43.4783   11.4979  H     
36   H        27.4567   46.3376   11.4956  H     
37   H        29.2001   46.1970   11.6020  H     
38   H        28.6866   46.4384    9.3108  H     
39   H        29.1955   44.7551    9.5471  H     
40   H        26.7731   44.0394    9.4700  H     
41   H        27.2771   44.8779    7.9874  H     
42   H        26.3059   45.7392    9.2033  H     
@<TRIPOS>BOND
     1    1    2 1
     2    1    7 2
     3    1    8 2
     4    1    9 1
     5    2    6 1
     6    2   12 2
     7    3    5 1
     8    3    6 2
     9    3   10 1
    10    4   10 1
    11    4   14 1
    12    5   11 1
    13    5   13 2
    14    9   17 1
    15   11   14 1
    16   12   13 1
    17   14   16 1
    18   15   16 1
    19   17   18 1
    20   18   19 1
    21   19   20 1
    22    4   21 1
    23    4   22 1
    24    6   23 1
    25    9   24 1
    26   10   25 1
    27   10   26 1
    28   11   27 1
    29   11   28 1
    30   12   29 1
    31   13   30 1
    32   14   31 1
    33   16   32 1
    34   16   33 1
    35   17   34 1
    36   17   35 1
    37   18   36 1
    38   18   37 1
    39   19   38 1
    40   19   39 1
    41   20   40 1
    42   20   41 1
    43   20   42 1
@<TRIPOS>PROPERTY_DATA
  Total_Score	| 10.0625
  Crash		| -2.4050
  Polar		| 2.4391
  FragIndex	| 1
  FragRMSD	| 0.571

