@<TRIPOS>MOLECULE
BindingDB_24476
 46 50 0 0 0
SMALL
NO_CHARGES


@<TRIPOS>ATOM
1    C        15.2871   12.8310   59.7600  C     
2    C        15.6294   11.5259   60.1624  C     
3    C        16.9021   11.0151   59.8470  C     
4    C        17.8224   11.8062   59.1344  C     
5    C        16.2169   13.6174   59.0557  C     
6    C        17.5055   13.1279   58.7346  C     
7    C        18.4505   13.9299   58.0810  C     
8    C        18.5920   15.2930   58.3337  C     
9    C        21.1864   13.6699   55.8019  C     
10   C        20.4245   15.3591   56.8852  C     
11   N        20.2296   14.0474   56.6624  N     
12   N        21.9401   14.7537   55.5113  N     
13   N        21.4827   15.7793   56.1760  N     
14   C        21.3607   12.3427   55.1756  C     
15   C        19.5724   16.0158   57.7513  C     
16   N        19.2875   13.3796   57.2495  N     
17   O        21.2940   11.2213   56.0941  O     
18   C        22.4269   10.7622   56.7594  C     
19   C        23.7570   11.1612   56.4338  C     
20   C        24.8370   10.6353   57.1698  C     
21   C        23.3874    9.1869   58.3947  C     
22   C        22.0180    7.5149   59.5247  C     
23   C        20.8815    8.0692   58.9061  C     
24   C        20.9938    9.1897   58.0567  C     
25   C        22.2515    9.7469   57.7400  C     
26   C        23.2794    8.0921   59.2792  C     
27   N        24.6197    9.6600   58.1014  N     
28   O        21.8807    6.2991   60.1500  O     
29   C        22.4826    6.1722   61.4437  C     
30   F        17.2423    9.8095   60.2176  F     
31   F        14.1080   13.3220   60.0327  F     
32   F        14.7751   10.7995   60.8320  F     
33   H        18.7483   11.4130   58.9335  H     
34   H        15.9329   14.5565   58.7652  H     
35   H        17.9948   15.7564   58.9761  H     
36   H        20.5150   12.2197   54.4865  H     
37   H        22.2702   12.3586   54.5795  H     
38   H        19.6907   16.9823   57.9424  H     
39   H        23.9334   11.7520   55.6086  H     
40   H        25.7907   10.9007   56.9458  H     
41   H        19.9695    7.6329   59.0451  H     
42   H        20.1428    9.5401   57.6080  H     
43   H        24.1145    7.6668   59.7021  H     
44   H        23.5737    6.1642   61.3683  H     
45   H        22.1656    5.2160   61.8688  H     
46   H        22.1672    6.9653   62.1304  H     
@<TRIPOS>BOND
     1    1    2 2
     2    1    5 1
     3    1   31 1
     4    2    3 1
     5    2   32 1
     6    3    4 2
     7    3   30 1
     8    4    6 1
     9    5    6 2
    10    6    7 1
    11    7    8 1
    12    7   16 2
    13    8   15 2
    14    9   11 1
    15    9   12 2
    16    9   14 1
    17   10   11 1
    18   10   13 2
    19   10   15 1
    20   11   16 1
    21   12   13 1
    22   14   17 1
    23   17   18 1
    24   18   19 2
    25   18   25 1
    26   19   20 1
    27   20   27 2
    28   21   25 2
    29   21   26 1
    30   21   27 1
    31   22   23 1
    32   22   26 2
    33   22   28 1
    34   23   24 2
    35   24   25 1
    36   28   29 1
    37    4   33 1
    38    5   34 1
    39    8   35 1
    40   14   36 1
    41   14   37 1
    42   15   38 1
    43   19   39 1
    44   20   40 1
    45   23   41 1
    46   24   42 1
    47   26   43 1
    48   29   44 1
    49   29   45 1
    50   29   46 1
@<TRIPOS>PROPERTY_DATA
  Total_Score	| 8.7611
  Crash		| -2.2167
  Polar		| 1.8043
  FragIndex	| 1
  FragRMSD	| 0.197

