@<TRIPOS>MOLECULE
BindingDB_24477
 53 57 0 0 0
SMALL
NO_CHARGES


@<TRIPOS>ATOM
1    C        16.4693   11.0350   59.0400  C     
2    C        15.3025   11.5849   59.6305  C     
3    C        15.1975   13.0004   59.6151  C     
4    C        16.1716   13.8066   59.0094  C     
5    C        17.4556   11.8431   58.4482  C     
6    C        17.3426   13.2582   58.4252  C     
7    C        18.3653   14.0522   57.8645  C     
8    C        18.6050   15.3771   58.2333  C     
9    C        21.1946   13.7483   55.6831  C     
10   C        20.4592   15.4346   56.8151  C     
11   N        20.2180   14.1434   56.5156  N     
12   N        22.0055   14.8098   55.4856  N     
13   N        21.5565   15.8361   56.1613  N     
14   C        21.3419   12.4415   55.0091  C     
15   C        19.6112   16.0929   57.6934  C     
16   N        19.2077   13.5173   57.0162  N     
17   O        21.1998   11.2870   55.8713  O     
18   C        22.2807   10.8053   56.5890  C     
19   C        23.6171   11.1480   56.2775  C     
20   C        24.6628   10.7302   57.1076  C     
21   C        23.1903    9.4168   58.4246  C     
22   C        21.7250    7.9633   59.7457  C     
23   C        20.6231    8.4415   59.0146  C     
24   C        20.8015    9.3679   57.9655  C     
25   C        22.0784    9.8766   57.6484  C     
26   C        23.0124    8.4603   59.4531  C     
27   N        24.4316    9.8812   58.1359  N     
28   O        21.5051    7.1268   60.8106  O     
29   C        22.2586    5.8931   60.7867  C     
30   C        14.2949   10.7695   60.1702  C     
31   O        14.4613    9.5544   60.2278  O     
32   N        13.1211   11.2657   60.5532  N     
33   C        12.0350   10.5238   61.0877  C     
34   H        16.6172   10.0175   59.0130  H     
35   H        14.3978   13.4666   60.0448  H     
36   H        15.9873   14.8158   58.9679  H     
37   H        18.2615   11.3787   58.0275  H     
38   H        18.0289   15.8136   58.9188  H     
39   H        20.5826   12.3898   54.2212  H     
40   H        22.3091   12.4286   54.5053  H     
41   H        19.7342   17.0522   57.9201  H     
42   H        23.8380   11.6695   55.4275  H     
43   H        25.6199   10.9936   56.8771  H     
44   H        19.6809    8.1194   59.2457  H     
45   H        19.9855    9.6530   57.4256  H     
46   H        23.8097    8.0995   59.9905  H     
47   H        22.1375    5.3580   59.8351  H     
48   H        21.8814    5.2564   61.5977  H     
49   H        23.3265    6.0856   60.9685  H     
50   H        12.9772   12.2179   60.4500  H     
51   H        11.6967    9.7666   60.3775  H     
52   H        11.2032   11.1981   61.2971  H     
53   H        12.3374   10.0411   62.0183  H     
@<TRIPOS>BOND
     1    1    2 2
     2    1    5 1
     3    2    3 1
     4    2   30 1
     5    3    4 2
     6    4    6 1
     7    5    6 2
     8    6    7 1
     9    7    8 1
    10    7   16 2
    11    8   15 2
    12    9   11 1
    13    9   12 2
    14    9   14 1
    15   10   11 1
    16   10   13 2
    17   10   15 1
    18   11   16 1
    19   12   13 1
    20   14   17 1
    21   17   18 1
    22   18   19 2
    23   18   25 1
    24   19   20 1
    25   20   27 2
    26   21   25 2
    27   21   26 1
    28   21   27 1
    29   22   23 1
    30   22   26 2
    31   22   28 1
    32   23   24 2
    33   24   25 1
    34   28   29 1
    35   30   31 2
    36   30   32 am
    37   32   33 1
    38    1   34 1
    39    3   35 1
    40    4   36 1
    41    5   37 1
    42    8   38 1
    43   14   39 1
    44   14   40 1
    45   15   41 1
    46   19   42 1
    47   20   43 1
    48   23   44 1
    49   24   45 1
    50   26   46 1
    51   29   47 1
    52   29   48 1
    53   29   49 1
    54   32   50 1
    55   33   51 1
    56   33   52 1
    57   33   53 1
@<TRIPOS>PROPERTY_DATA
  Total_Score	| 7.9241
  Crash		| -2.0621
  Polar		| 1.8853
  FragIndex	| 1
  FragRMSD	| 0.370

