@<TRIPOS>MOLECULE
BindingDB_24470
 46 50 0 0 0
SMALL
NO_CHARGES


@<TRIPOS>ATOM
1    C        15.3335   12.7969   59.6886  C     
2    C        15.6448   11.4756   60.0435  C     
3    C        16.9145   10.9666   59.7337  C     
4    C        17.8648   11.7772   59.0751  C     
5    C        16.2854   13.6109   59.0461  C     
6    C        17.5725   13.1222   58.7265  C     
7    C        18.5275   13.9321   58.0986  C     
8    C        18.7049   15.2767   58.4134  C     
9    C        21.1406   13.7345   55.6727  C     
10   C        20.4408   15.3941   56.8472  C     
11   N        20.2324   14.0926   56.5921  N     
12   N        21.9089   14.8098   55.4190  N     
13   N        21.4790   15.8238   56.1150  N     
14   C        21.2706   12.4013   55.0451  C     
15   C        19.6438   16.0183   57.7904  C     
16   N        19.3181   13.4096   57.2098  N     
17   O        21.2459   11.3479   56.0232  O     
18   C        22.3582   10.9057   56.7045  C     
19   C        23.6664   11.4170   56.5233  C     
20   C        24.7523   10.8075   57.1768  C     
21   C        23.3067    9.2486   58.2510  C     
22   C        21.8832    7.6892   59.4891  C     
23   C        20.7461    8.2950   58.9145  C     
24   C        20.8915    9.3288   57.9632  C     
25   C        22.1691    9.8279   57.6208  C     
26   C        23.1659    8.1669   59.1519  C     
27   N        24.5416    9.7497   57.9961  N     
28   O        21.7189    6.6056   60.3138  O     
29   C        21.2698    6.9480   61.6403  C     
30   H        14.4109   13.1769   59.9048  H     
31   H        14.9458   10.8924   60.5203  H     
32   H        17.1520   10.0029   60.0008  H     
33   H        18.7882   11.3859   58.8813  H     
34   H        16.0075   14.5634   58.7926  H     
35   H        18.1547   15.7007   59.1225  H     
36   H        20.4138   12.2545   54.3894  H     
37   H        22.1772   12.3212   54.4158  H     
38   H        19.7864   16.9738   58.0129  H     
39   H        23.8355   12.2313   55.9177  H     
40   H        25.7002   11.1477   57.0454  H     
41   H        19.8125    7.9708   59.1748  H     
42   H        20.0492    9.7227   57.5338  H     
43   H        23.9967    7.7292   59.5652  H     
44   H        22.0404    7.5150   62.1707  H     
45   H        21.0812    6.0332   62.2003  H     
46   H        20.3292    7.5195   61.6167  H     
@<TRIPOS>BOND
     1    1    2 2
     2    1    5 1
     3    2    3 1
     4    3    4 2
     5    4    6 1
     6    5    6 2
     7    6    7 1
     8    7    8 1
     9    7   16 2
    10    8   15 2
    11    9   11 1
    12    9   12 2
    13    9   14 1
    14   10   11 1
    15   10   13 2
    16   10   15 1
    17   11   16 1
    18   12   13 1
    19   14   17 1
    20   17   18 1
    21   18   19 2
    22   18   25 1
    23   19   20 1
    24   20   27 2
    25   21   25 2
    26   21   26 1
    27   21   27 1
    28   22   23 1
    29   22   26 2
    30   22   28 1
    31   23   24 2
    32   24   25 1
    33   28   29 1
    34    1   30 1
    35    2   31 1
    36    3   32 1
    37    4   33 1
    38    5   34 1
    39    8   35 1
    40   14   36 1
    41   14   37 1
    42   15   38 1
    43   19   39 1
    44   20   40 1
    45   23   41 1
    46   24   42 1
    47   26   43 1
    48   29   44 1
    49   29   45 1
    50   29   46 1
@<TRIPOS>PROPERTY_DATA
  Total_Score	| 8.3672
  Crash		| -1.6758
  Polar		| 1.8363
  FragIndex	| 1
  FragRMSD	| 0.131

