@<TRIPOS>MOLECULE
BindingDB_24469
 38 41 0 0 0
SMALL
NO_CHARGES


@<TRIPOS>ATOM
1    C        16.8811   10.9992   59.8509  C     
2    C        15.6157   11.5453   60.1263  C     
3    C        15.3091   12.8449   59.6964  C     
4    C        16.2785   13.6108   59.0185  C     
5    C        17.8325   11.7566   59.1434  C     
6    C        17.5691   13.0942   58.7306  C     
7    C        18.5600   13.8901   58.1145  C     
8    C        18.6958   15.2555   58.3734  C     
9    C        21.3034   13.7725   55.7223  C     
10   C        20.5152   15.3958   56.9028  C     
11   N        20.3828   14.0808   56.6498  N     
12   N        21.9849   14.9013   55.4444  N     
13   N        21.5127   15.8850   56.1511  N     
14   C        21.5105   12.4517   55.0917  C     
15   C        22.1735   11.4729   55.9981  C     
16   C        24.0971   10.8444   57.3848  C     
17   C        23.5101    9.5927   57.6602  C     
18   C        22.2501    9.2837   57.1024  C     
19   C        21.5835   10.2131   56.2880  C     
20   C        23.4359   11.7730   56.5607  C     
21   O        24.1827    8.7040   58.4377  O     
22   C        19.4517   13.3270   57.2541  C     
23   C        19.6641   16.0115   57.8095  C     
24   H        17.1041   10.0425   60.1432  H     
25   H        14.9237   10.9910   60.6383  H     
26   H        14.3946   13.2474   59.9078  H     
27   H        16.0311   14.5698   58.7594  H     
28   H        18.7371   11.3138   58.9482  H     
29   H        18.0620   15.7140   58.9924  H     
30   H        20.5391   12.0866   54.7452  H     
31   H        22.1422   12.5688   54.2037  H     
32   H        25.0122   11.0740   57.7766  H     
33   H        21.8248    8.3740   57.2782  H     
34   H        20.6789    9.9630   55.8843  H     
35   H        23.8907   12.6683   56.3587  H     
36   H        23.5524    7.9789   58.6300  H     
37   H        19.4429   12.3510   57.0673  H     
38   H        19.7439   16.9854   57.9985  H     
@<TRIPOS>BOND
     1    1    2 2
     2    1    5 1
     3    2    3 1
     4    3    4 2
     5    4    6 1
     6    5    6 2
     7    6    7 1
     8    7    8 1
     9    7   22 2
    10    8   23 2
    11    9   11 1
    12    9   12 2
    13    9   14 1
    14   10   11 1
    15   10   13 2
    16   10   23 1
    17   11   22 1
    18   12   13 1
    19   14   15 1
    20   15   19 2
    21   15   20 1
    22   16   17 1
    23   16   20 2
    24   17   18 2
    25   17   21 1
    26   18   19 1
    27    1   24 1
    28    2   25 1
    29    3   26 1
    30    4   27 1
    31    5   28 1
    32    8   29 1
    33   14   30 1
    34   14   31 1
    35   16   32 1
    36   18   33 1
    37   19   34 1
    38   20   35 1
    39   21   36 1
    40   22   37 1
    41   23   38 1
@<TRIPOS>PROPERTY_DATA
  Total_Score	| 9.1639
  Crash		| -0.6206
  Polar		| 2.1765
  FragIndex	| 1
  FragRMSD	| 0.145

