@<TRIPOS>MOLECULE
BindingDB_24479
 53 57 0 0 0
SMALL
NO_CHARGES


@<TRIPOS>ATOM
1    C        16.0237   10.9577   57.9268  C     
2    C        15.2138   11.2454   59.0397  C     
3    C        15.3993   12.4765   59.7144  C     
4    C        16.4316   13.3554   59.3096  C     
5    C        16.9995   11.8679   57.4969  C     
6    C        17.2629   13.0751   58.1932  C     
7    C        18.3145   13.9130   57.7679  C     
8    C        18.4824   15.2327   58.1772  C     
9    C        21.2154   13.7601   55.6699  C     
10   C        20.4391   15.3609   56.8887  C     
11   N        20.2211   14.0881   56.5103  N     
12   N        22.0058   14.8388   55.5347  N     
13   N        21.5397   15.8074   56.2736  N     
14   C        21.3584   12.5175   54.8653  C     
15   C        19.5425   15.9618   57.7606  C     
16   N        19.2029   13.4298   56.9475  N     
17   O        21.2795   11.3296   55.6615  O     
18   C        22.3053   10.9408   56.5061  C     
19   C        23.6632   11.3186   56.3432  C     
20   C        24.6446   10.7017   57.1480  C     
21   C        22.9825    9.4617   58.3321  C     
22   C        21.3001    8.2262   59.6107  C     
23   C        20.2845    8.8234   58.8418  C     
24   C        20.6124    9.6888   57.7872  C     
25   C        21.9579   10.0223   57.5245  C     
26   C        22.6467    8.5636   59.3656  C     
27   N        24.2792    9.8078   58.1028  N     
28   O        20.9735    7.3814   60.6419  O     
29   C        20.9021    5.9929   60.2662  C     
30   C        14.2733   10.3123   59.4205  C     
31   O        14.6047    9.4530   60.2264  O     
32   N        13.0684   10.3455   58.8774  N     
33   C        12.0004    9.4716   59.2222  C     
34   Cl       14.3967   12.9525   60.9998  Cl    
35   H        15.9082   10.0815   57.4051  H     
36   H        16.5707   14.2101   59.8552  H     
37   H        17.5267   11.6233   56.6549  H     
38   H        17.7972   15.6846   58.7385  H     
39   H        20.5109   12.4793   54.1701  H     
40   H        22.2924   12.4616   54.2643  H     
41   H        19.6665   16.9030   58.0488  H     
42   H        23.9001   12.0498   55.6404  H     
43   H        25.6289   10.9200   57.0053  H     
44   H        19.2997    8.6151   59.0265  H     
45   H        19.8609   10.0885   57.2340  H     
46   H        23.3794    8.1554   59.9568  H     
47   H        20.0753    5.8038   59.5749  H     
48   H        20.7276    5.4075   61.1697  H     
49   H        21.8357    5.6452   59.8148  H     
50   H        12.8928   11.0064   58.1876  H     
51   H        12.2791    8.4352   59.0236  H     
52   H        11.1274    9.7255   58.6194  H     
53   H        11.7451    9.5878   60.2774  H     
@<TRIPOS>BOND
     1    1    2 2
     2    1    5 1
     3    2    3 1
     4    2   30 1
     5    3    4 2
     6    3   34 1
     7    4    6 1
     8    5    6 2
     9    6    7 1
    10    7    8 1
    11    7   16 2
    12    8   15 2
    13    9   11 1
    14    9   12 2
    15    9   14 1
    16   10   11 1
    17   10   13 2
    18   10   15 1
    19   11   16 1
    20   12   13 1
    21   14   17 1
    22   17   18 1
    23   18   19 2
    24   18   25 1
    25   19   20 1
    26   20   27 2
    27   21   25 2
    28   21   26 1
    29   21   27 1
    30   22   23 1
    31   22   26 2
    32   22   28 1
    33   23   24 2
    34   24   25 1
    35   28   29 1
    36   30   31 2
    37   30   32 am
    38   32   33 1
    39    1   35 1
    40    4   36 1
    41    5   37 1
    42    8   38 1
    43   14   39 1
    44   14   40 1
    45   15   41 1
    46   19   42 1
    47   20   43 1
    48   23   44 1
    49   24   45 1
    50   26   46 1
    51   29   47 1
    52   29   48 1
    53   29   49 1
    54   32   50 1
    55   33   51 1
    56   33   52 1
    57   33   53 1
@<TRIPOS>PROPERTY_DATA
  Total_Score	| 8.4747
  Crash		| -2.1874
  Polar		| 3.5924
  FragIndex	| 1
  FragRMSD	| 0.750

