@<TRIPOS>MOLECULE
BindingDB_24467
 37 40 0 0 0
SMALL
NO_CHARGES


@<TRIPOS>ATOM
1    C        17.0038   10.8632   59.5689  C     
2    C        15.7488   11.3698   59.9460  C     
3    C        15.4308   12.7127   59.6834  C     
4    C        16.3718   13.5503   59.0561  C     
5    C        17.9433   11.7019   58.9409  C     
6    C        17.6566   13.0693   58.6858  C     
7    C        18.6143   13.9037   58.0901  C     
8    C        18.7307   15.2595   58.3850  C     
9    C        19.6652   16.0273   57.7856  C     
10   C        21.2850   13.7777   55.7184  C     
11   C        20.5051   15.4194   56.8709  C     
12   N        19.4529   13.4006   57.2302  N     
13   N        20.3610   14.1024   56.6346  N     
14   N        21.9702   14.9005   55.4193  N     
15   N        21.5033   15.8973   56.1164  N     
16   C        21.5215   12.4554   55.1031  C     
17   C        22.1815   11.4935   56.0273  C     
18   C        22.2419    9.3289   57.1832  C     
19   C        23.5230    9.6211   57.6927  C     
20   C        24.1321   10.8478   57.3720  C     
21   C        23.4722   11.7708   56.5396  C     
22   C        21.5746   10.2598   56.3644  C     
23   O        24.1924    8.7412   58.4819  O     
24   H        17.2358    9.8847   59.7552  H     
25   H        15.0670   10.7614   60.4051  H     
26   H        14.5129   13.0804   59.9455  H     
27   H        16.0953   14.5149   58.8561  H     
28   H        18.8539   11.3049   58.6946  H     
29   H        18.1565   15.6772   59.0792  H     
30   H        19.7615   16.9915   58.0016  H     
31   H        20.5619   12.0770   54.7405  H     
32   H        22.1651   12.5771   54.2285  H     
33   H        21.7935    8.4364   57.4035  H     
34   H        25.0628   11.0664   57.7359  H     
35   H        23.9447   12.6473   56.3016  H     
36   H        20.6486   10.0214   56.0019  H     
37   H        23.6087    7.9611   58.5898  H     
@<TRIPOS>BOND
     1    1    2 2
     2    1    5 1
     3    2    3 1
     4    3    4 2
     5    4    6 1
     6    5    6 2
     7    6    7 1
     8    7    8 1
     9    7   12 2
    10    8    9 2
    11    9   11 1
    12   10   13 1
    13   10   14 2
    14   10   16 1
    15   11   13 1
    16   11   15 2
    17   12   13 1
    18   14   15 1
    19   16   17 1
    20   17   21 2
    21   17   22 1
    22   18   19 1
    23   18   22 2
    24   19   20 2
    25   19   23 1
    26   20   21 1
    27    1   24 1
    28    2   25 1
    29    3   26 1
    30    4   27 1
    31    5   28 1
    32    8   29 1
    33    9   30 1
    34   16   31 1
    35   16   32 1
    36   18   33 1
    37   20   34 1
    38   21   35 1
    39   22   36 1
    40   23   37 1
@<TRIPOS>PROPERTY_DATA
  Total_Score	| 8.8729
  Crash		| -0.4341
  Polar		| 2.1736
  FragIndex	| 1
  FragRMSD	| 0.078

