@<TRIPOS>MOLECULE
BindingDB_24473
 46 50 0 0 0
SMALL
NO_CHARGES


@<TRIPOS>ATOM
1    C        15.2685   12.9463   59.6402  C     
2    C        15.5235   11.6101   59.9808  C     
3    C        16.7642   11.0380   59.6764  C     
4    C        17.7547   11.7963   59.0144  C     
5    C        16.2663   13.7146   59.0049  C     
6    C        17.5224   13.1559   58.6740  C     
7    C        18.5110   13.9405   58.0624  C     
8    C        18.6600   15.2885   58.3609  C     
9    C        21.1561   13.7446   55.6562  C     
10   C        20.4427   15.4007   56.8501  C     
11   N        20.2538   14.0891   56.5914  N     
12   N        21.8965   14.8414   55.4023  N     
13   N        21.4709   15.8477   56.1188  N     
14   C        21.3118   12.4474   54.9732  C     
15   C        19.6106   16.0328   57.7627  C     
16   N        19.3247   13.4137   57.1901  N     
17   O        21.2368   11.3121   55.8612  O     
18   C        22.3078   10.8513   56.5936  C     
19   C        23.6456   11.2621   56.3689  C     
20   C        24.6987   10.7130   57.1305  C     
21   C        23.1582    9.3413   58.3367  C     
22   C        21.6274    7.9799   59.6737  C     
23   C        20.5431    8.4962   58.9473  C     
24   C        20.7563    9.4007   57.8922  C     
25   C        22.0609    9.8667   57.5897  C     
26   C        22.9399    8.4051   59.3597  C     
27   N        24.4244    9.7786   58.0809  N     
28   O        21.4068    7.1171   60.7125  O     
29   C        21.2824    5.7451   60.3028  C     
30   F        18.8952   11.2158   58.7751  F     
31   H        14.3619   13.3663   59.8527  H     
32   H        14.8012   11.0566   60.4512  H     
33   H        16.9445   10.0628   59.9282  H     
34   H        16.0536   14.6873   58.7722  H     
35   H        18.0858   15.7113   59.0593  H     
36   H        20.4898   12.3508   54.2606  H     
37   H        22.2453   12.4212   54.4072  H     
38   H        19.7222   16.9924   57.9888  H     
39   H        23.8651   11.9451   55.6427  H     
40   H        25.6631   11.0232   56.9678  H     
41   H        19.5925    8.2109   59.1745  H     
42   H        19.9460    9.7241   57.3579  H     
43   H        23.7183    8.0285   59.8943  H     
44   H        20.3594    5.5750   59.7341  H     
45   H        21.2424    5.1313   61.2063  H     
46   H        22.1404    5.4115   59.7100  H     
@<TRIPOS>BOND
     1    1    2 2
     2    1    5 1
     3    2    3 1
     4    3    4 2
     5    4    6 1
     6    4   30 1
     7    5    6 2
     8    6    7 1
     9    7    8 1
    10    7   16 2
    11    8   15 2
    12    9   11 1
    13    9   12 2
    14    9   14 1
    15   10   11 1
    16   10   13 2
    17   10   15 1
    18   11   16 1
    19   12   13 1
    20   14   17 1
    21   17   18 1
    22   18   19 2
    23   18   25 1
    24   19   20 1
    25   20   27 2
    26   21   25 2
    27   21   26 1
    28   21   27 1
    29   22   23 1
    30   22   26 2
    31   22   28 1
    32   23   24 2
    33   24   25 1
    34   28   29 1
    35    1   31 1
    36    2   32 1
    37    3   33 1
    38    5   34 1
    39    8   35 1
    40   14   36 1
    41   14   37 1
    42   15   38 1
    43   19   39 1
    44   20   40 1
    45   23   41 1
    46   24   42 1
    47   26   43 1
    48   29   44 1
    49   29   45 1
    50   29   46 1
@<TRIPOS>PROPERTY_DATA
  Total_Score	| 8.1973
  Crash		| -1.8957
  Polar		| 1.9631
  FragIndex	| 1
  FragRMSD	| 0.170

