@<TRIPOS>MOLECULE
BindingDB_24472
 46 50 0 0 0
SMALL
NO_CHARGES


@<TRIPOS>ATOM
1    C        15.3189   12.8873   59.7751  C     
2    C        15.6329   11.5687   60.1461  C     
3    C        16.8935   11.0397   59.8089  C     
4    C        17.8225   11.8269   59.1039  C     
5    C        16.2468   13.6653   59.0633  C     
6    C        17.5310   13.1609   58.7237  C     
7    C        18.4854   13.9531   58.0726  C     
8    C        18.6500   15.3062   58.3450  C     
9    C        21.1863   13.6974   55.7423  C     
10   C        20.4653   15.3729   56.8732  C     
11   N        20.2499   14.0688   56.6265  N     
12   N        21.9577   14.7724   55.4843  N     
13   N        21.5221   15.7924   56.1689  N     
14   C        21.3358   12.3748   55.1026  C     
15   C        19.6288   16.0273   57.7600  C     
16   N        19.3046   13.4100   57.2190  N     
17   O        21.3060   11.2838   56.0349  O     
18   C        22.4160   10.8049   56.7032  C     
19   C        23.7417   11.2684   56.4875  C     
20   C        24.8059   10.6894   57.1994  C     
21   C        23.3364    9.1844   58.3051  C     
22   C        21.8822    7.6121   59.4955  C     
23   C        20.7690    8.2306   58.8957  C     
24   C        20.9214    9.2748   57.9727  C     
25   C        22.2119    9.7679   57.6524  C     
26   C        23.1738    8.0971   59.1986  C     
27   N        24.5836    9.6625   58.0565  N     
28   O        21.6450    6.4720   60.2183  O     
29   C        22.3907    6.3141   61.4339  C     
30   F        17.1989    9.8189   60.1562  F     
31   H        14.4012   13.2788   60.0172  H     
32   H        14.9518   11.0066   60.6606  H     
33   H        18.7415   11.4192   58.9000  H     
34   H        15.9687   14.6078   58.7901  H     
35   H        18.0672   15.7624   59.0057  H     
36   H        20.4933   12.2452   54.4124  H     
37   H        22.2519   12.3418   54.5058  H     
38   H        19.7496   16.9890   57.9582  H     
39   H        23.9469   12.0128   55.8128  H     
40   H        25.7566   11.0299   57.0656  H     
41   H        19.8330    7.8877   59.1118  H     
42   H        20.0862    9.6794   57.5372  H     
43   H        23.9819    7.6387   59.6406  H     
44   H        23.4685    6.2967   61.2168  H     
45   H        22.0832    5.3758   61.9145  H     
46   H        22.1768    7.1269   62.1357  H     
@<TRIPOS>BOND
     1    1    2 2
     2    1    5 1
     3    2    3 1
     4    3    4 2
     5    3   30 1
     6    4    6 1
     7    5    6 2
     8    6    7 1
     9    7    8 1
    10    7   16 2
    11    8   15 2
    12    9   11 1
    13    9   12 2
    14    9   14 1
    15   10   11 1
    16   10   13 2
    17   10   15 1
    18   11   16 1
    19   12   13 1
    20   14   17 1
    21   17   18 1
    22   18   19 2
    23   18   25 1
    24   19   20 1
    25   20   27 2
    26   21   25 2
    27   21   26 1
    28   21   27 1
    29   22   23 1
    30   22   26 2
    31   22   28 1
    32   23   24 2
    33   24   25 1
    34   28   29 1
    35    1   31 1
    36    2   32 1
    37    4   33 1
    38    5   34 1
    39    8   35 1
    40   14   36 1
    41   14   37 1
    42   15   38 1
    43   19   39 1
    44   20   40 1
    45   23   41 1
    46   24   42 1
    47   26   43 1
    48   29   44 1
    49   29   45 1
    50   29   46 1
@<TRIPOS>PROPERTY_DATA
  Total_Score	| 8.4671
  Crash		| -1.9938
  Polar		| 1.8347
  FragIndex	| 1
  FragRMSD	| 0.177

