@<TRIPOS>MOLECULE
BindingDB_24471
 46 50 0 0 0
SMALL
NO_CHARGES


@<TRIPOS>ATOM
1    C        16.9506   10.9676   59.7252  C     
2    C        15.6822   11.4677   60.0676  C     
3    C        15.3384   12.7878   59.7275  C     
4    C        16.2695   13.6149   59.0660  C     
5    C        17.8745   11.7935   59.0603  C     
6    C        17.5633   13.1401   58.7338  C     
7    C        18.5109   13.9544   58.1001  C     
8    C        18.6611   15.3143   58.3540  C     
9    C        21.1688   13.6687   55.7494  C     
10   C        20.4674   15.3776   56.8638  C     
11   N        20.2568   14.0711   56.6435  N     
12   N        21.9328   14.7389   55.4487  N     
13   N        21.5120   15.7765   56.1225  N     
14   C        21.2610   12.3168   55.1610  C     
15   C        19.6339   16.0335   57.7533  C     
16   N        19.3224   13.4094   57.2438  N     
17   O        21.2690   11.2939   56.1817  O     
18   C        22.3915   10.8300   56.8331  C     
19   C        23.7064   11.3213   56.6098  C     
20   C        24.7994   10.7163   57.2462  C     
21   C        23.3720    9.1710   58.3483  C     
22   C        21.9946    7.5451   59.5410  C     
23   C        20.8456    8.1507   58.9988  C     
24   C        20.9533    9.2251   58.0987  C     
25   C        22.2199    9.7551   57.7537  C     
26   C        23.2624    8.0686   59.2109  C     
27   N        24.6039    9.6656   58.0849  N     
28   O        21.8375    6.3881   60.2647  O     
29   C        22.3865    6.3680   61.5985  C     
30   F        14.8260   10.7070   60.6897  F     
31   H        17.2053   10.0061   59.9585  H     
32   H        14.4103   13.1522   59.9539  H     
33   H        15.9803   14.5632   58.8154  H     
34   H        18.7947   11.4026   58.8405  H     
35   H        18.0750   15.7705   59.0140  H     
36   H        20.3499   12.1687   54.5729  H     
37   H        22.1032   12.2307   54.4759  H     
38   H        19.7489   16.9998   57.9318  H     
39   H        23.8846   12.1051   55.9778  H     
40   H        25.7471   11.0577   57.0754  H     
41   H        19.9219    7.7798   59.2314  H     
42   H        20.0992    9.6191   57.7017  H     
43   H        24.1064    7.6305   59.5864  H     
44   H        23.4753    6.2468   61.5732  H     
45   H        21.9661    5.5029   62.1255  H     
46   H        22.1249    7.2760   62.1625  H     
@<TRIPOS>BOND
     1    1    2 2
     2    1    5 1
     3    2    3 1
     4    2   30 1
     5    3    4 2
     6    4    6 1
     7    5    6 2
     8    6    7 1
     9    7    8 1
    10    7   16 2
    11    8   15 2
    12    9   11 1
    13    9   12 2
    14    9   14 1
    15   10   11 1
    16   10   13 2
    17   10   15 1
    18   11   16 1
    19   12   13 1
    20   14   17 1
    21   17   18 1
    22   18   19 2
    23   18   25 1
    24   19   20 1
    25   20   27 2
    26   21   25 2
    27   21   26 1
    28   21   27 1
    29   22   23 1
    30   22   26 2
    31   22   28 1
    32   23   24 2
    33   24   25 1
    34   28   29 1
    35    1   31 1
    36    3   32 1
    37    4   33 1
    38    5   34 1
    39    8   35 1
    40   14   36 1
    41   14   37 1
    42   15   38 1
    43   19   39 1
    44   20   40 1
    45   23   41 1
    46   24   42 1
    47   26   43 1
    48   29   44 1
    49   29   45 1
    50   29   46 1
@<TRIPOS>PROPERTY_DATA
  Total_Score	| 8.7732
  Crash		| -1.8772
  Polar		| 1.7445
  FragIndex	| 1
  FragRMSD	| 0.153

