@<TRIPOS>MOLECULE
BindingDB_24474
 46 50 0 0 0
SMALL
NO_CHARGES


@<TRIPOS>ATOM
1    C        15.3125   12.8268   59.7438  C     
2    C        15.6663   11.5297   60.1445  C     
3    C        16.9351   11.0209   59.8238  C     
4    C        17.8509   11.8170   59.1100  C     
5    C        16.2350   13.6272   59.0446  C     
6    C        17.5244   13.1395   58.7268  C     
7    C        18.4759   13.9458   58.0822  C     
8    C        18.6773   15.2888   58.4028  C     
9    C        21.1134   13.6853   55.7205  C     
10   C        20.4369   15.3770   56.8596  C     
11   N        20.2040   14.0754   56.6106  N     
12   N        21.8815   14.7518   55.4251  N     
13   N        21.4824   15.7802   56.1237  N     
14   C        21.2071   12.3673   55.1031  C     
15   C        19.6423   16.0183   57.7972  C     
16   N        19.2722   13.4168   57.2026  N     
17   O        21.1720   11.2294   55.9943  O     
18   C        22.3247   10.7888   56.6245  C     
19   C        23.6346   11.2040   56.2683  C     
20   C        24.7312   10.8308   57.0446  C     
21   C        23.3613    9.3171   58.3302  C     
22   C        21.9952    7.6708   59.5194  C     
23   C        20.8451    8.2252   58.9315  C     
24   C        20.9436    9.2997   58.0352  C     
25   C        22.2073    9.8212   57.6678  C     
26   C        23.2561    8.2429   59.2639  C     
27   N        24.5672    9.8765   58.0161  N     
28   O        21.8433    6.4434   60.0972  O     
29   C        22.3108    6.2614   61.4370  C     
30   F        14.8054   10.8033   60.8095  F     
31   F        17.2800    9.8183   60.1833  F     
32   H        14.3871   13.1964   59.9567  H     
33   H        18.7766   11.4316   58.9001  H     
34   H        15.9518   14.5729   58.7705  H     
35   H        18.1824   15.6930   59.1700  H     
36   H        20.3927   12.2616   54.4013  H     
37   H        22.0899   12.3925   54.4883  H     
38   H        19.8283   16.9553   58.0773  H     
39   H        23.8176   11.7326   55.4020  H     
40   H        25.6539   11.2217   56.8238  H     
41   H        19.9263    7.8219   59.1353  H     
42   H        20.0759    9.6280   57.5942  H     
43   H        24.0943    7.8436   59.7096  H     
44   H        23.3948    6.1126   61.3951  H     
45   H        21.8186    5.3787   61.8660  H     
46   H        22.0698    7.1066   62.0904  H     
@<TRIPOS>BOND
     1    1    2 2
     2    1    5 1
     3    2    3 1
     4    2   30 1
     5    3    4 2
     6    3   31 1
     7    4    6 1
     8    5    6 2
     9    6    7 1
    10    7    8 1
    11    7   16 2
    12    8   15 2
    13    9   11 1
    14    9   12 2
    15    9   14 1
    16   10   11 1
    17   10   13 2
    18   10   15 1
    19   11   16 1
    20   12   13 1
    21   14   17 1
    22   17   18 1
    23   18   19 2
    24   18   25 1
    25   19   20 1
    26   20   27 2
    27   21   25 2
    28   21   26 1
    29   21   27 1
    30   22   23 1
    31   22   26 2
    32   22   28 1
    33   23   24 2
    34   24   25 1
    35   28   29 1
    36    1   32 1
    37    4   33 1
    38    5   34 1
    39    8   35 1
    40   14   36 1
    41   14   37 1
    42   15   38 1
    43   19   39 1
    44   20   40 1
    45   23   41 1
    46   24   42 1
    47   26   43 1
    48   29   44 1
    49   29   45 1
    50   29   46 1
@<TRIPOS>PROPERTY_DATA
  Total_Score	| 8.7839
  Crash		| -1.7976
  Polar		| 1.7180
  FragIndex	| 1
  FragRMSD	| 0.185

