@<TRIPOS>MOLECULE
BindingDB_24475
 46 50 0 0 0
SMALL
NO_CHARGES


@<TRIPOS>ATOM
1    C        16.8126   11.0546   59.7304  C     
2    C        15.5448   11.6032   59.9937  C     
3    C        15.2669   12.9333   59.6350  C     
4    C        16.2634   13.7201   59.0292  C     
5    C        17.8063   11.8420   59.1152  C     
6    C        17.5530   13.1938   58.7675  C     
7    C        18.5444   13.9773   58.1753  C     
8    C        18.7069   15.3326   58.4528  C     
9    C        21.1734   13.7321   55.7960  C     
10   C        20.4457   15.4222   56.8993  C     
11   N        20.2623   14.1037   56.6976  N     
12   N        21.8810   14.8295   55.4543  N     
13   N        21.4468   15.8517   56.1212  N     
14   C        21.3011   12.4229   55.1478  C     
15   C        19.6361   16.0650   57.8034  C     
16   N        19.3409   13.4340   57.3068  N     
17   O        21.2791   11.2696   56.0189  O     
18   C        22.4035   10.8094   56.6797  C     
19   C        23.7338   11.2289   56.3857  C     
20   C        24.8046   10.7543   57.1592  C     
21   C        23.3653    9.2784   58.3497  C     
22   C        21.9725    7.6281   59.5030  C     
23   C        20.8343    8.2152   58.9185  C     
24   C        20.9574    9.2738   58.0040  C     
25   C        22.2284    9.8029   57.6730  C     
26   C        23.2409    8.1824   59.2340  C     
27   N        24.5904    9.7879   58.0959  N     
28   O        21.8139    6.4183   60.1335  O     
29   C        22.3757    6.2686   61.4447  C     
30   F        14.0806   13.4386   59.8393  F     
31   F        17.0710    9.8163   60.0454  F     
32   H        14.8204   11.0297   60.4254  H     
33   H        16.0290   14.6827   58.7572  H     
34   H        18.7263   11.4250   58.9402  H     
35   H        18.1656   15.7691   59.1594  H     
36   H        20.4721   12.3344   54.4399  H     
37   H        22.2346   12.4287   54.5619  H     
38   H        19.7410   17.0328   57.9792  H     
39   H        23.9019   11.8656   55.5960  H     
40   H        25.7357   11.1333   56.9855  H     
41   H        19.9067    7.8324   59.1127  H     
42   H        20.1162    9.6442   57.5572  H     
43   H        24.0651    7.7433   59.6316  H     
44   H        23.4576    6.1400   61.3985  H     
45   H        21.9562    5.3661   61.8924  H     
46   H        22.1333    7.1112   62.0926  H     
@<TRIPOS>BOND
     1    1    2 2
     2    1    5 1
     3    1   31 1
     4    2    3 1
     5    3    4 2
     6    3   30 1
     7    4    6 1
     8    5    6 2
     9    6    7 1
    10    7    8 1
    11    7   16 2
    12    8   15 2
    13    9   11 1
    14    9   12 2
    15    9   14 1
    16   10   11 1
    17   10   13 2
    18   10   15 1
    19   11   16 1
    20   12   13 1
    21   14   17 1
    22   17   18 1
    23   18   19 2
    24   18   25 1
    25   19   20 1
    26   20   27 2
    27   21   25 2
    28   21   26 1
    29   21   27 1
    30   22   23 1
    31   22   26 2
    32   22   28 1
    33   23   24 2
    34   24   25 1
    35   28   29 1
    36    2   32 1
    37    4   33 1
    38    5   34 1
    39    8   35 1
    40   14   36 1
    41   14   37 1
    42   15   38 1
    43   19   39 1
    44   20   40 1
    45   23   41 1
    46   24   42 1
    47   26   43 1
    48   29   44 1
    49   29   45 1
    50   29   46 1
@<TRIPOS>PROPERTY_DATA
  Total_Score	| 8.8672
  Crash		| -1.9733
  Polar		| 1.8855
  FragIndex	| 1
  FragRMSD	| 0.177

