@<TRIPOS>MOLECULE
BindingDB_50384661
 53 57 0 0 0
SMALL
NO_CHARGES


@<TRIPOS>ATOM
1    C         7.4456   -3.2983   11.0808  C     
2    C         8.8020   -3.5498   10.7452  C     
3    C         9.4861   -4.6995   11.2690  C     
4    C         8.6804   -5.6015   12.0241  C     
5    C         7.3455   -5.3375   12.3683  C     
6    C         6.7302   -4.1700   11.9109  C     
7    C        10.9409   -5.1116   10.9999  C     
8    C        11.9809   -4.1262   10.3335  C     
9    C        12.4352   -2.9986   11.2978  C     
10   N        13.0691   -3.5995   12.4917  N     
11   C        12.1888   -4.5453   13.2129  C     
12   C        11.7122   -5.6719   12.2601  C     
13   N         9.3736   -2.8042    9.7603  N     
14   C         9.2914   -1.5000    9.4908  C     
15   C        10.1452   -0.9009    8.5716  C     
16   O         8.5583   -0.7690   10.1435  O     
17   C         9.9708    0.3791    8.0234  C     
18   S        11.3723    0.7320    7.0966  S     
19   C        12.1618   -0.7641    7.4087  C     
20   N        11.3272   -1.4687    8.2085  N     
21   C        13.4722   -1.1624    7.0239  C     
22   C        14.2994   -0.3462    6.2046  C     
23   C        15.6254   -0.7205    5.9005  C     
24   C        14.0142   -2.3783    7.5133  C     
25   C        15.3359   -2.7379    7.2053  C     
26   C        16.1341   -1.9256    6.4105  C     
27   O        17.3887   -2.4119    6.2276  O     
28   C        17.3210   -3.7682    6.7135  C     
29   C        16.0809   -3.9087    7.6245  C     
30   H         6.9368   -2.5125   10.6716  H     
31   H         9.0451   -6.5017   12.3255  H     
32   H         6.8157   -6.0083   12.9305  H     
33   H         5.7492   -3.9850   12.1336  H     
34   H        10.8509   -5.9533   10.3057  H     
35   H        12.8737   -4.7006   10.0641  H     
36   H        11.6607   -3.6888    9.3930  H     
37   H        13.1683   -2.3614   10.7990  H     
38   H        11.5879   -2.3751   11.5934  H     
39   H        13.9108   -4.1000   12.1895  H     
40   H        13.3665   -2.8733   13.1437  H     
41   H        12.7550   -4.9795   14.0399  H     
42   H        11.3296   -4.0142   13.6315  H     
43   H        11.1395   -6.3936   12.8380  H     
44   H        12.5968   -6.2208   11.9205  H     
45   H         9.9328   -3.3336    9.1806  H     
46   H         9.1803    1.0108    8.1654  H     
47   H        13.9553    0.5391    5.8288  H     
48   H        16.2155   -0.1189    5.3220  H     
49   H        13.4664   -3.0073    8.0962  H     
50   H        17.2298   -4.4410    5.8549  H     
51   H        18.2361   -4.0164    7.2547  H     
52   H        16.3389   -3.8352    8.6840  H     
53   H        15.5296   -4.8300    7.4294  H     
@<TRIPOS>BOND
     1    1    2 2
     2    1    6 1
     3    2    3 1
     4    2   13 1
     5    3    4 2
     6    3    7 1
     7    4    5 1
     8    5    6 2
     9    7    8 1
    10    7   12 1
    11    8    9 1
    12    9   10 1
    13   10   11 1
    14   11   12 1
    15   13   14 am
    16   14   15 1
    17   14   16 2
    18   15   17 2
    19   15   20 1
    20   17   18 1
    21   18   19 1
    22   19   20 2
    23   19   21 1
    24   21   22 2
    25   21   24 1
    26   22   23 1
    27   23   26 2
    28   24   25 2
    29   25   26 1
    30   25   29 1
    31   26   27 1
    32   27   28 1
    33   28   29 1
    34    1   30 1
    35    4   31 1
    36    5   32 1
    37    6   33 1
    38    7   34 1
    39    8   35 1
    40    8   36 1
    41    9   37 1
    42    9   38 1
    43   10   39 1
    44   10   40 1
    45   11   41 1
    46   11   42 1
    47   12   43 1
    48   12   44 1
    49   13   45 1
    50   17   46 1
    51   22   47 1
    52   23   48 1
    53   24   49 1
    54   28   50 1
    55   28   51 1
    56   29   52 1
    57   29   53 1
@<TRIPOS>PROPERTY_DATA
  Total_Score	| 8.9334
  Crash		| -1.3170
  Polar		| 2.8134
  FragIndex	| 1
  FragRMSD	| 0.496

