@<TRIPOS>MOLECULE
BindingDB_50384650
 58 62 0 0 0
SMALL
NO_CHARGES


@<TRIPOS>ATOM
1    C         7.1498   -3.6856   10.2275  C     
2    C         8.5018   -3.5071   10.6210  C     
3    C         9.0222   -4.2167   11.7516  C     
4    C         8.1152   -5.0536   12.4643  C     
5    C         6.7679   -5.1874   12.0890  C     
6    C         6.2872   -4.5088   10.9632  C     
7    N        10.3226   -4.1055   12.2088  N     
8    C        11.0499   -2.8466   12.2094  C     
9    C        12.4348   -3.0306   11.5412  C     
10   N        13.1854   -4.0717   12.2750  N     
11   C        12.4716   -5.3681   12.3391  C     
12   C        11.0205   -5.2008   12.8752  C     
13   N         9.3188   -2.7620    9.8133  N     
14   C         9.0865   -1.5412    9.3261  C     
15   C        10.0370   -0.9111    8.5450  C     
16   O         8.0697   -0.9233    9.6342  O     
17   C         9.9274    0.3964    8.0366  C     
18   S        11.3672    0.7294    7.1692  S     
19   C        12.0930   -0.8106    7.4639  C     
20   N        11.2105   -1.5144    8.2121  N     
21   C        13.3854   -1.2528    7.0975  C     
22   C        14.3196   -0.3817    6.4800  C     
23   C        15.6460   -0.7939    6.2411  C     
24   C        13.8027   -2.5727    7.3968  C     
25   C        15.1210   -2.9885    7.1307  C     
26   C        16.0698   -2.0850    6.6015  C     
27   O        17.3779   -2.4247    6.3700  O     
28   C        17.9577   -3.2492    7.2926  C     
29   C        18.4740   -4.4904    6.8645  C     
30   C        19.0981   -5.3558    7.7801  C     
31   C        19.1917   -4.9950    9.1419  C     
32   C        18.6767   -3.7580    9.5810  C     
33   C        18.0800   -2.8781    8.6514  C     
34   H         6.7954   -3.2512    9.3723  H     
35   H         8.4122   -5.5439   13.3092  H     
36   H         6.1408   -5.7853   12.6327  H     
37   H         5.3157   -4.6274   10.6643  H     
38   H        10.5139   -2.0229   11.7300  H     
39   H        11.2048   -2.5438   13.2538  H     
40   H        12.3214   -3.3107   10.4908  H     
41   H        12.9926   -2.0944   11.5880  H     
42   H        14.0951   -4.2105   11.8322  H     
43   H        13.3538   -3.7310   13.2243  H     
44   H        12.4474   -5.8157   11.3422  H     
45   H        13.0297   -6.0381   12.9974  H     
46   H        11.0604   -4.9949   13.9498  H     
47   H        10.5154   -6.1632   12.7352  H     
48   H        10.1949   -3.1277    9.6361  H     
49   H         9.1556    1.0500    8.1762  H     
50   H        14.0542    0.5700    6.2189  H     
51   H        16.3129   -0.1375    5.8321  H     
52   H        13.1564   -3.2441    7.8175  H     
53   H        15.3883   -3.9407    7.3617  H     
54   H        18.3902   -4.7635    5.8821  H     
55   H        19.4810   -6.2505    7.4608  H     
56   H        19.6459   -5.6296    9.8047  H     
57   H        18.7464   -3.4962   10.5668  H     
58   H        17.7368   -1.9772    8.9733  H     
@<TRIPOS>BOND
     1    1    2 2
     2    1    6 1
     3    2    3 1
     4    2   13 1
     5    3    4 2
     6    3    7 1
     7    4    5 1
     8    5    6 2
     9    7    8 1
    10    7   12 1
    11    8    9 1
    12    9   10 1
    13   10   11 1
    14   11   12 1
    15   13   14 am
    16   14   15 1
    17   14   16 2
    18   15   17 2
    19   15   20 1
    20   17   18 1
    21   18   19 1
    22   19   20 2
    23   19   21 1
    24   21   22 2
    25   21   24 1
    26   22   23 1
    27   23   26 2
    28   24   25 2
    29   25   26 1
    30   26   27 1
    31   27   28 1
    32   28   29 2
    33   28   33 1
    34   29   30 1
    35   30   31 2
    36   31   32 1
    37   32   33 2
    38    1   34 1
    39    4   35 1
    40    5   36 1
    41    6   37 1
    42    8   38 1
    43    8   39 1
    44    9   40 1
    45    9   41 1
    46   10   42 1
    47   10   43 1
    48   11   44 1
    49   11   45 1
    50   12   46 1
    51   12   47 1
    52   13   48 1
    53   17   49 1
    54   22   50 1
    55   23   51 1
    56   24   52 1
    57   25   53 1
    58   29   54 1
    59   30   55 1
    60   31   56 1
    61   32   57 1
    62   33   58 1
@<TRIPOS>PROPERTY_DATA
  Total_Score	| 9.4392
  Crash		| -1.2651
  Polar		| 2.7874
  FragIndex	| 1
  FragRMSD	| 0.529

