@<TRIPOS>MOLECULE
BindingDB_50384649
 52 56 0 0 0
SMALL
NO_CHARGES


@<TRIPOS>ATOM
1    C         7.1537   -3.6911   10.3204  C     
2    C         8.5137   -3.5286   10.6872  C     
3    C         9.0417   -4.2963   11.7756  C     
4    C         8.1617   -5.1946   12.4406  C     
5    C         6.8091   -5.3143   12.0830  C     
6    C         6.3061   -4.5546   11.0226  C     
7    N        10.3323   -4.1674   12.2503  N     
8    C        11.0256   -2.8908   12.2727  C     
9    C        12.4156   -3.0410   11.6065  C     
10   N        13.1926   -4.0685   12.3381  N     
11   C        12.5102   -5.3784   12.3989  C     
12   C        11.0521   -5.2502   12.9196  C     
13   N         9.3368   -2.7602    9.8967  N     
14   C         9.0963   -1.5550    9.3898  C     
15   C        10.0547   -0.9158    8.6120  C     
16   O         8.0651   -0.9531    9.6670  O     
17   C         9.8870    0.3548    8.0322  C     
18   S        11.3205    0.7176    7.1620  S     
19   C        12.1102   -0.7696    7.5315  C     
20   N        11.2569   -1.4800    8.3106  N     
21   C        13.4129   -1.1790    7.1402  C     
22   C        14.2350   -0.3767    6.2992  C     
23   C        15.5457   -0.7735    5.9614  C     
24   C        13.9413   -2.4044    7.6175  C     
25   C        15.2456   -2.7927    7.2689  C     
26   C        16.0403   -1.9932    6.4559  C     
27   O        17.2827   -2.4991    6.2353  O     
28   C        17.1997   -3.8564    6.7190  C     
29   C        15.9723   -3.9832    7.6528  C     
30   H         6.7761   -3.1998    9.5117  H     
31   H         8.4786   -5.7356   13.2516  H     
32   H         6.1966   -5.9501   12.5943  H     
33   H         5.3259   -4.6391   10.7502  H     
34   H        10.4776   -2.0736   11.8027  H     
35   H        11.1756   -2.5908   13.3173  H     
36   H        12.3118   -3.3260   10.5558  H     
37   H        12.9503   -2.0904   11.6511  H     
38   H        14.1068   -4.1900   11.8991  H     
39   H        13.3515   -3.7171   13.2883  H     
40   H        12.5015   -5.8278   11.4025  H     
41   H        13.0779   -6.0363   13.0605  H     
42   H        11.0707   -5.0535   13.9997  H     
43   H        10.5748   -6.2248   12.7738  H     
44   H        10.2253   -3.1204    9.7483  H     
45   H         9.0749    0.9767    8.1182  H     
46   H        13.8973    0.5120    5.9239  H     
47   H        16.1322   -0.1859    5.3610  H     
48   H        13.3889   -3.0242    8.2161  H     
49   H        17.0857   -4.5269    5.8580  H     
50   H        18.1223   -4.1204    7.2443  H     
51   H        16.2524   -3.9287    8.7060  H     
52   H        15.3968   -4.8887    7.4528  H     
@<TRIPOS>BOND
     1    1    2 2
     2    1    6 1
     3    2    3 1
     4    2   13 1
     5    3    4 2
     6    3    7 1
     7    4    5 1
     8    5    6 2
     9    7    8 1
    10    7   12 1
    11    8    9 1
    12    9   10 1
    13   10   11 1
    14   11   12 1
    15   13   14 am
    16   14   15 1
    17   14   16 2
    18   15   17 2
    19   15   20 1
    20   17   18 1
    21   18   19 1
    22   19   20 2
    23   19   21 1
    24   21   22 2
    25   21   24 1
    26   22   23 1
    27   23   26 2
    28   24   25 2
    29   25   26 1
    30   25   29 1
    31   26   27 1
    32   27   28 1
    33   28   29 1
    34    1   30 1
    35    4   31 1
    36    5   32 1
    37    6   33 1
    38    8   34 1
    39    8   35 1
    40    9   36 1
    41    9   37 1
    42   10   38 1
    43   10   39 1
    44   11   40 1
    45   11   41 1
    46   12   42 1
    47   12   43 1
    48   13   44 1
    49   17   45 1
    50   22   46 1
    51   23   47 1
    52   24   48 1
    53   28   49 1
    54   28   50 1
    55   29   51 1
    56   29   52 1
@<TRIPOS>PROPERTY_DATA
  Total_Score	| 9.1732
  Crash		| -1.2235
  Polar		| 2.8427
  FragIndex	| 1
  FragRMSD	| 0.129

