@<TRIPOS>MOLECULE
BindingDB_50384670
 50 54 0 0 0
SMALL
NO_CHARGES


@<TRIPOS>ATOM
1    C         6.8610   -3.5325   10.1272  C     
2    C         8.2427   -3.4866   10.4452  C     
3    C         8.7285   -4.2480   11.5514  C     
4    C         7.7823   -4.9517   12.3466  C     
5    C         6.4147   -4.9420   12.0511  C     
6    C         5.9516   -4.2474   10.9261  C     
7    N        10.0597   -4.3388   11.8716  N     
8    C        10.6734   -5.6232   12.1724  C     
9    C        11.4442   -5.5429   13.5086  C     
10   O        12.3720   -4.4437   13.4893  O     
11   C        11.7353   -3.1719   13.2475  C     
12   C        10.9424   -3.1912   11.9148  C     
13   N         9.1145   -2.8445    9.5919  N     
14   C         9.0037   -1.6188    9.0915  C     
15   C        10.0497   -1.0416    8.3831  C     
16   O         8.0192   -0.9301    9.3431  O     
17   C        10.0168    0.2406    7.8148  C     
18   S        11.5424    0.5119    7.0841  S     
19   C        12.2122   -1.0122    7.5229  C     
20   N        11.2433   -1.6725    8.2024  N     
21   C        13.5184   -1.5030    7.2476  C     
22   C        13.8723   -2.8249    7.6251  C     
23   C        15.1637   -3.3329    7.3868  C     
24   C        14.5025   -0.7048    6.6045  C     
25   C        15.7858   -1.2267    6.3730  C     
26   C        16.1190   -2.5187    6.7584  C     
27   O        17.3875   -2.8886    6.4560  O     
28   C        17.9512   -1.7596    5.7613  C     
29   C        16.9224   -0.6037    5.7212  C     
30   H         6.5118   -3.0997    9.2736  H     
31   H         8.0871   -5.4508   13.1836  H     
32   H         5.7533   -5.4497   12.6483  H     
33   H         4.9603   -4.2755   10.6766  H     
34   H         9.9609   -6.4534   12.2234  H     
35   H        11.3780   -5.8619   11.3717  H     
36   H        10.7435   -5.4397   14.3473  H     
37   H        12.0110   -6.4678   13.6504  H     
38   H        11.0641   -2.9285   14.0735  H     
39   H        12.5081   -2.4050   13.2023  H     
40   H        11.6476   -3.2376   11.0789  H     
41   H        10.4011   -2.2456   11.8441  H     
42   H         9.9667   -3.2923    9.4457  H     
43   H         9.2413    0.9058    7.8196  H     
44   H        13.1907   -3.4382    8.0812  H     
45   H        15.4036   -4.2904    7.6559  H     
46   H        14.3001    0.2514    6.3039  H     
47   H        18.8626   -1.4430    6.2763  H     
48   H        18.2172   -2.0675    4.7454  H     
49   H        16.6761   -0.3198    4.6942  H     
50   H        17.2683    0.2699    6.2812  H     
@<TRIPOS>BOND
     1    1    2 2
     2    1    6 1
     3    2    3 1
     4    2   13 1
     5    3    4 2
     6    3    7 1
     7    4    5 1
     8    5    6 2
     9    7    8 1
    10    7   12 1
    11    8    9 1
    12    9   10 1
    13   10   11 1
    14   11   12 1
    15   13   14 am
    16   14   15 1
    17   14   16 2
    18   15   17 2
    19   15   20 1
    20   17   18 1
    21   18   19 1
    22   19   20 2
    23   19   21 1
    24   21   22 2
    25   21   24 1
    26   22   23 1
    27   23   26 2
    28   24   25 2
    29   25   26 1
    30   25   29 1
    31   26   27 1
    32   27   28 1
    33   28   29 1
    34    1   30 1
    35    4   31 1
    36    5   32 1
    37    6   33 1
    38    8   34 1
    39    8   35 1
    40    9   36 1
    41    9   37 1
    42   11   38 1
    43   11   39 1
    44   12   40 1
    45   12   41 1
    46   13   42 1
    47   17   43 1
    48   22   44 1
    49   23   45 1
    50   24   46 1
    51   28   47 1
    52   28   48 1
    53   29   49 1
    54   29   50 1
@<TRIPOS>PROPERTY_DATA
  Total_Score	| 7.0272
  Crash		| -0.9993
  Polar		| 0.5905
  FragIndex	| 1
  FragRMSD	| 1.412

