@<TRIPOS>MOLECULE
BindingDB_50384665
 50 54 0 0 0
SMALL
NO_CHARGES


@<TRIPOS>ATOM
1    C         6.9070   -3.4523   10.6304  C     
2    C         8.3221   -3.4280   10.7047  C     
3    C         9.0013   -4.3952   11.5107  C     
4    C         8.2209   -5.3599   12.1987  C     
5    C         6.8171   -5.3484   12.1435  C     
6    C         6.1627   -4.3987   11.3484  C     
7    N        10.3708   -4.4105   11.6606  N     
8    C        11.0976   -3.1754   11.9352  C     
9    C        12.3728   -3.4662   12.7652  C     
10   N        13.1421   -4.4840   12.1190  N     
11   C        12.5763   -5.5257   11.5158  C     
12   C        11.1270   -5.6422   11.4050  C     
13   N         9.0618   -2.6273    9.8745  N     
14   C         8.8783   -1.3813    9.4374  C     
15   C         9.8504   -0.7984    8.6322  C     
16   O         7.9165   -0.7111    9.7918  O     
17   C         9.7429    0.4633    8.0225  C     
18   S        11.2039    0.7391    7.1663  S     
19   C        11.9317   -0.7628    7.5918  C     
20   N        11.0332   -1.4186    8.3648  N     
21   C        13.2289   -1.2305    7.2613  C     
22   C        14.0837   -0.5042    6.3777  C     
23   C        15.3855   -0.9633    6.0876  C     
24   C        13.7165   -2.4341    7.8413  C     
25   C        15.0209   -2.8665    7.5518  C     
26   C        15.8459   -2.1428    6.6926  C     
27   O        17.0664   -2.6914    6.5052  O     
28   C        17.0968   -3.8360    7.3799  C     
29   C        15.7101   -4.0403    8.0477  C     
30   O        13.3093   -6.3230   10.9339  O     
31   H         6.4043   -2.8103   10.0159  H     
32   H         8.6602   -6.0505   12.8119  H     
33   H         6.2732   -6.0329   12.6734  H     
34   H         5.1431   -4.3993   11.2826  H     
35   H        11.4167   -2.7084   10.9989  H     
36   H        10.4822   -2.4531   12.4920  H     
37   H        12.9785   -2.5651   12.8597  H     
38   H        12.0887   -3.8055   13.7624  H     
39   H        14.1076   -4.3807   12.0627  H     
40   H        10.8251   -6.4399   12.0884  H     
41   H        10.8900   -5.9643   10.3811  H     
42   H         9.8910   -3.0340    9.5852  H     
43   H         8.9553    1.1127    8.0665  H     
44   H        13.7772    0.3696    5.9326  H     
45   H        15.9928   -0.4325    5.4523  H     
46   H        13.1487   -2.9987    8.4829  H     
47   H        17.3725   -4.7201    6.7982  H     
48   H        17.8603   -3.6679    8.1466  H     
49   H        15.7790   -4.0280    9.1453  H     
50   H        15.2152   -4.9609    7.7039  H     
@<TRIPOS>BOND
     1    1    2 2
     2    1    6 1
     3    2    3 1
     4    2   13 1
     5    3    4 2
     6    3    7 1
     7    4    5 1
     8    5    6 2
     9    7    8 1
    10    7   12 1
    11    8    9 1
    12    9   10 1
    13   10   11 1
    14   11   12 1
    15   11   30 2
    16   13   14 am
    17   14   15 1
    18   14   16 2
    19   15   17 2
    20   15   20 1
    21   17   18 1
    22   18   19 1
    23   19   20 2
    24   19   21 1
    25   21   22 2
    26   21   24 1
    27   22   23 1
    28   23   26 2
    29   24   25 2
    30   25   26 1
    31   25   29 1
    32   26   27 1
    33   27   28 1
    34   28   29 1
    35    1   31 1
    36    4   32 1
    37    5   33 1
    38    6   34 1
    39    8   35 1
    40    8   36 1
    41    9   37 1
    42    9   38 1
    43   10   39 1
    44   12   40 1
    45   12   41 1
    46   13   42 1
    47   17   43 1
    48   22   44 1
    49   23   45 1
    50   24   46 1
    51   28   47 1
    52   28   48 1
    53   29   49 1
    54   29   50 1
@<TRIPOS>PROPERTY_DATA
  Total_Score	| 7.7492
  Crash		| -0.8358
  Polar		| 1.7174
  FragIndex	| 1
  FragRMSD	| 0.476

