@<TRIPOS>MOLECULE
BindingDB_50384666
 55 59 0 0 0
SMALL
NO_CHARGES


@<TRIPOS>ATOM
1    C         7.2462   -3.6459   10.2659  C     
2    C         8.5998   -3.3641   10.5813  C     
3    C         9.2462   -3.9426   11.7352  C     
4    C         8.4534   -4.9267   12.4099  C     
5    C         7.1106   -5.1986   12.1008  C     
6    C         6.4924   -4.5287   11.0439  C     
7    N        10.5182   -3.6141   12.2316  N     
8    C        11.5464   -2.7935   11.5805  C     
9    C        12.8504   -3.6043   11.3838  C     
10   N        13.3190   -4.1629   12.6679  N     
11   C        12.2899   -4.8765   13.4656  C     
12   C        11.0028   -4.0053   13.5654  C     
13   N         9.2504   -2.6301    9.6416  N     
14   C         9.0168   -1.3803    9.2516  C     
15   C         9.9514   -0.7480    8.4444  C     
16   O         8.0557   -0.7523    9.6791  O     
17   C         9.8360    0.5494    7.9260  C     
18   S        11.2995    0.8883    7.0953  S     
19   C        12.0339   -0.6357    7.4091  C     
20   N        11.1393   -1.3392    8.1378  N     
21   C        13.3367   -1.0816    7.0618  C     
22   C        14.2042   -0.2970    6.2541  C     
23   C        15.5126   -0.7289    5.9562  C     
24   C        13.8154   -2.3242    7.5543  C     
25   C        15.1200   -2.7444    7.2425  C     
26   C        15.9596   -1.9607    6.4595  C     
27   O        17.1936   -2.4957    6.2777  O     
28   C        17.0691   -3.8509    6.7532  C     
29   C        15.8080   -3.9572    7.6417  C     
30   C        12.0171   -6.3002   12.9230  C     
31   H         6.8011   -3.2340    9.4399  H     
32   H         8.8431   -5.5241   13.1337  H     
33   H         6.5896   -5.8993   12.6342  H     
34   H         5.5176   -4.7238   10.8070  H     
35   H        11.3237   -2.3812   10.6196  H     
36   H        11.7716   -1.9220   12.2003  H     
37   H        12.6810   -4.4113   10.6669  H     
38   H        13.6348   -2.9550   10.9863  H     
39   H        14.1091   -4.7835   12.4834  H     
40   H        13.6631   -3.3858   13.2353  H     
41   H        12.7011   -4.9896   14.4731  H     
42   H        11.2537   -3.0961   14.1221  H     
43   H        10.2947   -4.5026   14.2208  H     
44   H        10.0533   -3.0402    9.2851  H     
45   H         9.0498    1.1929    8.0348  H     
46   H        13.9003    0.6032    5.8778  H     
47   H        16.1324   -0.1515    5.3838  H     
48   H        13.2318   -2.9260    8.1404  H     
49   H        16.9735   -4.5120    5.8861  H     
50   H        17.9656   -4.1333    7.3091  H     
51   H        16.0511   -3.9221    8.7067  H     
52   H        15.2209   -4.8496    7.4133  H     
53   H        11.5591   -6.2684   11.9338  H     
54   H        11.3477   -6.8331   13.6002  H     
55   H        12.9553   -6.8526   12.8571  H     
@<TRIPOS>BOND
     1    1    2 2
     2    1    6 1
     3    2    3 1
     4    2   13 1
     5    3    4 2
     6    3    7 1
     7    4    5 1
     8    5    6 2
     9    7    8 1
    10    7   12 1
    11    8    9 1
    12    9   10 1
    13   10   11 1
    14   11   12 1
    15   11   30 1
    16   13   14 am
    17   14   15 1
    18   14   16 2
    19   15   17 2
    20   15   20 1
    21   17   18 1
    22   18   19 1
    23   19   20 2
    24   19   21 1
    25   21   22 2
    26   21   24 1
    27   22   23 1
    28   23   26 2
    29   24   25 2
    30   25   26 1
    31   25   29 1
    32   26   27 1
    33   27   28 1
    34   28   29 1
    35    1   31 1
    36    4   32 1
    37    5   33 1
    38    6   34 1
    39    8   35 1
    40    8   36 1
    41    9   37 1
    42    9   38 1
    43   10   39 1
    44   10   40 1
    45   11   41 1
    46   12   42 1
    47   12   43 1
    48   13   44 1
    49   17   45 1
    50   22   46 1
    51   23   47 1
    52   24   48 1
    53   28   49 1
    54   28   50 1
    55   29   51 1
    56   29   52 1
    57   30   53 1
    58   30   54 1
    59   30   55 1
@<TRIPOS>PROPERTY_DATA
  Total_Score	| 9.0312
  Crash		| -1.7093
  Polar		| 2.3451
  FragIndex	| 1
  FragRMSD	| 0.521

