@<TRIPOS>MOLECULE
BindingDB_50384663
 55 59 0 0 0
SMALL
NO_CHARGES


@<TRIPOS>ATOM
1    C         7.1356   -3.6570   10.3427  C     
2    C         8.5031   -3.5645   10.6964  C     
3    C         9.0207   -4.3807   11.7560  C     
4    C         8.1139   -5.2655   12.4025  C     
5    C         6.7560   -5.3268   12.0574  C     
6    C         6.2647   -4.5128   11.0314  C     
7    N        10.3180   -4.3032   12.2285  N     
8    C        10.9934   -3.0242   12.4002  C     
9    C        12.3813   -3.0405   11.7131  C     
10   N        13.1696   -4.1903   12.2127  N     
11   C        12.4762   -5.4893   12.0130  C     
12   C        11.0652   -5.4838   12.6787  C     
13   N         9.3462   -2.8377    9.8954  N     
14   C         9.1519   -1.6299    9.3610  C     
15   C        10.1299   -1.0545    8.5643  C     
16   O         8.1392   -0.9854    9.6037  O     
17   C        10.0221    0.1829    7.9133  C     
18   S        11.4993    0.4472    7.0791  S     
19   C        12.2323   -1.0319    7.5658  C     
20   N        11.3292   -1.6619    8.3513  N     
21   C        13.5352   -1.5215    7.2754  C     
22   C        13.8926   -2.8319    7.6917  C     
23   C        15.1880   -3.3421    7.4776  C     
24   C        14.5115   -0.7416    6.5948  C     
25   C        15.8022   -1.2690    6.3882  C     
26   C        16.1368   -2.5448    6.8227  C     
27   O        17.4100   -2.9163    6.5524  O     
28   C        18.0113   -1.7743    5.9198  C     
29   C        16.9483   -0.6637    5.7382  C     
30   C        11.1746   -5.5909   14.2269  C     
31   H         6.7643   -3.1303    9.5491  H     
32   H         8.4185   -5.8521   13.1801  H     
33   H         6.1259   -5.9572   12.5595  H     
34   H         5.2784   -4.5591   10.7646  H     
35   H        10.4241   -2.1668   12.0398  H     
36   H        11.1309   -2.8413   13.4671  H     
37   H        12.2697   -3.1078   10.6313  H     
38   H        12.9146   -2.1211   11.9523  H     
39   H        14.0844   -4.2144   11.7508  H     
40   H        13.3338   -4.0441   13.2131  H     
41   H        12.3725   -5.6795   10.9406  H     
42   H        13.0909   -6.2870   12.4273  H     
43   H        10.5742   -6.4014   12.3356  H     
44   H        10.2267   -3.2238    9.7500  H     
45   H         9.2207    0.8179    7.9292  H     
46   H        13.2170   -3.4308    8.1763  H     
47   H        15.4327   -4.2797    7.7937  H     
48   H        14.3071    0.2060    6.2744  H     
49   H        18.8312   -1.4164    6.5447  H     
50   H        18.4177   -2.0810    4.9537  H     
51   H        16.7388   -0.4764    4.6813  H     
52   H        17.2374    0.2639    6.2407  H     
53   H        11.8911   -4.8698   14.6245  H     
54   H        11.5047   -6.5923   14.5134  H     
55   H        10.2088   -5.4017   14.6960  H     
@<TRIPOS>BOND
     1    1    2 2
     2    1    6 1
     3    2    3 1
     4    2   13 1
     5    3    4 2
     6    3    7 1
     7    4    5 1
     8    5    6 2
     9    7    8 1
    10    7   12 1
    11    8    9 1
    12    9   10 1
    13   10   11 1
    14   11   12 1
    15   12   30 1
    16   13   14 am
    17   14   15 1
    18   14   16 2
    19   15   17 2
    20   15   20 1
    21   17   18 1
    22   18   19 1
    23   19   20 2
    24   19   21 1
    25   21   22 2
    26   21   24 1
    27   22   23 1
    28   23   26 2
    29   24   25 2
    30   25   26 1
    31   25   29 1
    32   26   27 1
    33   27   28 1
    34   28   29 1
    35    1   31 1
    36    4   32 1
    37    5   33 1
    38    6   34 1
    39    8   35 1
    40    8   36 1
    41    9   37 1
    42    9   38 1
    43   10   39 1
    44   10   40 1
    45   11   41 1
    46   11   42 1
    47   12   43 1
    48   13   44 1
    49   17   45 1
    50   22   46 1
    51   23   47 1
    52   24   48 1
    53   28   49 1
    54   28   50 1
    55   29   51 1
    56   29   52 1
    57   30   53 1
    58   30   54 1
    59   30   55 1
@<TRIPOS>PROPERTY_DATA
  Total_Score	| 8.9341
  Crash		| -0.9090
  Polar		| 2.1267
  FragIndex	| 1
  FragRMSD	| 1.288

