@<TRIPOS>MOLECULE
BindingDB_50384660
 56 60 0 0 0
SMALL
NO_CHARGES


@<TRIPOS>ATOM
1    C         7.1559   -3.6683   10.2724  C     
2    C         8.5067   -3.5131   10.6812  C     
3    C         9.0107   -4.2686   11.7882  C     
4    C         8.1012   -5.1446   12.4475  C     
5    C         6.7561   -5.2552   12.0569  C     
6    C         6.2816   -4.5148   10.9674  C     
7    N        10.2966   -4.1536   12.2825  N     
8    C        10.9940   -5.2449   12.9545  C     
9    C        12.4469   -5.4059   12.4153  C     
10   N        13.1627   -4.1073   12.3493  N     
11   C        12.3986   -3.0707   11.6231  C     
12   C        11.0183   -2.8936   12.2986  C     
13   N         9.3429   -2.7564    9.8954  N     
14   C         9.1246   -1.5399    9.3992  C     
15   C        10.0798   -0.9169    8.6074  C     
16   O         8.0954   -0.9267    9.6722  O     
17   C         9.9040    0.3253    7.9770  C     
18   S        11.3454    0.6609    7.1135  S     
19   C        12.1559   -0.7870    7.5702  C     
20   N        11.2999   -1.4737    8.3641  N     
21   C        13.4743   -1.1864    7.2260  C     
22   C        14.2516   -0.4738    6.2837  C     
23   C        15.5629   -0.8789    5.9737  C     
24   C        14.0604   -2.3148    7.8442  C     
25   C        16.1379   -2.0031    6.5941  C     
26   C        15.3808   -2.7170    7.5640  C     
27   O        15.8309   -3.8196    8.2516  O     
28   O        17.4310   -2.3011    6.2318  O     
29   C        17.2019   -3.8094    8.6884  C     
30   C        17.8031   -3.6906    6.1674  C     
31   C        18.1631   -4.2626    7.5624  C     
32   H         6.8063   -3.1931    9.4362  H     
33   H         8.3914   -5.6804   13.2667  H     
34   H         6.1223   -5.8756   12.5667  H     
35   H         5.3107   -4.6085   10.6639  H     
36   H        11.0327   -5.0378   14.0268  H     
37   H        10.4965   -6.2087   12.8141  H     
38   H        13.0062   -6.0796   13.0674  H     
39   H        12.4192   -5.8488   11.4166  H     
40   H        13.3389   -3.7635   13.2960  H     
41   H        14.0717   -4.2469   11.9008  H     
42   H        12.9522   -2.1335   11.6559  H     
43   H        12.2731   -3.3606   10.5787  H     
44   H        10.4818   -2.0655   11.8340  H     
45   H        11.1741   -2.5976   13.3423  H     
46   H        10.2210   -3.1307    9.7302  H     
47   H         9.0798    0.9258    8.0085  H     
48   H        13.8775    0.3487    5.8046  H     
49   H        16.1025   -0.3436    5.2889  H     
50   H        13.5292   -2.8562    8.5304  H     
51   H        17.4902   -2.8199    9.0629  H     
52   H        17.2891   -4.5052    9.5256  H     
53   H        17.0104   -4.2866    5.7006  H     
54   H        18.6822   -3.7683    5.5249  H     
55   H        19.1773   -3.9522    7.8283  H     
56   H        18.1553   -5.3535    7.4998  H     
@<TRIPOS>BOND
     1    1    2 2
     2    1    6 1
     3    2    3 1
     4    2   13 1
     5    3    4 2
     6    3    7 1
     7    4    5 1
     8    5    6 2
     9    7    8 1
    10    7   12 1
    11    8    9 1
    12    9   10 1
    13   10   11 1
    14   11   12 1
    15   13   14 am
    16   14   15 1
    17   14   16 2
    18   15   17 2
    19   15   20 1
    20   17   18 1
    21   18   19 1
    22   19   20 2
    23   19   21 1
    24   21   22 2
    25   21   24 1
    26   22   23 1
    27   23   25 2
    28   24   26 2
    29   25   26 1
    30   25   28 1
    31   26   27 1
    32   27   29 1
    33   28   30 1
    34   29   31 1
    35   30   31 1
    36    1   32 1
    37    4   33 1
    38    5   34 1
    39    6   35 1
    40    8   36 1
    41    8   37 1
    42    9   38 1
    43    9   39 1
    44   10   40 1
    45   10   41 1
    46   11   42 1
    47   11   43 1
    48   12   44 1
    49   12   45 1
    50   13   46 1
    51   17   47 1
    52   22   48 1
    53   23   49 1
    54   24   50 1
    55   29   51 1
    56   29   52 1
    57   30   53 1
    58   30   54 1
    59   31   55 1
    60   31   56 1
@<TRIPOS>PROPERTY_DATA
  Total_Score	| 9.2583
  Crash		| -0.9672
  Polar		| 2.7544
  FragIndex	| 1
  FragRMSD	| 0.236

