@<TRIPOS>MOLECULE
BindingDB_50384676
 54 57 0 0 0
SMALL
NO_CHARGES


@<TRIPOS>ATOM
1    C         7.1427   -3.6676   10.2780  C     
2    C         8.4998   -3.5259   10.6596  C     
3    C         9.0127   -4.2817   11.7648  C     
4    C         8.1169   -5.1617   12.4319  C     
5    C         6.7628   -5.2597   12.0635  C     
6    C         6.2750   -4.5142   10.9878  C     
7    N        10.3014   -4.1593   12.2421  N     
8    C        11.0101   -5.2455   12.9068  C     
9    C        12.4538   -5.3927   12.3492  C     
10   N        13.1651   -4.0925   12.3194  N     
11   C        12.4036   -3.0367   11.6192  C     
12   C        11.0055   -2.8888   12.2665  C     
13   N         9.3414   -2.7851    9.8646  N     
14   C         9.1376   -1.5731    9.3439  C     
15   C        10.0994   -0.9677    8.5490  C     
16   O         8.1168   -0.9490    9.6151  O     
17   C         9.9493    0.2804    7.9194  C     
18   S        11.4037    0.5948    7.0667  S     
19   C        12.1872   -0.8689    7.5353  C     
20   N        11.3088   -1.5479    8.3091  N     
21   C        13.5041   -1.3052    7.2237  C     
22   C        14.3873   -0.5016    6.4634  C     
23   C        15.7177   -0.9108    6.2304  C     
24   C        13.9922   -2.5402    7.7159  C     
25   C        15.3131   -2.9789    7.4813  C     
26   C        16.1787   -2.1455    6.7334  C     
27   O        17.4963   -2.5023    6.5670  O     
28   C        17.7489   -3.3579    5.4251  C     
29   C        15.7322   -4.2764    8.0600  C     
30   H         6.7786   -3.1933    9.4482  H     
31   H         8.4213   -5.7045   13.2410  H     
32   H         6.1391   -5.8835   12.5834  H     
33   H         5.2968   -4.6036   10.6983  H     
34   H        11.0593   -5.0400   13.9796  H     
35   H        10.5111   -6.2111   12.7725  H     
36   H        13.0195   -6.0870   12.9746  H     
37   H        12.4165   -5.8050   11.3363  H     
38   H        13.3344   -3.7739   13.2764  H     
39   H        14.0825   -4.2165   11.8757  H     
40   H        12.9473   -2.0963   11.7013  H     
41   H        12.3079   -3.2856   10.5597  H     
42   H        10.4618   -2.0717   11.7877  H     
43   H        11.1331   -2.5864   13.3099  H     
44   H        10.2243   -3.1671    9.7199  H     
45   H         9.1296    0.8976    7.9441  H     
46   H        14.0890    0.3963    6.0754  H     
47   H        16.3717   -0.3157    5.6956  H     
48   H        13.3645   -3.1378    8.2662  H     
49   H        17.1633   -4.2942    5.4698  H     
50   H        18.8162   -3.6236    5.4274  H     
51   H        17.5111   -2.8129    4.4925  H     
52   H        15.6815   -4.2378    9.1509  H     
53   H        16.7466   -4.5515    7.7826  H     
54   H        15.0667   -5.0691    7.7147  H     
@<TRIPOS>BOND
     1    1    2 2
     2    1    6 1
     3    2    3 1
     4    2   13 1
     5    3    4 2
     6    3    7 1
     7    4    5 1
     8    5    6 2
     9    7    8 1
    10    7   12 1
    11    8    9 1
    12    9   10 1
    13   10   11 1
    14   11   12 1
    15   13   14 am
    16   14   15 1
    17   14   16 2
    18   15   17 2
    19   15   20 1
    20   17   18 1
    21   18   19 1
    22   19   20 2
    23   19   21 1
    24   21   22 2
    25   21   24 1
    26   22   23 1
    27   23   26 2
    28   24   25 2
    29   25   26 1
    30   25   29 1
    31   26   27 1
    32   27   28 1
    33    1   30 1
    34    4   31 1
    35    5   32 1
    36    6   33 1
    37    8   34 1
    38    8   35 1
    39    9   36 1
    40    9   37 1
    41   10   38 1
    42   10   39 1
    43   11   40 1
    44   11   41 1
    45   12   42 1
    46   12   43 1
    47   13   44 1
    48   17   45 1
    49   22   46 1
    50   23   47 1
    51   24   48 1
    52   28   49 1
    53   28   50 1
    54   28   51 1
    55   29   52 1
    56   29   53 1
    57   29   54 1
@<TRIPOS>PROPERTY_DATA
  Total_Score	| 9.4903
  Crash		| -1.0426
  Polar		| 2.7487
  FragIndex	| 1
  FragRMSD	| 0.358

