@<TRIPOS>MOLECULE
BindingDB_50384675
 51 54 0 0 0
SMALL
NO_CHARGES


@<TRIPOS>ATOM
1    C         7.1254   -3.6963   10.2998  C     
2    C         8.4926   -3.5420   10.6499  C     
3    C         9.0398   -4.2603   11.7605  C     
4    C         8.1598   -5.1220   12.4759  C     
5    C         6.7984   -5.2316   12.1519  C     
6    C         6.2802   -4.5208   11.0596  C     
7    N        10.3387   -4.1187   12.2115  N     
8    C        11.0576   -5.1838   12.9028  C     
9    C        12.5134   -5.3238   12.3651  C     
10   N        13.2013   -4.0141   12.2798  N     
11   C        12.4249   -3.0051   11.5317  C     
12   C        11.0352   -2.8428   12.1925  C     
13   N         9.3114   -2.8197    9.8198  N     
14   C         9.1202   -1.5948    9.3264  C     
15   C        10.0868   -0.9785    8.5524  C     
16   O         8.1059   -0.9627    9.6077  O     
17   C         9.9587    0.3001    7.9758  C     
18   S        11.4127    0.6417    7.1422  S     
19   C        12.1811   -0.8535    7.5377  C     
20   N        11.2946   -1.5526    8.2907  N     
21   C        13.4910   -1.2701    7.2041  C     
22   C        13.9794   -2.5246    7.6365  C     
23   C        15.3067   -2.9128    7.3737  C     
24   C        14.3683   -0.4244    6.4756  C     
25   C        15.6985   -0.8102    6.2222  C     
26   C        16.1772   -2.0595    6.6739  C     
27   O        17.4915   -2.4170    6.5315  O     
28   C        17.7409   -3.2732    5.3990  C     
29   H         6.7457   -3.2365    9.4673  H     
30   H         8.4841   -5.6318   13.3010  H     
31   H         6.1792   -5.8288   12.7117  H     
32   H         5.2891   -4.6083   10.8051  H     
33   H        11.0901   -4.9590   13.9717  H     
34   H        10.5735   -6.1588   12.7829  H     
35   H        13.0832   -5.9761   13.0278  H     
36   H        12.4993   -5.7819   11.3746  H     
37   H        13.3599   -3.6544   13.2221  H     
38   H        14.1200   -4.1392   11.8477  H     
39   H        12.9594   -2.0577   11.5572  H     
40   H        12.3246   -3.3142   10.4886  H     
41   H        10.4797   -2.0385   11.7004  H     
42   H        11.1800   -2.5143   13.2290  H     
43   H        10.1919   -3.2020    9.6586  H     
44   H         9.1494    0.9215    8.0311  H     
45   H        13.3733   -3.1644    8.1551  H     
46   H        15.6349   -3.8227    7.7047  H     
47   H        14.0614    0.4947    6.1436  H     
48   H        16.3305   -0.1717    5.7342  H     
49   H        17.1362   -4.1867    5.4300  H     
50   H        18.7915   -3.5715    5.4196  H     
51   H        17.5548   -2.7385    4.4587  H     
@<TRIPOS>BOND
     1    1    2 2
     2    1    6 1
     3    2    3 1
     4    2   13 1
     5    3    4 2
     6    3    7 1
     7    4    5 1
     8    5    6 2
     9    7    8 1
    10    7   12 1
    11    8    9 1
    12    9   10 1
    13   10   11 1
    14   11   12 1
    15   13   14 am
    16   14   15 1
    17   14   16 2
    18   15   17 2
    19   15   20 1
    20   17   18 1
    21   18   19 1
    22   19   20 2
    23   19   21 1
    24   21   22 2
    25   21   24 1
    26   22   23 1
    27   23   26 2
    28   24   25 2
    29   25   26 1
    30   26   27 1
    31   27   28 1
    32    1   29 1
    33    4   30 1
    34    5   31 1
    35    6   32 1
    36    8   33 1
    37    8   34 1
    38    9   35 1
    39    9   36 1
    40   10   37 1
    41   10   38 1
    42   11   39 1
    43   11   40 1
    44   12   41 1
    45   12   42 1
    46   13   43 1
    47   17   44 1
    48   22   45 1
    49   23   46 1
    50   24   47 1
    51   25   48 1
    52   28   49 1
    53   28   50 1
    54   28   51 1
@<TRIPOS>PROPERTY_DATA
  Total_Score	| 9.0965
  Crash		| -1.0625
  Polar		| 2.9395
  FragIndex	| 1
  FragRMSD	| 0.364

