@<TRIPOS>MOLECULE
BindingDB_50384664
 51 55 0 0 0
SMALL
NO_CHARGES


@<TRIPOS>ATOM
1    C         6.9872   -3.5202   10.4726  C     
2    C         8.3926   -3.4414   10.6324  C     
3    C         9.0184   -4.2698   11.6042  C     
4    C         8.2313   -5.1192   12.4155  C     
5    C         6.8362   -5.1707   12.2557  C     
6    C         6.2156   -4.3769   11.2798  C     
7    N        10.3879   -4.2748   11.7741  N     
8    C        10.9718   -3.1553   12.5003  C     
9    C        12.4787   -3.3202   12.8269  C     
10   N        13.1532   -3.9232   11.6574  N     
11   C        12.5936   -5.2387   11.2762  C     
12   C        11.1362   -5.2424   11.2186  C     
13   N         9.1855   -2.6604    9.8315  N     
14   C         8.9538   -1.4476    9.3397  C     
15   C         9.9337   -0.8220    8.5819  C     
16   O         7.9233   -0.8397    9.6035  O     
17   C         9.8115    0.4488    7.9975  C     
18   S        11.2824    0.7731    7.1731  S     
19   C        12.0332   -0.7214    7.5841  C     
20   N        11.1375   -1.4081    8.3355  N     
21   C        13.3367   -1.1632    7.2381  C     
22   C        14.1881   -0.3898    6.4027  C     
23   C        15.4903   -0.8249    6.0755  C     
24   C        13.8190   -2.4098    7.7214  C     
25   C        15.1121   -2.8417    7.3721  C     
26   C        15.9422   -2.0583    6.5762  C     
27   O        17.1721   -2.5970    6.3756  O     
28   C        17.0404   -3.9597    6.8323  C     
29   C        15.8051   -4.0573    7.7552  C     
30   O        10.6267   -6.1914   10.6205  O     
31   H         6.5160   -2.9809    9.7453  H     
32   H         8.6729   -5.7128   13.1220  H     
33   H         6.2761   -5.7956   12.8415  H     
34   H         5.2028   -4.4330   11.1449  H     
35   H        10.8453   -2.2468   11.9002  H     
36   H        10.4485   -2.9992   13.4474  H     
37   H        12.9243   -2.3488   13.0417  H     
38   H        12.6141   -3.9577   13.7062  H     
39   H        13.0418   -3.2852   10.8651  H     
40   H        14.1562   -4.0306   11.8584  H     
41   H        13.0029   -5.4963   10.2966  H     
42   H        12.9234   -5.9948   11.9922  H     
43   H        10.0795   -3.0044    9.6753  H     
44   H         9.0076    1.0790    8.0432  H     
45   H        13.8813    0.5081    6.0318  H     
46   H        16.1005   -0.2520    5.4815  H     
47   H        13.2445   -3.0070    8.3268  H     
48   H        16.9114   -4.6056    5.9588  H     
49   H        17.9422   -4.2668    7.3602  H     
50   H        16.0793   -4.0118    8.8081  H     
51   H        15.2091   -4.9497    7.5534  H     
@<TRIPOS>BOND
     1    1    2 2
     2    1    6 1
     3    2    3 1
     4    2   13 1
     5    3    4 2
     6    3    7 1
     7    4    5 1
     8    5    6 2
     9    7    8 1
    10    7   12 1
    11    8    9 1
    12    9   10 1
    13   10   11 1
    14   11   12 1
    15   12   30 2
    16   13   14 am
    17   14   15 1
    18   14   16 2
    19   15   17 2
    20   15   20 1
    21   17   18 1
    22   18   19 1
    23   19   20 2
    24   19   21 1
    25   21   22 2
    26   21   24 1
    27   22   23 1
    28   23   26 2
    29   24   25 2
    30   25   26 1
    31   25   29 1
    32   26   27 1
    33   27   28 1
    34   28   29 1
    35    1   31 1
    36    4   32 1
    37    5   33 1
    38    6   34 1
    39    8   35 1
    40    8   36 1
    41    9   37 1
    42    9   38 1
    43   10   39 1
    44   10   40 1
    45   11   41 1
    46   11   42 1
    47   13   43 1
    48   17   44 1
    49   22   45 1
    50   23   46 1
    51   24   47 1
    52   28   48 1
    53   28   49 1
    54   29   50 1
    55   29   51 1
@<TRIPOS>PROPERTY_DATA
  Total_Score	| 8.7935
  Crash		| -1.2436
  Polar		| 2.3112
  FragIndex	| 1
  FragRMSD	| 0.474

