@<TRIPOS>MOLECULE
BindingDB_50384677
 55 58 0 0 0
SMALL
NO_CHARGES


@<TRIPOS>ATOM
1    C         7.1293   -3.6271   10.3064  C     
2    C         8.4882   -3.4705   10.6774  C     
3    C         9.0212   -4.2280   11.7724  C     
4    C         8.1310   -5.1066   12.4530  C     
5    C         6.7764   -5.2137   12.0997  C     
6    C         6.2751   -4.4741   11.0275  C     
7    N        10.3181   -4.1091   12.2309  N     
8    C        11.0170   -5.1822   12.9256  C     
9    C        12.4615   -5.3509   12.3795  C     
10   N        13.1782   -4.0563   12.3130  N     
11   C        12.4252   -3.0163   11.5792  C     
12   C        11.0292   -2.8425   12.2228  C     
13   N         9.3173   -2.7334    9.8807  N     
14   C         9.0928   -1.5495    9.3073  C     
15   C        10.0647   -0.9642    8.5146  C     
16   O         8.0533   -0.9339    9.5202  O     
17   C         9.9490    0.2587    7.8371  C     
18   S        11.4274    0.5299    7.0112  S     
19   C        12.1762   -0.9288    7.5374  C     
20   N        11.2720   -1.5605    8.3229  N     
21   C        13.4842   -1.4031    7.2772  C     
22   C        14.4991   -0.5481    6.7891  C     
23   C        15.8139   -1.0183    6.6147  C     
24   C        13.8196   -2.7552    7.5434  C     
25   C        15.1320   -3.2343    7.3660  C     
26   C        16.1346   -2.3559    6.8947  C     
27   O        17.4325   -2.7749    6.7775  O     
28   C        17.7028   -3.4321    5.5289  C     
29   O        15.4352   -4.5499    7.5993  O     
30   C        15.5582   -4.8942    8.9908  C     
31   H         6.7587   -3.1552    9.4793  H     
32   H         8.4489   -5.6399   13.2621  H     
33   H         6.1529   -5.8302   12.6303  H     
34   H         5.2916   -4.5559   10.7531  H     
35   H        11.0566   -4.9497   13.9936  H     
36   H        10.5124   -6.1490   12.8159  H     
37   H        13.0219   -6.0269   13.0278  H     
38   H        12.4284   -5.7919   11.3799  H     
39   H        13.3477   -3.7123   13.2609  H     
40   H        14.0876   -4.1998   11.8727  H     
41   H        12.9732   -2.0752   11.6342  H     
42   H        12.3306   -3.2971   10.5265  H     
43   H        10.4855   -2.0337   11.7250  H     
44   H        11.1688   -2.5195   13.2602  H     
45   H        10.2147   -3.0899    9.7718  H     
46   H         9.1445    0.8942    7.8332  H     
47   H        14.3027    0.4333    6.5742  H     
48   H        16.5433   -0.3754    6.2937  H     
49   H        13.1062   -3.4076    7.8769  H     
50   H        17.1191   -4.3517    5.4374  H     
51   H        18.7618   -3.6907    5.5123  H     
52   H        17.4973   -2.7807    4.6739  H     
53   H        16.3161   -4.2837    9.4918  H     
54   H        15.8623   -5.9409    9.0563  H     
55   H        14.6007   -4.7860    9.5074  H     
@<TRIPOS>BOND
     1    1    2 2
     2    1    6 1
     3    2    3 1
     4    2   13 1
     5    3    4 2
     6    3    7 1
     7    4    5 1
     8    5    6 2
     9    7    8 1
    10    7   12 1
    11    8    9 1
    12    9   10 1
    13   10   11 1
    14   11   12 1
    15   13   14 am
    16   14   15 1
    17   14   16 2
    18   15   17 2
    19   15   20 1
    20   17   18 1
    21   18   19 1
    22   19   20 2
    23   19   21 1
    24   21   22 2
    25   21   24 1
    26   22   23 1
    27   23   26 2
    28   24   25 2
    29   25   26 1
    30   25   29 1
    31   26   27 1
    32   27   28 1
    33   29   30 1
    34    1   31 1
    35    4   32 1
    36    5   33 1
    37    6   34 1
    38    8   35 1
    39    8   36 1
    40    9   37 1
    41    9   38 1
    42   10   39 1
    43   10   40 1
    44   11   41 1
    45   11   42 1
    46   12   43 1
    47   12   44 1
    48   13   45 1
    49   17   46 1
    50   22   47 1
    51   23   48 1
    52   24   49 1
    53   28   50 1
    54   28   51 1
    55   28   52 1
    56   30   53 1
    57   30   54 1
    58   30   55 1
@<TRIPOS>PROPERTY_DATA
  Total_Score	| 9.1927
  Crash		| -1.2689
  Polar		| 2.8585
  FragIndex	| 1
  FragRMSD	| 0.399

