@<TRIPOS>MOLECULE
BindingDB_50384669
 56 60 0 0 0
SMALL
NO_CHARGES


@<TRIPOS>ATOM
1    C         7.0149   -3.5906   10.1048  C     
2    C         8.3534   -3.4658   10.5687  C     
3    C         8.7730   -4.1744   11.7496  C     
4    C         7.7744   -4.9591   12.4013  C     
5    C         6.4480   -5.0359   11.9529  C     
6    C         6.0626   -4.3469   10.7952  C     
7    N        10.0512   -4.1458   12.2978  N     
8    C        10.9713   -3.0231   12.2107  C     
9    C        12.2414   -3.4990   11.4417  C     
10   N        12.7514   -4.7884   11.8978  N     
11   C        12.1701   -5.3130   13.1188  C     
12   C        10.6168   -5.3141   12.9822  C     
13   N         9.2283   -2.7728    9.7676  N     
14   C         9.0945   -1.5167    9.3377  C     
15   C        10.0894   -0.9048    8.5805  C     
16   O         8.1204   -0.8467    9.6792  O     
17   C         9.9651    0.3918    8.0496  C     
18   S        11.4131    0.7402    7.2053  S     
19   C        12.1602   -0.7801    7.5262  C     
20   N        11.2857   -1.4942    8.2826  N     
21   C        13.4693   -1.1717    7.1246  C     
22   C        14.2702   -0.3605    6.2730  C     
23   C        15.5889   -0.7284    5.9380  C     
24   C        14.0259   -2.3842    7.6071  C     
25   C        15.3474   -2.7378    7.2711  C     
26   C        16.1226   -1.9233    6.4529  C     
27   O        17.3845   -2.3707    6.2583  O     
28   C        17.4347   -3.6598    6.9073  C     
29   C        16.1203   -3.8920    7.6910  C     
30   C        13.6895   -5.4782   11.2123  C     
31   C        14.1043   -5.1556    9.8617  C     
32   O        14.2183   -6.4740   11.6955  O     
33   H         6.7238   -3.1468    9.2337  H     
34   H         7.9873   -5.4840   13.2476  H     
35   H         5.7588   -5.5879   12.4684  H     
36   H         5.1047   -4.4204   10.4454  H     
37   H        10.5659   -2.1121   11.7741  H     
38   H        11.2595   -2.7313   13.2236  H     
39   H        11.9645   -3.5675   10.3876  H     
40   H        13.0209   -2.7360   11.5405  H     
41   H        12.4970   -6.3199   13.3875  H     
42   H        12.4605   -4.6640   13.9523  H     
43   H        10.1886   -5.4090   13.9869  H     
44   H        10.3637   -6.2139   12.4084  H     
45   H        10.0758   -3.2032    9.5822  H     
46   H         9.1672    1.0248    8.1365  H     
47   H        13.9140    0.5178    5.8874  H     
48   H        16.1618   -0.1292    5.3363  H     
49   H        13.4838   -3.0020    8.2115  H     
50   H        17.5658   -4.4357    6.1462  H     
51   H        18.2944   -3.6927    7.5864  H     
52   H        16.2748   -3.8876    8.7810  H     
53   H        15.6254   -4.8172    7.3792  H     
54   H        13.2509   -5.2520    9.1878  H     
55   H        14.8978   -5.8156    9.4955  H     
56   H        14.4640   -4.1309    9.8238  H     
@<TRIPOS>BOND
     1    1    2 2
     2    1    6 1
     3    2    3 1
     4    2   13 1
     5    3    4 2
     6    3    7 1
     7    4    5 1
     8    5    6 2
     9    7    8 1
    10    7   12 1
    11    8    9 1
    12    9   10 1
    13   10   11 1
    14   10   30 am
    15   11   12 1
    16   13   14 am
    17   14   15 1
    18   14   16 2
    19   15   17 2
    20   15   20 1
    21   17   18 1
    22   18   19 1
    23   19   20 2
    24   19   21 1
    25   21   22 2
    26   21   24 1
    27   22   23 1
    28   23   26 2
    29   24   25 2
    30   25   26 1
    31   25   29 1
    32   26   27 1
    33   27   28 1
    34   28   29 1
    35   30   31 1
    36   30   32 2
    37    1   33 1
    38    4   34 1
    39    5   35 1
    40    6   36 1
    41    8   37 1
    42    8   38 1
    43    9   39 1
    44    9   40 1
    45   11   41 1
    46   11   42 1
    47   12   43 1
    48   12   44 1
    49   13   45 1
    50   17   46 1
    51   22   47 1
    52   23   48 1
    53   24   49 1
    54   28   50 1
    55   28   51 1
    56   29   52 1
    57   29   53 1
    58   31   54 1
    59   31   55 1
    60   31   56 1
@<TRIPOS>PROPERTY_DATA
  Total_Score	| 7.0362
  Crash		| -1.1465
  Polar		| 0.5644
  FragIndex	| 1
  FragRMSD	| 0.334

