@<TRIPOS>MOLECULE
BindingDB_50384667
 55 59 0 0 0
SMALL
NO_CHARGES


@<TRIPOS>ATOM
1    C         7.1308   -3.6706   10.3043  C     
2    C         8.5046   -3.5207   10.6701  C     
3    C         9.0459   -4.2495   11.7695  C     
4    C         8.1617   -5.1119   12.4808  C     
5    C         6.8077   -5.2441   12.1198  C     
6    C         6.2842   -4.5020   11.0567  C     
7    N        10.3481   -4.1066   12.2368  N     
8    C        11.0556   -2.8303   12.1843  C     
9    C        12.4561   -3.0414   11.5651  C     
10   N        13.2065   -3.9916   12.4087  N     
11   C        12.5270   -5.2984   12.5878  C     
12   C        11.0328   -5.1250   13.0287  C     
13   N         9.3053   -2.8015    9.8201  N     
14   C         9.1047   -1.5746    9.3459  C     
15   C        10.0682   -0.9323    8.5791  C     
16   O         8.0946   -0.9502    9.6414  O     
17   C         9.8903    0.3262    7.9798  C     
18   S        11.3211    0.6942    7.1165  S     
19   C        12.1458   -0.7642    7.5262  C     
20   N        11.2931   -1.4775    8.3090  N     
21   C        13.4516   -1.1531    7.1421  C     
22   C        14.2581   -0.3316    6.2975  C     
23   C        15.5647   -0.7182    5.9328  C     
24   C        13.9983   -2.3768    7.5979  C     
25   C        15.3054   -2.7455    7.2326  C     
26   C        16.0816   -1.9336    6.4255  C     
27   O        17.3359   -2.4152    6.1895  O     
28   C        17.2678   -3.7810    6.6533  C     
29   C        16.0507   -3.9394    7.5934  C     
30   C        13.3345   -6.1237   13.6204  C     
31   H         6.7434   -3.2087    9.4829  H     
32   H         8.4742   -5.6340   13.2956  H     
33   H         6.1865   -5.8560   12.6772  H     
34   H         5.2929   -4.5900   10.8025  H     
35   H        10.5260   -2.0303   11.6708  H     
36   H        11.1866   -2.4791   13.2196  H     
37   H        12.3756   -3.4223   10.5387  H     
38   H        12.9934   -2.1021   11.5482  H     
39   H        14.1353   -4.1599   11.9928  H     
40   H        13.3495   -3.5618   13.3255  H     
41   H        12.5468   -5.8395   11.6360  H     
42   H        10.9857   -4.8249   14.0900  H     
43   H        10.5667   -6.1120   12.9324  H     
44   H        10.1643   -3.1917    9.6214  H     
45   H         9.0606    0.9246    8.0377  H     
46   H        13.9191    0.5621    5.9477  H     
47   H        16.1412   -0.1172    5.3340  H     
48   H        13.4620   -3.0035    8.2039  H     
49   H        17.1519   -4.4341    5.7808  H     
50   H        18.2005   -4.0477    7.1619  H     
51   H        16.3359   -3.9170    8.6453  H     
52   H        15.4835   -4.8438    7.3672  H     
53   H        14.3686   -6.2314   13.2912  H     
54   H        12.9053   -7.1218   13.7413  H     
55   H        13.3265   -5.6241   14.5977  H     
@<TRIPOS>BOND
     1    1    2 2
     2    1    6 1
     3    2    3 1
     4    2   13 1
     5    3    4 2
     6    3    7 1
     7    4    5 1
     8    5    6 2
     9    7    8 1
    10    7   12 1
    11    8    9 1
    12    9   10 1
    13   10   11 1
    14   11   12 1
    15   11   30 1
    16   13   14 am
    17   14   15 1
    18   14   16 2
    19   15   17 2
    20   15   20 1
    21   17   18 1
    22   18   19 1
    23   19   20 2
    24   19   21 1
    25   21   22 2
    26   21   24 1
    27   22   23 1
    28   23   26 2
    29   24   25 2
    30   25   26 1
    31   25   29 1
    32   26   27 1
    33   27   28 1
    34   28   29 1
    35    1   31 1
    36    4   32 1
    37    5   33 1
    38    6   34 1
    39    8   35 1
    40    8   36 1
    41    9   37 1
    42    9   38 1
    43   10   39 1
    44   10   40 1
    45   11   41 1
    46   12   42 1
    47   12   43 1
    48   13   44 1
    49   17   45 1
    50   22   46 1
    51   23   47 1
    52   24   48 1
    53   28   49 1
    54   28   50 1
    55   29   51 1
    56   29   52 1
    57   30   53 1
    58   30   54 1
    59   30   55 1
@<TRIPOS>PROPERTY_DATA
  Total_Score	| 9.7488
  Crash		| -1.3123
  Polar		| 3.0585
  FragIndex	| 1
  FragRMSD	| 0.176

