@<TRIPOS>MOLECULE
BindingDB_50384668
 55 59 0 0 0
SMALL
NO_CHARGES


@<TRIPOS>ATOM
1    C         6.7331   -3.5226   10.4476  C     
2    C         8.1464   -3.5821   10.4429  C     
3    C         8.8684   -4.3731   11.3999  C     
4    C         8.0572   -5.1613   12.2721  C     
5    C         6.6544   -5.0898   12.2831  C     
6    C         5.9908   -4.2497   11.3833  C     
7    N        10.2580   -4.3968   11.5193  N     
8    C        11.0250   -3.1862   11.8304  C     
9    C        12.5083   -3.3107   12.2959  C     
10   N        13.0435   -4.6992   12.3746  N     
11   C        12.5365   -5.5286   11.2497  C     
12   C        10.9921   -5.6427   11.3011  C     
13   N         8.7679   -2.9503    9.4054  N     
14   C         8.7327   -1.6463    9.1588  C     
15   C         9.7233   -1.0601    8.3756  C     
16   O         8.0421   -0.9347    9.8762  O     
17   C         9.8205    0.2919    8.0295  C     
18   S        11.3502    0.5176    7.2746  S     
19   C        11.8418   -1.1245    7.3990  C     
20   N        10.8247   -1.7695    8.0121  N     
21   C        13.1250   -1.6910    7.1672  C     
22   C        13.4089   -3.0040    7.6365  C     
23   C        14.7059   -3.5461    7.5716  C     
24   C        14.1818   -0.9511    6.5718  C     
25   C        15.4752   -1.5058    6.5081  C     
26   C        15.7385   -2.7770    7.0120  C     
27   O        17.0209   -3.1849    6.8510  O     
28   C        17.7197   -2.0115    6.3919  C     
29   C        16.6863   -0.9645    5.9164  C     
30   C        12.8526   -5.3166   13.7146  C     
31   H         6.2277   -2.9821    9.7428  H     
32   H         8.4668   -5.7951   12.9559  H     
33   H         6.1193   -5.6563   12.9459  H     
34   H         4.9700   -4.1977   11.3796  H     
35   H        11.0841   -2.6431   10.8916  H     
36   H        10.5015   -2.5482   12.5684  H     
37   H        13.1586   -2.7714   11.5967  H     
38   H        12.6351   -2.7865   13.2453  H     
39   H        14.0568   -4.6241   12.2338  H     
40   H        12.8279   -5.0707   10.2983  H     
41   H        12.9886   -6.5243   11.2708  H     
42   H        10.7541   -6.3529   12.0997  H     
43   H        10.6718   -6.0918   10.3570  H     
44   H         9.4699   -3.4443    8.9633  H     
45   H         9.1373    1.0292    8.2230  H     
46   H        12.6788   -3.5806    8.0624  H     
47   H        14.8934   -4.4934    7.9192  H     
48   H        14.0264   -0.0140    6.1971  H     
49   H        18.3082   -1.6067    7.2238  H     
50   H        18.4021   -2.2832    5.5851  H     
51   H        16.5961   -0.9568    4.8270  H     
52   H        16.9152    0.0384    6.2891  H     
53   H        13.3419   -4.7026   14.4676  H     
54   H        13.2943   -6.3143   13.7489  H     
55   H        11.7970   -5.3972   13.9835  H     
@<TRIPOS>BOND
     1    1    2 2
     2    1    6 1
     3    2    3 1
     4    2   13 1
     5    3    4 2
     6    3    7 1
     7    4    5 1
     8    5    6 2
     9    7    8 1
    10    7   12 1
    11    8    9 1
    12    9   10 1
    13   10   11 1
    14   10   30 1
    15   11   12 1
    16   13   14 am
    17   14   15 1
    18   14   16 2
    19   15   17 2
    20   15   20 1
    21   17   18 1
    22   18   19 1
    23   19   20 2
    24   19   21 1
    25   21   22 2
    26   21   24 1
    27   22   23 1
    28   23   26 2
    29   24   25 2
    30   25   26 1
    31   25   29 1
    32   26   27 1
    33   27   28 1
    34   28   29 1
    35    1   31 1
    36    4   32 1
    37    5   33 1
    38    6   34 1
    39    8   35 1
    40    8   36 1
    41    9   37 1
    42    9   38 1
    43   10   39 1
    44   11   40 1
    45   11   41 1
    46   12   42 1
    47   12   43 1
    48   13   44 1
    49   17   45 1
    50   22   46 1
    51   23   47 1
    52   24   48 1
    53   28   49 1
    54   28   50 1
    55   29   51 1
    56   29   52 1
    57   30   53 1
    58   30   54 1
    59   30   55 1
@<TRIPOS>PROPERTY_DATA
  Total_Score	| 8.9356
  Crash		| -0.9217
  Polar		| 2.2278
  FragIndex	| 1
  FragRMSD	| 1.338

