@<TRIPOS>MOLECULE
BindingDB_18321
 89 89 0 0 0
SMALL
NO_CHARGES


@<TRIPOS>ATOM
1    C        10.8390   47.8979   72.3493  C     
2    C        12.0243   48.1384   73.0789  C     
3    C        12.1488   49.3308   73.8300  C     
4    C        11.0801   50.2476   73.8629  C     
5    C         9.9201   50.0086   73.1071  C     
6    C         9.7904   48.8407   72.3208  C     
7    C        14.4311   49.8645   73.9074  C     
8    O        13.0017   47.1760   73.1224  O     
9    C        13.5758   46.8527   71.8365  C     
10   C         8.5680   48.5462   71.5289  C     
11   C         8.8223   48.4104   69.9797  C     
12   C         7.7489   47.4378   69.3222  C     
13   C         8.2470   45.9510   69.0917  C     
14   C         8.0291   44.9454   70.2624  C     
15   C         6.5667   44.6918   70.7360  C     
16   C         5.5235   44.0225   69.7708  C     
17   C         4.6598   45.0061   69.1130  C     
18   C         8.9636   49.7989   69.2150  C     
19   C         8.3333   51.0118   69.9602  C     
20   C        10.4228   50.1416   68.7807  C     
21   N         7.6563   45.3944   67.8588  N     
22   O         8.7773   45.3969   71.3888  O     
23   O         4.1991   45.9422   69.7598  O     
24   N         4.2940   44.8318   67.8340  N     
25   C         3.5250   45.6584   66.9651  C     
26   O        13.2381   49.5290   74.6419  O     
27   C        14.3778   45.5451   71.9757  C     
28   C        15.0792   45.1216   70.6584  C     
29   O        15.9397   43.9728   70.8025  O     
30   C        15.3007   42.6974   70.9779  C     
31   C         2.5525   46.6904   67.6137  C     
32   C         1.4319   46.0455   68.4687  C     
33   C         4.3807   43.1182   71.9783  C     
34   C         4.6752   42.8915   70.4665  C     
35   C         3.3472   42.5605   69.7267  C     
36   C         0.6473   47.0697   69.3237  C     
37   H        10.7596   47.0192   71.8338  H     
38   H        11.1606   51.0960   74.4313  H     
39   H         9.1776   50.7057   73.1286  H     
40   H        14.7783   49.0136   73.3167  H     
41   H        15.2172   50.1008   74.6239  H     
42   H        14.2854   50.7305   73.2481  H     
43   H        12.8183   46.7060   71.0616  H     
44   H        14.2382   47.6564   71.5177  H     
45   H         8.1376   47.6300   71.9329  H     
46   H         7.7989   49.2940   71.7057  H     
47   H         9.7912   47.9051   69.8703  H     
48   H         6.8125   47.4315   69.8959  H     
49   H         7.4580   47.8226   68.3334  H     
50   H         9.3191   45.9604   68.8687  H     
51   H         8.4635   43.9919   69.9850  H     
52   H         6.6684   44.0241   71.6062  H     
53   H         6.1915   45.6412   71.1318  H     
54   H         6.1078   43.5230   69.0029  H     
55   H         8.4148   49.7243   68.2630  H     
56   H         7.3536   50.7519   70.3653  H     
57   H         8.2177   51.8530   69.2727  H     
58   H         8.9822   51.3444   70.7735  H     
59   H        11.0859   50.2219   69.6452  H     
60   H        10.4331   51.0894   68.2437  H     
61   H        10.8063   49.3614   68.1100  H     
62   H         6.6401   45.5065   67.8638  H     
63   H         7.9064   44.4023   67.7673  H     
64   H         8.0435   45.8858   67.0523  H     
65   H         9.7174   45.2436   71.1765  H     
66   H         4.6925   44.0638   67.3858  H     
67   H         4.2193   46.2088   66.3353  H     
68   H         2.9384   45.0063   66.3172  H     
69   H        15.1337   45.6789   72.7529  H     
70   H        13.6964   44.7477   72.2865  H     
71   H        14.3415   44.9461   69.8715  H     
72   H        15.7130   45.9430   70.3226  H     
73   H        14.8699   42.6142   71.9754  H     
74   H        16.0492   41.9154   70.8617  H     
75   H        14.5225   42.5311   70.2340  H     
76   H         3.1544   47.3772   68.2319  H     
77   H         2.0774   47.2985   66.8314  H     
78   H         0.7308   45.5307   67.8044  H     
79   H         1.8405   45.2888   69.1531  H     
80   H         5.2969   43.3912   72.5139  H     
81   H         4.0088   42.1878   72.4270  H     
82   H         3.6372   43.9124   72.1143  H     
83   H         5.2874   41.9903   70.4023  H     
84   H         2.6158   43.3572   69.8595  H     
85   H         2.9178   41.6368   70.1230  H     
86   H         3.5329   42.4387   68.6621  H     
87   H         1.3080   47.4881   70.0944  H     
88   H        -0.1966   46.5812   69.8220  H     
89   H         0.2691   47.8962   68.7036  H     
@<TRIPOS>BOND
     1    1    2 2
     2    1    6 1
     3    2    3 1
     4    2    8 1
     5    3    4 2
     6    3   26 1
     7    4    5 1
     8    5    6 2
     9    6   10 1
    10    7   26 1
    11    8    9 1
    12    9   27 1
    13   10   11 1
    14   11   12 1
    15   11   18 1
    16   12   13 1
    17   13   14 1
    18   13   21 1
    19   14   15 1
    20   14   22 1
    21   15   16 1
    22   16   17 1
    23   16   34 1
    24   17   23 2
    25   17   24 am
    26   18   19 1
    27   18   20 1
    28   24   25 1
    29   25   31 1
    30   27   28 1
    31   28   29 1
    32   29   30 1
    33   31   32 1
    34   32   36 1
    35   33   34 1
    36   34   35 1
    37    1   37 1
    38    4   38 1
    39    5   39 1
    40    7   40 1
    41    7   41 1
    42    7   42 1
    43    9   43 1
    44    9   44 1
    45   10   45 1
    46   10   46 1
    47   11   47 1
    48   12   48 1
    49   12   49 1
    50   13   50 1
    51   14   51 1
    52   15   52 1
    53   15   53 1
    54   16   54 1
    55   18   55 1
    56   19   56 1
    57   19   57 1
    58   19   58 1
    59   20   59 1
    60   20   60 1
    61   20   61 1
    62   21   62 1
    63   21   63 1
    64   21   64 1
    65   22   65 1
    66   24   66 1
    67   25   67 1
    68   25   68 1
    69   27   69 1
    70   27   70 1
    71   28   71 1
    72   28   72 1
    73   30   73 1
    74   30   74 1
    75   30   75 1
    76   31   76 1
    77   31   77 1
    78   32   78 1
    79   32   79 1
    80   33   80 1
    81   33   81 1
    82   33   82 1
    83   34   83 1
    84   35   84 1
    85   35   85 1
    86   35   86 1
    87   36   87 1
    88   36   88 1
    89   36   89 1
@<TRIPOS>PROPERTY_DATA
  Total_Score	| 11.1103
  Crash		| -4.2551
  Polar		| 5.2171
  FragIndex	| 1
  FragRMSD	| 1.121

