@<TRIPOS>MOLECULE
BindingDB_18282
 86 86 0 0 0
SMALL
NO_CHARGES


@<TRIPOS>ATOM
1    C        11.9689   48.5104   72.5228  C     
2    C        13.2056   48.8875   73.0899  C     
3    C        13.3754   50.2058   73.5702  C     
4    C        12.3015   51.1260   73.4997  C     
5    C        11.0672   50.7270   72.9623  C     
6    C        10.8759   49.4209   72.4460  C     
7    C        14.8241   50.4069   75.4319  C     
8    O        14.3394   48.0916   73.1865  O     
9    C        14.3317   46.6929   72.8475  C     
10   C         9.5850   49.0308   71.8032  C     
11   C         9.6574   48.8466   70.2466  C     
12   C         8.3533   48.1684   69.6834  C     
13   C         8.3345   46.6033   69.5629  C     
14   C         6.9654   46.1029   68.9890  C     
15   C         6.7548   44.5463   68.9895  C     
16   C         5.3264   44.0250   69.3698  C     
17   C         4.2226   44.9012   68.9523  C     
18   C        10.0456   50.1920   69.5022  C     
19   C        11.0780   49.9379   68.3669  C     
20   C         8.8472   51.0339   68.9511  C     
21   N         9.4654   46.1415   68.7376  N     
22   O         6.7831   46.5828   67.6483  O     
23   C         5.2634   43.6249   70.8804  C     
24   O         3.8820   45.8314   69.6810  O     
25   N         3.5562   44.6689   67.8170  N     
26   C         2.3101   45.2597   67.4125  C     
27   C         2.4099   46.1090   66.1136  C     
28   C         3.1555   47.4503   66.3197  C     
29   C         2.8351   48.5005   65.2326  C     
30   C        14.7366   46.5029   71.3540  C     
31   O        14.5869   50.6461   74.0319  O     
32   C        14.5309   45.0803   70.7774  C     
33   O        15.7924   44.4139   70.5367  O     
34   C        15.7029   43.0888   69.9738  C     
35   C        14.6563   42.1685   70.6482  C     
36   H        11.8503   47.5580   72.1607  H     
37   H        12.4243   52.0851   73.8377  H     
38   H        10.3113   51.4153   72.8972  H     
39   H        14.0650   50.8998   76.0472  H     
40   H        15.7918   50.8363   75.6788  H     
41   H        14.8520   49.3380   75.6770  H     
42   H        15.0903   46.2000   73.4671  H     
43   H        13.3760   46.2230   73.0926  H     
44   H         9.2524   48.0993   72.2712  H     
45   H         8.8111   49.7756   72.0242  H     
46   H        10.4775   48.1339   70.0741  H     
47   H         7.5092   48.4882   70.3163  H     
48   H         8.1464   48.5761   68.6921  H     
49   H         8.4440   46.1940   70.5630  H     
50   H         6.1709   46.5612   69.5931  H     
51   H         6.9997   44.1585   67.9986  H     
52   H         7.4717   44.0841   69.6719  H     
53   H         5.1897   43.0768   68.8371  H     
54   H        10.5582   50.8565   70.2097  H     
55   H        11.9844   49.4768   68.7807  H     
56   H        11.3613   50.8858   67.8843  H     
57   H        10.6425   49.2698   67.6157  H     
58   H         8.3701   50.5212   68.1070  H     
59   H         9.2171   52.0032   68.5966  H     
60   H         8.0946   51.2125   69.7346  H     
61   H         9.5185   46.7232   67.8866  H     
62   H         9.3201   45.1612   68.4801  H     
63   H        10.3326   46.2256   69.2743  H     
64   H         7.4066   46.0687   67.0985  H     
65   H         5.9433   42.7902   71.0729  H     
66   H         4.2503   43.3094   71.1558  H     
67   H         5.5592   44.4652   71.5153  H     
68   H         3.9012   43.9614   67.2430  H     
69   H         1.5995   44.4431   67.2451  H     
70   H         1.8825   45.8944   68.1961  H     
71   H         2.9083   45.5237   65.3368  H     
72   H         1.3887   46.3118   65.7790  H     
73   H         2.8898   47.8819   67.2881  H     
74   H         4.2309   47.2612   66.3127  H     
75   H         3.0418   48.1011   64.2371  H     
76   H         3.4475   49.3899   65.3871  H     
77   H         1.7835   48.7941   65.2849  H     
78   H        14.1443   47.2089   70.7679  H     
79   H        15.7870   46.8089   71.2432  H     
80   H        13.9423   44.4704   71.4640  H     
81   H        13.9701   45.1641   69.8419  H     
82   H        15.5044   43.1517   68.8977  H     
83   H        16.6810   42.6182   70.0958  H     
84   H        14.7285   42.2581   71.7339  H     
85   H        14.8346   41.1350   70.3631  H     
86   H        13.6531   42.4444   70.3293  H     
@<TRIPOS>BOND
     1    1    2 2
     2    1    6 1
     3    2    3 1
     4    2    8 1
     5    3    4 2
     6    3   31 1
     7    4    5 1
     8    5    6 2
     9    6   10 1
    10    7   31 1
    11    8    9 1
    12    9   30 1
    13   10   11 1
    14   11   12 1
    15   11   18 1
    16   12   13 1
    17   13   14 1
    18   13   21 1
    19   14   15 1
    20   14   22 1
    21   15   16 1
    22   16   17 1
    23   16   23 1
    24   17   24 2
    25   17   25 am
    26   18   19 1
    27   18   20 1
    28   25   26 1
    29   26   27 1
    30   27   28 1
    31   28   29 1
    32   30   32 1
    33   32   33 1
    34   33   34 1
    35   34   35 1
    36    1   36 1
    37    4   37 1
    38    5   38 1
    39    7   39 1
    40    7   40 1
    41    7   41 1
    42    9   42 1
    43    9   43 1
    44   10   44 1
    45   10   45 1
    46   11   46 1
    47   12   47 1
    48   12   48 1
    49   13   49 1
    50   14   50 1
    51   15   51 1
    52   15   52 1
    53   16   53 1
    54   18   54 1
    55   19   55 1
    56   19   56 1
    57   19   57 1
    58   20   58 1
    59   20   59 1
    60   20   60 1
    61   21   61 1
    62   21   62 1
    63   21   63 1
    64   22   64 1
    65   23   65 1
    66   23   66 1
    67   23   67 1
    68   25   68 1
    69   26   69 1
    70   26   70 1
    71   27   71 1
    72   27   72 1
    73   28   73 1
    74   28   74 1
    75   29   75 1
    76   29   76 1
    77   29   77 1
    78   30   78 1
    79   30   79 1
    80   32   80 1
    81   32   81 1
    82   34   82 1
    83   34   83 1
    84   35   84 1
    85   35   85 1
    86   35   86 1
@<TRIPOS>PROPERTY_DATA
  Total_Score	| 10.5992
  Crash		| -3.0238
  Polar		| 3.6281
  FragIndex	| 1
  FragRMSD	| 0.683

