@<TRIPOS>MOLECULE
BindingDB_18311
 87 87 0 0 0
SMALL
NO_CHARGES


@<TRIPOS>ATOM
1    C        11.5140   48.5516   72.5006  C     
2    C        12.8559   48.7704   72.8750  C     
3    C        13.2576   50.0759   73.2460  C     
4    C        12.3471   51.1496   73.1065  C     
5    C        11.0381   50.9307   72.6307  C     
6    C        10.6030   49.6186   72.3155  C     
7    C        14.5814   50.8552   75.0150  C     
8    O        13.7504   47.7224   72.9209  O     
9    C        13.8433   46.9886   71.6714  C     
10   C         9.2404   49.3021   71.7890  C     
11   C         9.2369   48.6921   70.3194  C     
12   C         8.0712   47.6515   70.1234  C     
13   C         8.2219   46.6324   68.9336  C     
14   C         7.6077   45.2227   69.2013  C     
15   C         6.2923   45.2457   70.0557  C     
16   C         5.2437   44.1100   69.7782  C     
17   C         3.9347   44.6972   69.4552  C     
18   C         9.3044   49.7654   69.1545  C     
19   C         8.7969   51.2045   69.4985  C     
20   C        10.7091   49.8503   68.4602  C     
21   N         7.6358   47.1467   67.6783  N     
22   O         8.5903   44.3964   69.8444  O     
23   C         5.0588   43.1167   70.9691  C     
24   O         3.7257   45.8691   69.8105  O     
25   N         3.1043   44.1099   68.5890  N     
26   C         1.9159   44.6842   68.0291  C     
27   O        14.5343   50.2959   73.6908  O     
28   C        14.6884   45.6950   71.8319  C     
29   C        15.0746   45.0596   70.4660  C     
30   O        16.0207   43.9804   70.6552  O     
31   C        15.6586   42.7753   69.9510  C     
32   C         2.1523   45.3421   66.6449  C     
33   C         3.1535   46.5403   66.6510  C     
34   C         2.8201   47.6996   65.6728  C     
35   C         2.1995   47.3248   64.4083  C     
36   O         1.3841   48.0799   63.8934  O     
37   N         2.4977   46.2138   63.7628  N     
38   H        11.2079   47.5878   72.3055  H     
39   H        12.6281   52.1091   73.3405  H     
40   H        10.3941   51.7228   72.5317  H     
41   H        14.2074   51.8813   75.0088  H     
42   H        15.6165   50.8745   75.3402  H     
43   H        14.0109   50.2569   75.7305  H     
44   H        12.8516   46.6812   71.3152  H     
45   H        14.3064   47.6156   70.9001  H     
46   H         8.8007   48.5778   72.4751  H     
47   H         8.5999   50.1858   71.8422  H     
48   H        10.1523   48.0876   70.2265  H     
49   H         8.0354   47.0822   71.0562  H     
50   H         7.1188   48.1952   70.0504  H     
51   H         9.2842   46.4812   68.7452  H     
52   H         7.3872   44.7648   68.2237  H     
53   H         6.5680   45.2139   71.1185  H     
54   H         5.8106   46.2246   69.8957  H     
55   H         5.5792   43.5237   68.9267  H     
56   H         8.6623   49.4369   68.3451  H     
57   H         7.8491   51.1353   70.0593  H     
58   H         8.6373   51.7945   68.5987  H     
59   H         9.5472   51.7085   70.1302  H     
60   H        11.4944   50.1181   69.1801  H     
61   H        10.7003   50.6039   67.6551  H     
62   H        10.9596   48.8726   68.0139  H     
63   H         6.6093   47.1864   67.7730  H     
64   H         7.8933   46.4907   66.9282  H     
65   H         8.0034   48.0800   67.4663  H     
66   H         8.3505   43.4792   69.5636  H     
67   H         6.0189   42.6750   71.2529  H     
68   H         4.3788   42.3064   70.6801  H     
69   H         4.6491   43.6251   71.8574  H     
70   H         3.3557   43.2216   68.2774  H     
71   H         1.1751   43.8862   67.9247  H     
72   H         1.4763   45.4430   68.6914  H     
73   H        15.5924   45.9383   72.4000  H     
74   H        14.1178   44.9509   72.4057  H     
75   H        14.1541   44.7062   69.9729  H     
76   H        15.5430   45.8128   69.8184  H     
77   H        14.7236   42.3509   70.3458  H     
78   H        16.4510   42.0349   70.0965  H     
79   H        15.5561   42.9671   68.8728  H     
80   H         2.5302   44.5669   65.9573  H     
81   H         1.1781   45.6744   66.2631  H     
82   H         3.2160   46.9611   67.6528  H     
83   H         4.1455   46.1359   66.4022  H     
84   H         2.1840   48.4071   66.2189  H     
85   H         3.7529   48.2139   65.4481  H     
86   H         2.0849   46.0366   62.9041  H     
87   H         3.0900   45.5519   64.1697  H     
@<TRIPOS>BOND
     1    1    2 2
     2    1    6 1
     3    2    3 1
     4    2    8 1
     5    3    4 2
     6    3   27 1
     7    4    5 1
     8    5    6 2
     9    6   10 1
    10    7   27 1
    11    8    9 1
    12    9   28 1
    13   10   11 1
    14   11   12 1
    15   11   18 1
    16   12   13 1
    17   13   14 1
    18   13   21 1
    19   14   15 1
    20   14   22 1
    21   15   16 1
    22   16   17 1
    23   16   23 1
    24   17   24 2
    25   17   25 am
    26   18   19 1
    27   18   20 1
    28   25   26 1
    29   26   32 1
    30   28   29 1
    31   29   30 1
    32   30   31 1
    33   32   33 1
    34   33   34 1
    35   34   35 1
    36   35   36 2
    37   35   37 am
    38    1   38 1
    39    4   39 1
    40    5   40 1
    41    7   41 1
    42    7   42 1
    43    7   43 1
    44    9   44 1
    45    9   45 1
    46   10   46 1
    47   10   47 1
    48   11   48 1
    49   12   49 1
    50   12   50 1
    51   13   51 1
    52   14   52 1
    53   15   53 1
    54   15   54 1
    55   16   55 1
    56   18   56 1
    57   19   57 1
    58   19   58 1
    59   19   59 1
    60   20   60 1
    61   20   61 1
    62   20   62 1
    63   21   63 1
    64   21   64 1
    65   21   65 1
    66   22   66 1
    67   23   67 1
    68   23   68 1
    69   23   69 1
    70   25   70 1
    71   26   71 1
    72   26   72 1
    73   28   73 1
    74   28   74 1
    75   29   75 1
    76   29   76 1
    77   31   77 1
    78   31   78 1
    79   31   79 1
    80   32   80 1
    81   32   81 1
    82   33   82 1
    83   33   83 1
    84   34   84 1
    85   34   85 1
    86   37   86 1
    87   37   87 1
@<TRIPOS>PROPERTY_DATA
  Total_Score	| 12.4261
  Crash		| -3.4756
  Polar		| 6.4476
  FragIndex	| 1
  FragRMSD	| 1.006

