@<TRIPOS>MOLECULE
BindingDB_18289
 84 84 0 0 0
SMALL
NO_CHARGES


@<TRIPOS>ATOM
1    C        11.5062   48.7595   72.2440  C     
2    C        12.8203   49.0435   72.6522  C     
3    C        13.1173   50.3679   73.0767  C     
4    C        12.1404   51.3718   72.9687  C     
5    C        10.8551   51.0925   72.4566  C     
6    C        10.5276   49.7599   72.1023  C     
7    C        14.2744   51.2571   74.9019  C     
8    O        13.8334   48.1033   72.6597  O     
9    C        13.8389   47.1784   71.5442  C     
10   C         9.1894   49.3652   71.6203  C     
11   C         9.1795   48.8128   70.1336  C     
12   C         7.9550   47.8533   69.8552  C     
13   C         8.2999   46.4308   69.2393  C     
14   C         7.8775   45.2130   70.1301  C     
15   C         6.3806   45.2479   70.5860  C     
16   C         5.4343   44.0831   70.0976  C     
17   C         4.1051   44.5342   69.7085  C     
18   C         9.3224   49.8944   68.9782  C     
19   C         8.8360   51.3205   69.3484  C     
20   C        10.7545   49.9771   68.3779  C     
21   N         7.7409   46.2802   67.8864  N     
22   O         8.7250   45.1530   71.2807  O     
23   C         5.3027   42.9534   71.1673  C     
24   O         3.7875   45.7194   69.9000  O     
25   N         3.3012   43.7592   68.9623  N     
26   C         2.0598   44.1394   68.3715  C     
27   C         2.2099   44.6743   66.9172  C     
28   C         3.0800   45.9532   66.7988  C     
29   O        14.3599   50.6795   73.5835  O     
30   C        15.0809   46.2441   71.5429  C     
31   C        14.7192   44.8517   70.9488  C     
32   O        15.8969   44.0185   70.7858  O     
33   C        15.6524   42.8536   69.9771  C     
34   C         2.6046   46.9333   65.6959  C     
35   O         2.4388   46.2987   64.4284  O     
36   H        11.2209   47.8032   72.0348  H     
37   H        12.3444   52.3436   73.2452  H     
38   H        10.1523   51.8266   72.3844  H     
39   H        13.8729   52.2736   74.8567  H     
40   H        15.2804   51.3134   75.3115  H     
41   H        13.6684   50.6468   75.5812  H     
42   H        12.9618   46.5228   71.6187  H     
43   H        13.7891   47.7222   70.5878  H     
44   H         8.8477   48.5769   72.3005  H     
45   H         8.4600   50.1687   71.7550  H     
46   H        10.0601   48.1804   70.0503  H     
47   H         7.4040   47.7068   70.7907  H     
48   H         7.2209   48.3742   69.2143  H     
49   H         9.3763   46.3406   69.0936  H     
50   H         8.0745   44.3038   69.5554  H     
51   H         6.3409   45.2921   71.6811  H     
52   H         5.9345   46.1863   70.2472  H     
53   H         5.9006   43.6304   69.2131  H     
54   H         8.7092   49.5809   68.1258  H     
55   H         7.8447   51.2809   69.7901  H     
56   H         8.7922   51.9733   68.4649  H     
57   H         9.5243   51.7773   70.0587  H     
58   H        11.4903   50.2700   69.1357  H     
59   H        10.7899   50.7169   67.5582  H     
60   H        11.0444   49.0021   67.9586  H     
61   H         6.7181   46.1997   67.9245  H     
62   H         8.1430   45.4376   67.4550  H     
63   H         7.9938   47.0988   67.3202  H     
64   H         9.6368   45.0383   70.9333  H     
65   H         6.2862   42.6431   71.5283  H     
66   H         4.8037   42.0760   70.7387  H     
67   H         4.7200   43.2952   72.0298  H     
68   H         3.6310   42.8572   68.7793  H     
69   H         1.4259   43.2486   68.3523  H     
70   H         1.5302   44.8951   68.9601  H     
71   H         2.6451   43.8781   66.3026  H     
72   H         1.2030   44.8729   66.5426  H     
73   H         3.0659   46.5028   67.7418  H     
74   H         4.1118   45.6540   66.5825  H     
75   H        15.8638   46.7211   70.9445  H     
76   H        15.4128   46.1207   72.5806  H     
77   H        14.0201   44.3617   71.6537  H     
78   H        14.2109   44.9837   69.9750  H     
79   H        14.8438   42.2397   70.3818  H     
80   H        16.5552   42.2492   69.9594  H     
81   H        15.4139   43.1407   68.9520  H     
82   H         1.6513   47.3777   65.9868  H     
83   H         3.3435   47.7343   65.5989  H     
84   H         3.0748   45.5498   64.4296  H     
@<TRIPOS>BOND
     1    1    2 2
     2    1    6 1
     3    2    3 1
     4    2    8 1
     5    3    4 2
     6    3   29 1
     7    4    5 1
     8    5    6 2
     9    6   10 1
    10    7   29 1
    11    8    9 1
    12    9   30 1
    13   10   11 1
    14   11   12 1
    15   11   18 1
    16   12   13 1
    17   13   14 1
    18   13   21 1
    19   14   15 1
    20   14   22 1
    21   15   16 1
    22   16   17 1
    23   16   23 1
    24   17   24 2
    25   17   25 am
    26   18   19 1
    27   18   20 1
    28   25   26 1
    29   26   27 1
    30   27   28 1
    31   28   34 1
    32   30   31 1
    33   31   32 1
    34   32   33 1
    35   34   35 1
    36    1   36 1
    37    4   37 1
    38    5   38 1
    39    7   39 1
    40    7   40 1
    41    7   41 1
    42    9   42 1
    43    9   43 1
    44   10   44 1
    45   10   45 1
    46   11   46 1
    47   12   47 1
    48   12   48 1
    49   13   49 1
    50   14   50 1
    51   15   51 1
    52   15   52 1
    53   16   53 1
    54   18   54 1
    55   19   55 1
    56   19   56 1
    57   19   57 1
    58   20   58 1
    59   20   59 1
    60   20   60 1
    61   21   61 1
    62   21   62 1
    63   21   63 1
    64   22   64 1
    65   23   65 1
    66   23   66 1
    67   23   67 1
    68   25   68 1
    69   26   69 1
    70   26   70 1
    71   27   71 1
    72   27   72 1
    73   28   73 1
    74   28   74 1
    75   30   75 1
    76   30   76 1
    77   31   77 1
    78   31   78 1
    79   33   79 1
    80   33   80 1
    81   33   81 1
    82   34   82 1
    83   34   83 1
    84   35   84 1
@<TRIPOS>PROPERTY_DATA
  Total_Score	| 12.1983
  Crash		| -3.1477
  Polar		| 5.1127
  FragIndex	| 1
  FragRMSD	| 0.761

