@<TRIPOS>MOLECULE
BindingDB_50348999
 95 95 0 0 0
SMALL
NO_CHARGES


@<TRIPOS>ATOM
1    C        12.8279   48.7395   72.9535  C     
2    C        13.3515   50.0003   73.3468  C     
3    C        12.5793   51.1658   73.1346  C     
4    C        11.3329   51.0753   72.4796  C     
5    C        10.8114   49.8171   72.0905  C     
6    C        11.5243   48.6470   72.4299  C     
7    O        13.6157   47.6180   73.0355  O     
8    C        13.6857   46.9218   71.7664  C     
9    C        14.6399   45.7140   71.8730  C     
10   C        15.0417   45.1766   70.4708  C     
11   O        16.0120   44.1114   70.5897  O     
12   C        15.6742   42.8771   69.9350  C     
13   O        14.6403   50.0944   73.8356  O     
14   C        14.7415   50.7415   75.1157  C     
15   C         9.5778   49.6831   71.2658  C     
16   C         9.7050   48.7316   70.0129  C     
17   C         8.2676   48.2669   69.5173  C     
18   C         8.1714   46.7391   69.2014  C     
19   C         6.7323   46.2787   68.7736  C     
20   C         6.4177   44.8238   69.2448  C     
21   C         5.0474   44.1876   68.8266  C     
22   C         3.9577   45.1567   68.6638  C     
23   N         3.1824   45.1105   67.5766  N     
24   C         1.8794   45.7111   67.4788  C     
25   C         1.0353   45.3109   66.2087  C     
26   C         1.3808   46.2182   64.9766  C     
27   C        10.6018   49.2191   68.8143  C     
28   C        10.6869   50.7636   68.6492  C     
29   C        12.0323   48.5923   68.7980  C     
30   N         9.1686   46.3473   68.1840  N     
31   O         6.5052   46.4776   67.3685  O     
32   C         4.6293   42.9803   69.7648  C     
33   C         4.9229   43.1539   71.2850  C     
34   C         3.1278   42.5777   69.5881  C     
35   O         3.6613   45.8818   69.6033  O     
36   C         1.2393   43.7930   65.8747  C     
37   C        -0.4839   45.5245   66.5585  C     
38   N         2.2668   45.6151   63.9648  N     
39   H        12.9306   52.0953   73.4100  H     
40   H        10.8044   51.9397   72.2743  H     
41   H        11.1467   47.7252   72.2025  H     
42   H        12.6999   46.5404   71.4655  H     
43   H        14.0550   47.5958   70.9847  H     
44   H        15.5453   46.0159   72.4108  H     
45   H        14.1497   44.9116   72.4425  H     
46   H        14.1382   44.8882   69.9064  H     
47   H        15.5354   45.9808   69.9135  H     
48   H        14.7352   42.4643   70.3208  H     
49   H        16.4758   42.1627   70.1201  H     
50   H        15.5966   43.0310   68.8537  H     
51   H        14.4753   51.8027   75.0356  H     
52   H        15.7808   50.6697   75.4395  H     
53   H        14.1125   50.2534   75.8723  H     
54   H         8.8112   49.2759   71.9442  H     
55   H         9.2290   50.6667   70.9285  H     
56   H        10.2149   47.8553   70.3990  H     
57   H         7.5158   48.4791   70.2901  H     
58   H         7.9283   48.8278   68.6297  H     
59   H         8.4454   46.2175   70.1238  H     
60   H         6.0121   46.9228   69.2766  H     
61   H         7.2147   44.1577   68.8999  H     
62   H         6.4643   44.8490   70.3320  H     
63   H         5.2334   43.7407   67.8403  H     
64   H         3.4557   44.5270   66.8480  H     
65   H         1.3219   45.4036   68.3742  H     
66   H         1.9888   46.8018   67.5115  H     
67   H         0.4707   46.4927   64.4326  H     
68   H         1.8480   47.1498   65.3110  H     
69   H        10.1625   48.8487   67.8732  H     
70   H         9.6878   51.2158   68.7224  H     
71   H        11.1212   51.0407   67.6834  H     
72   H        11.3129   51.1902   69.4369  H     
73   H        12.5589   48.8196   69.7198  H     
74   H        12.6181   48.9662   67.9570  H     
75   H        11.9636   47.5070   68.7024  H     
76   H         9.0568   46.9292   67.3458  H     
77   H         9.0467   45.3632   67.9245  H     
78   H        10.1191   46.4690   68.5468  H     
79   H         7.1880   45.9722   66.8813  H     
80   H         5.2105   42.1081   69.4400  H     
81   H         5.9947   43.2255   71.4695  H     
82   H         4.5473   42.2951   71.8491  H     
83   H         4.4417   44.0495   71.6730  H     
84   H         2.4623   43.3579   69.9622  H     
85   H         2.9045   41.6628   70.1429  H     
86   H         2.9030   42.4023   68.5330  H     
87   H         2.2878   43.5727   65.6587  H     
88   H         0.6526   43.5180   64.9963  H     
89   H         0.9365   43.1618   66.7100  H     
90   H        -0.7829   44.9171   67.4152  H     
91   H        -1.1229   45.2432   65.7173  H     
92   H        -0.6856   46.5707   66.7989  H     
93   H         3.1066   45.2471   64.4125  H     
94   H         2.5252   46.3299   63.2851  H     
95   H         1.7759   44.8554   63.4825  H     
@<TRIPOS>BOND
     1    1    2 2
     2    1    6 1
     3    1    7 1
     4    2    3 1
     5    2   13 1
     6    3    4 2
     7    4    5 1
     8    5    6 2
     9    5   15 1
    10    7    8 1
    11    8    9 1
    12    9   10 1
    13   10   11 1
    14   11   12 1
    15   13   14 1
    16   15   16 1
    17   16   17 1
    18   16   27 1
    19   17   18 1
    20   18   19 1
    21   18   30 1
    22   19   20 1
    23   19   31 1
    24   20   21 1
    25   21   22 1
    26   21   32 1
    27   22   23 am
    28   22   35 2
    29   23   24 1
    30   24   25 1
    31   25   26 1
    32   25   36 1
    33   25   37 1
    34   26   38 1
    35   27   28 1
    36   27   29 1
    37   32   33 1
    38   32   34 1
    39    3   39 1
    40    4   40 1
    41    6   41 1
    42    8   42 1
    43    8   43 1
    44    9   44 1
    45    9   45 1
    46   10   46 1
    47   10   47 1
    48   12   48 1
    49   12   49 1
    50   12   50 1
    51   14   51 1
    52   14   52 1
    53   14   53 1
    54   15   54 1
    55   15   55 1
    56   16   56 1
    57   17   57 1
    58   17   58 1
    59   18   59 1
    60   19   60 1
    61   20   61 1
    62   20   62 1
    63   21   63 1
    64   23   64 1
    65   24   65 1
    66   24   66 1
    67   26   67 1
    68   26   68 1
    69   27   69 1
    70   28   70 1
    71   28   71 1
    72   28   72 1
    73   29   73 1
    74   29   74 1
    75   29   75 1
    76   30   76 1
    77   30   77 1
    78   30   78 1
    79   31   79 1
    80   32   80 1
    81   33   81 1
    82   33   82 1
    83   33   83 1
    84   34   84 1
    85   34   85 1
    86   34   86 1
    87   36   87 1
    88   36   88 1
    89   36   89 1
    90   37   90 1
    91   37   91 1
    92   37   92 1
    93   38   93 1
    94   38   94 1
    95   38   95 1
@<TRIPOS>PROPERTY_DATA
  Total_Score	| 13.9531
  Crash		| -3.3133
  Polar		| 6.5360
  FragIndex	| 1
  FragRMSD	| 0.718

