@<TRIPOS>MOLECULE
BindingDB_18283
 80 80 0 0 0
SMALL
NO_CHARGES


@<TRIPOS>ATOM
1    C        11.6856   48.3703   72.6283  C     
2    C        12.9980   48.5685   73.0912  C     
3    C        13.3784   49.8376   73.5989  C     
4    C        12.4497   50.9040   73.5352  C     
5    C        11.1617   50.7060   73.0225  C     
6    C        10.7632   49.4327   72.5437  C     
7    C        14.9531   50.5087   75.3299  C     
8    O        13.8904   47.5281   73.0521  O     
9    C        14.0547   46.8898   71.7598  C     
10   C         9.4480   49.2274   71.8783  C     
11   C         9.6399   48.7929   70.3777  C     
12   C         8.4933   47.8765   69.8289  C     
13   C         8.1171   46.5927   70.6385  C     
14   C         7.5065   45.4723   69.7220  C     
15   C         6.5266   44.5145   70.4849  C     
16   C         5.3722   43.9057   69.6192  C     
17   C         4.4916   44.9547   69.0970  C     
18   C         9.9637   50.0415   69.4719  C     
19   C        11.0190   49.7332   68.3680  C     
20   C         8.7208   50.7489   68.8453  C     
21   N         9.2427   46.0208   71.4116  N     
22   O         8.5876   44.7314   69.1463  O     
23   C         4.5649   42.8473   70.4216  C     
24   O         4.0479   45.8075   69.8608  O     
25   N         4.2823   45.0440   67.7918  N     
26   C         3.7576   46.1678   67.0792  C     
27   C         2.5069   45.8079   66.2320  C     
28   C         2.2766   46.7194   64.9918  C     
29   C         2.7222   48.2004   65.1427  C     
30   C        14.0170   45.3504   71.9209  C     
31   O        14.6813   49.9661   74.0104  O     
32   C        14.5069   44.6128   70.6459  C     
33   O        14.2314   43.2153   70.7361  O     
34   H        11.4338   47.4433   72.2751  H     
35   H        12.7188   51.8399   73.8649  H     
36   H        10.5121   51.4979   72.9688  H     
37   H        14.9174   51.6051   75.2801  H     
38   H        15.9320   50.1828   75.6368  H     
39   H        14.2232   50.1572   76.0744  H     
40   H        13.3132   47.1864   71.0123  H     
41   H        15.0316   47.1710   71.3722  H     
42   H         8.9092   48.4713   72.4468  H     
43   H         8.8378   50.1294   71.9241  H     
44   H        10.5208   48.1474   70.3338  H     
45   H         7.5739   48.4698   69.7398  H     
46   H         8.7696   47.5721   68.8063  H     
47   H         7.3516   46.8866   71.3686  H     
48   H         6.9671   45.9600   68.9052  H     
49   H         7.1166   43.6999   70.9167  H     
50   H         6.0679   45.0453   71.3226  H     
51   H         5.8444   43.3695   68.7873  H     
52   H        10.4464   50.7967   70.0949  H     
53   H        11.9528   49.3819   68.8225  H     
54   H        11.2455   50.6384   67.7927  H     
55   H        10.6504   48.9661   67.6839  H     
56   H         8.2954   50.1470   68.0367  H     
57   H         9.0011   51.7200   68.4396  H     
58   H         7.9453   50.9106   69.5970  H     
59   H        10.0615   45.9023   70.8008  H     
60   H         8.9725   45.1133   71.8024  H     
61   H         9.4766   46.6595   72.1751  H     
62   H         8.2815   43.8150   68.9841  H     
63   H         5.2263   42.0357   70.7429  H     
64   H         3.7802   42.4141   69.7935  H     
65   H         4.1018   43.2889   71.3081  H     
66   H         4.6229   44.3175   67.2431  H     
67   H         3.5130   47.0087   67.7358  H     
68   H         4.5772   46.4918   66.4342  H     
69   H         2.5869   44.7746   65.8697  H     
70   H         1.6220   45.8506   66.8812  H     
71   H         2.8004   46.2800   64.1363  H     
72   H         1.2057   46.7108   64.7581  H     
73   H         2.1980   48.6704   65.9851  H     
74   H         2.4687   48.7406   64.2209  H     
75   H         3.8059   48.2722   65.3007  H     
76   H        14.6503   45.0561   72.7623  H     
77   H        12.9952   45.0246   72.1382  H     
78   H        13.9938   45.0091   69.7651  H     
79   H        15.5853   44.7486   70.5161  H     
80   H        14.1714   42.8950   69.8089  H     
@<TRIPOS>BOND
     1    1    2 2
     2    1    6 1
     3    2    3 1
     4    2    8 1
     5    3    4 2
     6    3   31 1
     7    4    5 1
     8    5    6 2
     9    6   10 1
    10    7   31 1
    11    8    9 1
    12    9   30 1
    13   10   11 1
    14   11   12 1
    15   11   18 1
    16   12   13 1
    17   13   14 1
    18   13   21 1
    19   14   15 1
    20   14   22 1
    21   15   16 1
    22   16   17 1
    23   16   23 1
    24   17   24 2
    25   17   25 am
    26   18   19 1
    27   18   20 1
    28   25   26 1
    29   26   27 1
    30   27   28 1
    31   28   29 1
    32   30   32 1
    33   32   33 1
    34    1   34 1
    35    4   35 1
    36    5   36 1
    37    7   37 1
    38    7   38 1
    39    7   39 1
    40    9   40 1
    41    9   41 1
    42   10   42 1
    43   10   43 1
    44   11   44 1
    45   12   45 1
    46   12   46 1
    47   13   47 1
    48   14   48 1
    49   15   49 1
    50   15   50 1
    51   16   51 1
    52   18   52 1
    53   19   53 1
    54   19   54 1
    55   19   55 1
    56   20   56 1
    57   20   57 1
    58   20   58 1
    59   21   59 1
    60   21   60 1
    61   21   61 1
    62   22   62 1
    63   23   63 1
    64   23   64 1
    65   23   65 1
    66   25   66 1
    67   26   67 1
    68   26   68 1
    69   27   69 1
    70   27   70 1
    71   28   71 1
    72   28   72 1
    73   29   73 1
    74   29   74 1
    75   29   75 1
    76   30   76 1
    77   30   77 1
    78   32   78 1
    79   32   79 1
    80   33   80 1
@<TRIPOS>PROPERTY_DATA
  Total_Score	| 9.5583
  Crash		| -2.3144
  Polar		| 4.4633
  FragIndex	| 1
  FragRMSD	| 0.819

