@<TRIPOS>MOLECULE
BindingDB_18281
 83 83 0 0 0
SMALL
NO_CHARGES


@<TRIPOS>ATOM
1    C        11.3521   48.5264   72.0786  C     
2    C        12.6601   48.8031   72.5364  C     
3    C        12.9293   50.0988   73.0389  C     
4    C        11.9257   51.0931   73.0149  C     
5    C        10.6504   50.8028   72.4983  C     
6    C        10.3579   49.5144   71.9965  C     
7    C        14.1998   50.8470   74.8692  C     
8    O        13.7090   47.8958   72.4901  O     
9    C        13.6065   46.7539   71.6112  C     
10   C         9.0469   49.1718   71.3810  C     
11   C         9.1499   48.7369   69.8673  C     
12   C         7.9741   47.7912   69.4364  C     
13   C         7.9744   46.3290   69.9923  C     
14   C         6.6939   45.5390   69.5628  C     
15   C         6.1976   44.4827   70.6196  C     
16   C         4.7292   43.9079   70.5079  C     
17   C         3.8987   44.5857   69.5040  C     
18   C         9.3249   49.9327   68.8489  C     
19   C         8.7993   51.3113   69.3477  C     
20   C        10.7795   50.1106   68.3081  C     
21   N         9.1858   45.5859   69.5672  N     
22   O         6.8519   44.9005   68.2880  O     
23   C         4.7265   42.3487   70.4110  C     
24   O         3.4751   45.7070   69.7822  O     
25   N         3.6970   44.0689   68.2975  N     
26   C         3.2940   44.7499   67.1035  C     
27   C         2.0669   45.7251   67.2056  C     
28   C         2.4452   47.2221   67.3586  C     
29   C         2.7181   47.9553   66.0260  C     
30   C        14.9135   45.9416   71.5212  C     
31   O        14.1872   50.4074   73.4936  O     
32   C        15.7806   42.6436   69.9254  C     
33   C        14.6764   44.5889   70.8141  C     
34   O        15.8925   43.8227   70.7435  O     
35   H        11.1194   47.5887   71.7662  H     
36   H        12.1260   52.0372   73.3596  H     
37   H         9.9401   51.5474   72.4783  H     
38   H        13.6771   51.8077   74.9818  H     
39   H        15.2402   50.9836   75.1688  H     
40   H        13.7426   50.1006   75.5328  H     
41   H        12.8147   46.1022   72.0079  H     
42   H        13.3393   47.0686   70.5949  H     
43   H         8.6447   48.3599   71.9748  H     
44   H         8.3222   49.9918   71.4995  H     
45   H        10.0442   48.1232   69.7563  H     
46   H         7.0295   48.2698   69.7034  H     
47   H         7.9801   47.6902   68.3489  H     
48   H         7.9762   46.3566   71.0895  H     
49   H         5.9043   46.2882   69.4442  H     
50   H         6.9182   43.6559   70.6090  H     
51   H         6.2982   44.9388   71.6123  H     
52   H         4.2315   44.1047   71.4637  H     
53   H         8.7399   49.7066   67.9487  H     
54   H         7.8099   51.1900   69.7981  H     
55   H         8.7278   52.0314   68.5272  H     
56   H         9.4772   51.7229   70.1033  H     
57   H        11.4619   50.4203   69.1051  H     
58   H        10.8144   50.8753   67.5173  H     
59   H        11.1452   49.1696   67.8755  H     
60   H         9.2546   45.6028   68.5407  H     
61   H         9.1310   44.6155   69.8932  H     
62   H        10.0095   46.0344   69.9747  H     
63   H         7.3086   44.0419   68.4642  H     
64   H         5.2350   42.0201   69.4998  H     
65   H         3.6976   41.9767   70.3969  H     
66   H         5.2369   41.9131   71.2741  H     
67   H         3.9983   43.1550   68.1609  H     
68   H         4.1691   45.2676   66.7000  H     
69   H         3.0411   43.9647   66.3779  H     
70   H         1.4431   45.6259   66.3128  H     
71   H         1.4378   45.4372   68.0584  H     
72   H         1.6275   47.7421   67.8688  H     
73   H         3.3377   47.3152   67.9891  H     
74   H         3.4986   47.4509   65.4434  H     
75   H         3.0496   48.9753   66.2313  H     
76   H         1.8039   47.9989   65.4190  H     
77   H        15.6593   46.5149   70.9665  H     
78   H        15.2872   45.7639   72.5369  H     
79   H        14.9590   42.0048   70.2555  H     
80   H        16.7013   42.0700   69.9972  H     
81   H        15.6359   42.9146   68.8761  H     
82   H        13.9173   44.0276   71.3694  H     
83   H        14.3054   44.7845   69.7978  H     
@<TRIPOS>BOND
     1    1    2 2
     2    1    6 1
     3    2    3 1
     4    2    8 1
     5    3    4 2
     6    3   31 1
     7    4    5 1
     8    5    6 2
     9    6   10 1
    10    7   31 1
    11    8    9 1
    12    9   30 1
    13   10   11 1
    14   11   12 1
    15   11   18 1
    16   12   13 1
    17   13   14 1
    18   13   21 1
    19   14   15 1
    20   14   22 1
    21   15   16 1
    22   16   17 1
    23   16   23 1
    24   17   24 2
    25   17   25 am
    26   18   19 1
    27   18   20 1
    28   25   26 1
    29   26   27 1
    30   27   28 1
    31   28   29 1
    32   30   33 1
    33   32   34 1
    34   33   34 1
    35    1   35 1
    36    4   36 1
    37    5   37 1
    38    7   38 1
    39    7   39 1
    40    7   40 1
    41    9   41 1
    42    9   42 1
    43   10   43 1
    44   10   44 1
    45   11   45 1
    46   12   46 1
    47   12   47 1
    48   13   48 1
    49   14   49 1
    50   15   50 1
    51   15   51 1
    52   16   52 1
    53   18   53 1
    54   19   54 1
    55   19   55 1
    56   19   56 1
    57   20   57 1
    58   20   58 1
    59   20   59 1
    60   21   60 1
    61   21   61 1
    62   21   62 1
    63   22   63 1
    64   23   64 1
    65   23   65 1
    66   23   66 1
    67   25   67 1
    68   26   68 1
    69   26   69 1
    70   27   70 1
    71   27   71 1
    72   28   72 1
    73   28   73 1
    74   29   74 1
    75   29   75 1
    76   29   76 1
    77   30   77 1
    78   30   78 1
    79   32   79 1
    80   32   80 1
    81   32   81 1
    82   33   82 1
    83   33   83 1
@<TRIPOS>PROPERTY_DATA
  Total_Score	| 10.2174
  Crash		| -3.0091
  Polar		| 3.1720
  FragIndex	| 1
  FragRMSD	| 0.792

