@<TRIPOS>MOLECULE
BindingDB_18323
 90 90 0 0 0
SMALL
NO_CHARGES


@<TRIPOS>ATOM
1    C        11.7161   48.3531   72.2652  C     
2    C        12.9156   48.4580   73.0046  C     
3    C        13.1106   49.5530   73.8660  C     
4    C        12.1309   50.5627   73.9317  C     
5    C        10.9617   50.4850   73.1511  C     
6    C        10.7247   49.3646   72.3072  C     
7    C        15.0641   50.6611   74.5614  C     
8    O        13.9537   47.6002   72.7652  O     
9    C        13.8938   46.2874   73.3410  C     
10   C         9.4808   49.2742   71.4730  C     
11   C         9.6917   48.7938   69.9801  C     
12   C         8.3152   48.4507   69.2884  C     
13   C         8.0357   46.9134   69.1159  C     
14   C         6.6510   46.6487   68.4334  C     
15   C         6.0794   45.2195   68.7097  C     
16   C         4.7179   44.8537   68.0258  C     
17   C         3.8257   46.0192   67.9521  C     
18   C        10.6586   49.7368   69.1643  C     
19   C        11.7946   48.9231   68.4658  C     
20   C         9.9865   50.7260   68.1603  C     
21   N         9.1186   46.3187   68.2998  N     
22   O         6.7051   46.9302   67.0166  O     
23   O         3.6371   46.6665   68.9865  O     
24   N         3.2358   46.3458   66.8092  N     
25   C         2.3549   47.4527   66.5849  C     
26   O        14.1710   49.5555   74.7319  O     
27   C        14.0076   45.2032   72.2400  C     
28   C        14.9714   45.5521   71.0657  C     
29   O        15.8748   44.4799   70.6990  O     
30   C        15.2777   43.3870   69.9826  C     
31   C         2.8336   48.3817   65.4271  C     
32   C         2.1082   48.2118   64.0590  C     
33   C         3.2197   42.7776   67.6041  C     
34   C         3.9377   43.6412   68.6895  C     
35   C         4.8098   42.7114   69.5865  C     
36   C         2.3300   46.9567   63.3745  C     
37   O         2.9098   46.9398   62.2925  O     
38   N         1.8119   45.8190   63.7911  N     
39   H        11.5998   47.5337   71.6685  H     
40   H        12.2655   51.3603   74.5516  H     
41   H        10.2688   51.2375   73.2184  H     
42   H        15.5087   50.6532   73.5619  H     
43   H        15.8605   50.5592   75.2982  H     
44   H        14.5597   51.6165   74.7381  H     
45   H        14.7504   46.1861   74.0042  H     
46   H        12.9956   46.1077   73.9353  H     
47   H         8.8132   48.5664   71.9840  H     
48   H         8.9644   50.2396   71.4582  H     
49   H        10.2103   47.8392   70.0824  H     
50   H         7.5049   48.9050   69.8959  H     
51   H         8.2824   48.9096   68.2815  H     
52   H         8.0427   46.4391   70.1034  H     
53   H         5.9327   47.3452   68.8768  H     
54   H         6.8276   44.4875   68.3812  H     
55   H         5.9753   45.1189   69.7951  H     
56   H         4.9831   44.5513   67.0045  H     
57   H        11.1896   50.3925   69.8665  H     
58   H        12.3708   48.3638   69.2104  H     
59   H        12.4891   49.5949   67.9558  H     
60   H        11.3779   48.2164   67.7461  H     
61   H         9.5784   50.2035   67.2923  H     
62   H        10.7249   51.4474   67.8097  H     
63   H         9.1805   51.2719   68.6616  H     
64   H         9.3017   46.9332   67.4901  H     
65   H         8.8374   45.3915   67.9655  H     
66   H         9.9733   46.2348   68.8596  H     
67   H         7.3064   46.2570   66.6371  H     
68   H         3.3768   45.7344   66.0616  H     
69   H         1.3677   47.0528   66.3617  H     
70   H         2.2486   48.0551   67.4949  H     
71   H        14.3399   44.2790   72.7128  H     
72   H        13.0129   45.0134   71.8259  H     
73   H        14.3985   45.8936   70.1926  H     
74   H        15.6084   46.3869   71.3541  H     
75   H        14.5093   42.8827   70.5674  H     
76   H        16.0563   42.6621   69.7558  H     
77   H        14.8486   43.7271   69.0410  H     
78   H         2.6601   49.4153   65.7426  H     
79   H         3.9152   48.2746   65.2823  H     
80   H         1.0335   48.3447   64.1988  H     
81   H         2.4385   49.0337   63.4163  H     
82   H         2.5953   43.4020   66.9585  H     
83   H         2.5698   42.0352   68.0774  H     
84   H         3.9457   42.2542   66.9792  H     
85   H         3.1536   44.0413   69.3491  H     
86   H         5.6078   42.2516   68.9885  H     
87   H         4.1748   41.9420   70.0394  H     
88   H         5.2458   43.2772   70.4115  H     
89   H         1.9319   45.0082   63.2735  H     
90   H         1.2595   45.8005   64.5903  H     
@<TRIPOS>BOND
     1    1    2 2
     2    1    6 1
     3    2    3 1
     4    2    8 1
     5    3    4 2
     6    3   26 1
     7    4    5 1
     8    5    6 2
     9    6   10 1
    10    7   26 1
    11    8    9 1
    12    9   27 1
    13   10   11 1
    14   11   12 1
    15   11   18 1
    16   12   13 1
    17   13   14 1
    18   13   21 1
    19   14   15 1
    20   14   22 1
    21   15   16 1
    22   16   17 1
    23   16   34 1
    24   17   23 2
    25   17   24 am
    26   18   19 1
    27   18   20 1
    28   24   25 1
    29   25   31 1
    30   27   28 1
    31   28   29 1
    32   29   30 1
    33   31   32 1
    34   32   36 1
    35   33   34 1
    36   34   35 1
    37   36   37 2
    38   36   38 am
    39    1   39 1
    40    4   40 1
    41    5   41 1
    42    7   42 1
    43    7   43 1
    44    7   44 1
    45    9   45 1
    46    9   46 1
    47   10   47 1
    48   10   48 1
    49   11   49 1
    50   12   50 1
    51   12   51 1
    52   13   52 1
    53   14   53 1
    54   15   54 1
    55   15   55 1
    56   16   56 1
    57   18   57 1
    58   19   58 1
    59   19   59 1
    60   19   60 1
    61   20   61 1
    62   20   62 1
    63   20   63 1
    64   21   64 1
    65   21   65 1
    66   21   66 1
    67   22   67 1
    68   24   68 1
    69   25   69 1
    70   25   70 1
    71   27   71 1
    72   27   72 1
    73   28   73 1
    74   28   74 1
    75   30   75 1
    76   30   76 1
    77   30   77 1
    78   31   78 1
    79   31   79 1
    80   32   80 1
    81   32   81 1
    82   33   82 1
    83   33   83 1
    84   33   84 1
    85   34   85 1
    86   35   86 1
    87   35   87 1
    88   35   88 1
    89   38   89 1
    90   38   90 1
@<TRIPOS>PROPERTY_DATA
  Total_Score	| 13.5348
  Crash		| -4.0410
  Polar		| 6.7497
  FragIndex	| 1
  FragRMSD	| 0.805

