@<TRIPOS>MOLECULE
BindingDB_18308
 84 84 0 0 0
SMALL
NO_CHARGES


@<TRIPOS>ATOM
1    C        10.6277   47.6743   72.1697  C     
2    C        11.8520   48.0836   72.7424  C     
3    C        12.0188   49.4213   73.1640  C     
4    C        10.9540   50.3342   72.9498  C     
5    C         9.7832   49.9381   72.2824  C     
6    C         9.6026   48.5981   71.8706  C     
7    C        13.8045   51.0021   73.6921  C     
8    O        12.8636   47.1639   72.8791  O     
9    C        13.5322   46.8533   71.6318  C     
10   C         8.4026   48.1672   71.0881  C     
11   C         8.7318   47.4520   69.7286  C     
12   C         7.4363   46.8784   69.0377  C     
13   C         7.1238   45.3481   69.2201  C     
14   C         5.9815   44.8848   68.2427  C     
15   C         5.1892   43.5952   68.6469  C     
16   C         4.1111   43.6238   69.7877  C     
17   C         3.3289   44.8581   69.7825  C     
18   C         9.6470   48.2984   68.7535  C     
19   C        10.2174   47.4410   67.5804  C     
20   C         8.9815   49.6067   68.2303  C     
21   N         8.3266   44.5116   68.9964  N     
22   O         6.5127   44.6371   66.9267  O     
23   C         4.6457   43.2787   71.2086  C     
24   O         3.8915   45.9278   69.9893  O     
25   N         2.0406   44.8443   69.4609  N     
26   C         1.1559   45.9646   69.3228  C     
27   O        13.1789   49.7123   73.8450  O     
28   C        14.4178   45.5923   71.7837  C     
29   C        14.9503   45.0688   70.4225  C     
30   O        15.9473   44.0423   70.6041  O     
31   C        15.6483   42.7518   70.0365  C     
32   C         0.6232   46.0942   67.8706  C     
33   C         0.0341   44.7827   67.2588  C     
34   C         0.9554   44.0247   66.4290  C     
35   O         1.0377   42.8071   66.5278  O     
36   N         1.6870   44.6218   65.5061  N     
37   H        10.5059   46.6875   71.9319  H     
38   H        11.0281   51.3008   73.2715  H     
39   H         9.0541   50.6388   72.1139  H     
40   H        13.8933   51.2803   72.6385  H     
41   H        14.8019   50.9402   74.1296  H     
42   H        13.2483   51.7792   74.2276  H     
43   H        12.8062   46.6712   70.8320  H     
44   H        14.1575   47.7007   71.3425  H     
45   H         7.8306   47.4794   71.7182  H     
46   H         7.7505   49.0248   70.8920  H     
47   H         9.3477   46.6035   70.0112  H     
48   H         6.5628   47.4417   69.3920  H     
49   H         7.4832   47.0715   67.9631  H     
50   H         6.8056   45.2043   70.2538  H     
51   H         5.2647   45.7039   68.1201  H     
52   H         4.6553   43.2801   67.7426  H     
53   H         5.9020   42.8000   68.8580  H     
54   H         3.4277   42.7953   69.5510  H     
55   H        10.5312   48.6120   69.3181  H     
56   H        10.5732   46.4707   67.9420  H     
57   H        11.0650   47.9494   67.1109  H     
58   H         9.4643   47.2665   66.8095  H     
59   H         8.0819   49.3836   67.6526  H     
60   H         9.6809   50.1537   67.5872  H     
61   H         8.7098   50.2578   69.0656  H     
62   H         8.7239   44.7153   68.0648  H     
63   H         8.0712   43.5212   69.0425  H     
64   H         9.0260   44.7045   69.7263  H     
65   H         7.1792   45.3286   66.7384  H     
66   H         5.2766   42.3871   71.1610  H     
67   H         3.8054   43.0678   71.8782  H     
68   H         5.2240   44.0989   71.6369  H     
69   H         1.6569   43.9755   69.2559  H     
70   H         0.3078   45.8182   69.9968  H     
71   H         1.6323   46.9112   69.6078  H     
72   H        15.2615   45.8377   72.4323  H     
73   H        13.8306   44.8060   72.2674  H     
74   H        14.1188   44.7282   69.7979  H     
75   H        15.4337   45.8957   69.8963  H     
76   H        14.6540   42.4032   70.3247  H     
77   H        16.3830   42.0310   70.3910  H     
78   H        15.7179   42.8004   68.9480  H     
79   H        -0.1695   46.8526   67.8860  H     
80   H         1.4248   46.4849   67.2358  H     
81   H        -0.3432   44.1643   68.0839  H     
82   H        -0.8250   45.0522   66.6364  H     
83   H         2.2690   44.1030   64.9363  H     
84   H         1.6225   45.5875   65.3920  H     
@<TRIPOS>BOND
     1    1    2 2
     2    1    6 1
     3    2    3 1
     4    2    8 1
     5    3    4 2
     6    3   27 1
     7    4    5 1
     8    5    6 2
     9    6   10 1
    10    7   27 1
    11    8    9 1
    12    9   28 1
    13   10   11 1
    14   11   12 1
    15   11   18 1
    16   12   13 1
    17   13   14 1
    18   13   21 1
    19   14   15 1
    20   14   22 1
    21   15   16 1
    22   16   17 1
    23   16   23 1
    24   17   24 2
    25   17   25 am
    26   18   19 1
    27   18   20 1
    28   25   26 1
    29   26   32 1
    30   28   29 1
    31   29   30 1
    32   30   31 1
    33   32   33 1
    34   33   34 1
    35   34   35 2
    36   34   36 am
    37    1   37 1
    38    4   38 1
    39    5   39 1
    40    7   40 1
    41    7   41 1
    42    7   42 1
    43    9   43 1
    44    9   44 1
    45   10   45 1
    46   10   46 1
    47   11   47 1
    48   12   48 1
    49   12   49 1
    50   13   50 1
    51   14   51 1
    52   15   52 1
    53   15   53 1
    54   16   54 1
    55   18   55 1
    56   19   56 1
    57   19   57 1
    58   19   58 1
    59   20   59 1
    60   20   60 1
    61   20   61 1
    62   21   62 1
    63   21   63 1
    64   21   64 1
    65   22   65 1
    66   23   66 1
    67   23   67 1
    68   23   68 1
    69   25   69 1
    70   26   70 1
    71   26   71 1
    72   28   72 1
    73   28   73 1
    74   29   74 1
    75   29   75 1
    76   31   76 1
    77   31   77 1
    78   31   78 1
    79   32   79 1
    80   32   80 1
    81   33   81 1
    82   33   82 1
    83   36   83 1
    84   36   84 1
@<TRIPOS>PROPERTY_DATA
  Total_Score	| 13.1122
  Crash		| -3.3778
  Polar		| 9.0538
  FragIndex	| 1
  FragRMSD	| 1.168

