@<TRIPOS>MOLECULE
BindingDB_18287
 81 81 0 0 0
SMALL
NO_CHARGES


@<TRIPOS>ATOM
1    C        11.5566   48.7944   72.3052  C     
2    C        12.9011   49.0107   72.6819  C     
3    C        13.2642   50.3063   73.1205  C     
4    C        12.3420   51.3691   73.0476  C     
5    C        11.0301   51.1373   72.5946  C     
6    C        10.6255   49.8433   72.2171  C     
7    C        14.5414   50.9097   74.9802  C     
8    O        13.8652   48.0195   72.6562  O     
9    C        13.8769   47.1328   71.5114  C     
10   C         9.2336   49.5464   71.7990  C     
11   C         9.0886   48.7968   70.4124  C     
12   C         7.6694   48.1074   70.3006  C     
13   C         7.5530   46.6460   70.8576  C     
14   C         8.0449   45.5309   69.8718  C     
15   C         7.0334   45.0667   68.7739  C     
16   C         5.6355   44.4362   69.1495  C     
17   C         4.5390   45.3342   68.8074  C     
18   C         9.5051   49.7003   69.1901  C     
19   C         9.0725   49.1391   67.8038  C     
20   C         9.0687   51.1889   69.3154  C     
21   N         8.2119   46.5380   72.1636  N     
22   O         8.5309   44.3922   70.5816  O     
23   C         5.4720   43.8355   70.5802  C     
24   O         3.9085   45.9055   69.7025  O     
25   N         4.1879   45.5301   67.5353  N     
26   C         3.1527   46.3836   67.0512  C     
27   C         2.1378   45.5891   66.1893  C     
28   C         1.9074   46.1813   64.7715  C     
29   O        14.5331   50.5436   73.5879  O     
30   C        15.0916   46.1847   71.5380  C     
31   C        14.7263   44.7712   71.0182  C     
32   O        15.9122   43.9800   70.8131  O     
33   C        15.6871   42.7879   70.0354  C     
34   O         0.8677   45.4655   64.1013  O     
35   H        11.2443   47.8493   72.0759  H     
36   H        12.6129   52.3122   73.3400  H     
37   H        10.3755   51.9208   72.5572  H     
38   H        14.0341   51.8666   75.1446  H     
39   H        15.5758   51.0253   75.3086  H     
40   H        14.0784   50.1360   75.6027  H     
41   H        12.9826   46.5128   71.5351  H     
42   H        13.8885   47.7017   70.5788  H     
43   H         8.8105   48.9440   72.6088  H     
44   H         8.6255   50.4553   71.7651  H     
45   H         9.8182   47.9805   70.4039  H     
46   H         6.9300   48.7461   70.8053  H     
47   H         7.3251   48.0558   69.2685  H     
48   H         6.5066   46.4621   71.0854  H     
49   H         8.9332   45.8960   69.3443  H     
50   H         6.8900   45.8981   68.0877  H     
51   H         7.5631   44.3292   68.1788  H     
52   H         5.5107   43.5591   68.4928  H     
53   H        10.6030   49.7090   69.1683  H     
54   H         9.2453   48.0659   67.7583  H     
55   H         9.6493   49.6115   67.0126  H     
56   H         8.0198   49.3387   67.6025  H     
57   H         8.0161   51.2556   69.5924  H     
58   H         9.2338   51.7278   68.3778  H     
59   H         9.6624   51.7077   70.0705  H     
60   H         9.2214   46.6593   72.0486  H     
61   H         8.0278   45.6095   72.5583  H     
62   H         7.8429   47.2528   72.7962  H     
63   H         8.2479   43.6025   70.0706  H     
64   H         6.1992   43.0434   70.7610  H     
65   H         4.4795   43.3965   70.7179  H     
66   H         5.5955   44.6433   71.3129  H     
67   H         4.6936   45.0330   66.8659  H     
68   H         2.5926   46.8650   67.8615  H     
69   H         3.6122   47.1801   66.4638  H     
70   H         2.4856   44.5497   66.1143  H     
71   H         1.1774   45.5622   66.7130  H     
72   H         1.6116   47.2334   64.8447  H     
73   H         2.8104   46.1331   64.1550  H     
74   H        15.8951   46.6164   70.9250  H     
75   H        15.4565   46.1012   72.5681  H     
76   H        14.0792   44.2842   71.7573  H     
77   H        14.1737   44.8639   70.0809  H     
78   H        14.9486   42.1270   70.5083  H     
79   H        16.6272   42.2397   69.9545  H     
80   H        15.3569   43.0402   69.0212  H     
81   H         1.3234   44.7504   63.6108  H     
@<TRIPOS>BOND
     1    1    2 2
     2    1    6 1
     3    2    3 1
     4    2    8 1
     5    3    4 2
     6    3   29 1
     7    4    5 1
     8    5    6 2
     9    6   10 1
    10    7   29 1
    11    8    9 1
    12    9   30 1
    13   10   11 1
    14   11   12 1
    15   11   18 1
    16   12   13 1
    17   13   14 1
    18   13   21 1
    19   14   15 1
    20   14   22 1
    21   15   16 1
    22   16   17 1
    23   16   23 1
    24   17   24 2
    25   17   25 am
    26   18   19 1
    27   18   20 1
    28   25   26 1
    29   26   27 1
    30   27   28 1
    31   28   34 1
    32   30   31 1
    33   31   32 1
    34   32   33 1
    35    1   35 1
    36    4   36 1
    37    5   37 1
    38    7   38 1
    39    7   39 1
    40    7   40 1
    41    9   41 1
    42    9   42 1
    43   10   43 1
    44   10   44 1
    45   11   45 1
    46   12   46 1
    47   12   47 1
    48   13   48 1
    49   14   49 1
    50   15   50 1
    51   15   51 1
    52   16   52 1
    53   18   53 1
    54   19   54 1
    55   19   55 1
    56   19   56 1
    57   20   57 1
    58   20   58 1
    59   20   59 1
    60   21   60 1
    61   21   61 1
    62   21   62 1
    63   22   63 1
    64   23   64 1
    65   23   65 1
    66   23   66 1
    67   25   67 1
    68   26   68 1
    69   26   69 1
    70   27   70 1
    71   27   71 1
    72   28   72 1
    73   28   73 1
    74   30   74 1
    75   30   75 1
    76   31   76 1
    77   31   77 1
    78   33   78 1
    79   33   79 1
    80   33   80 1
    81   34   81 1
@<TRIPOS>PROPERTY_DATA
  Total_Score	| 9.5278
  Crash		| -4.0785
  Polar		| 5.7102
  FragIndex	| 1
  FragRMSD	| 1.407

