@<TRIPOS>MOLECULE
BindingDB_18338
 93 93 0 0 0
SMALL
NO_CHARGES


@<TRIPOS>ATOM
1    C        11.8694   48.4468   72.4383  C     
2    C        13.1271   48.7912   72.9758  C     
3    C        13.3185   50.0875   73.5111  C     
4    C        12.2492   51.0050   73.5210  C     
5    C        10.9901   50.6359   73.0301  C     
6    C        10.7790   49.3503   72.4658  C     
7    C        14.7181   51.0278   75.2129  C     
8    O        14.2346   47.9870   72.9226  O     
9    C        14.1221   46.5603   72.9802  C     
10   C         9.4910   48.9926   71.7913  C     
11   C         9.6278   48.8017   70.2362  C     
12   C         8.3597   48.0871   69.6364  C     
13   C         8.3483   46.5212   69.6443  C     
14   C         6.9525   45.9667   69.2007  C     
15   C         6.7678   44.4164   69.2902  C     
16   C         5.3199   43.8671   69.5825  C     
17   C         4.2615   44.7326   69.0265  C     
18   C         9.9946   50.1544   69.5054  C     
19   C        11.0490   49.9480   68.3893  C     
20   C         8.7687   50.9469   68.9547  C     
21   N         9.4372   45.9790   68.7993  N     
22   O         6.6525   46.3824   67.8576  O     
23   O         3.9944   45.7962   69.5846  O     
24   N         3.5992   44.3906   67.9151  N     
25   O        14.5856   50.4422   73.9007  O     
26   C        14.4885   45.9712   71.5926  C     
27   C        14.5694   44.4278   71.5955  C     
28   O        15.6669   43.9810   70.7699  O     
29   C        15.7405   42.5528   70.6160  C     
30   C         4.5499   41.9466   71.1861  C     
31   C         4.9860   43.4395   71.0880  C     
32   C         6.0948   43.7538   72.1423  C     
33   C         2.5699   45.1687   67.2829  C     
34   C         2.5371   47.5993   66.3433  C     
35   C         3.1631   46.1688   66.2515  C     
36   C         2.7152   48.4300   65.1485  C     
37   O         2.8822   47.8961   64.0552  O     
38   N         2.5292   49.7483   65.2310  N     
39   C         2.5850   50.6717   64.1394  C     
40   H        11.7380   47.5328   71.9991  H     
41   H        12.3934   51.9505   73.8668  H     
42   H        10.2381   51.3239   73.0336  H     
43   H        14.3990   52.0773   75.1978  H     
44   H        15.7752   50.9846   75.4779  H     
45   H        14.1431   50.4754   75.9690  H     
46   H        14.8313   46.2090   73.7267  H     
47   H        13.1375   46.2190   73.3048  H     
48   H         9.1168   48.0672   72.2408  H     
49   H         8.7401   49.7622   71.9850  H     
50   H        10.4655   48.1156   70.0767  H     
51   H         7.4770   48.4583   70.1775  H     
52   H         8.2245   48.3902   68.5906  H     
53   H         8.5279   46.1720   70.6700  H     
54   H         6.2174   46.4364   69.8650  H     
55   H         7.1127   44.0033   68.3408  H     
56   H         7.4419   44.0134   70.0489  H     
57   H         5.2911   42.9441   68.9961  H     
58   H        10.4828   50.8155   70.2269  H     
59   H        11.9617   49.5111   68.8072  H     
60   H        11.3144   50.9091   67.9325  H     
61   H        10.6585   49.2863   67.6176  H     
62   H         8.2993   50.4057   68.1300  H     
63   H         9.0908   51.9255   68.5820  H     
64   H         8.0233   51.1108   69.7371  H     
65   H         9.3258   46.3305   67.8417  H     
66   H         9.3873   44.9555   68.7998  H     
67   H        10.3469   46.2712   69.1728  H     
68   H         7.3288   45.9586   67.2815  H     
69   H         3.8271   43.5419   67.4891  H     
70   H        13.7351   46.2860   70.8596  H     
71   H        15.4580   46.3802   71.2903  H     
72   H        14.7263   44.0686   72.6171  H     
73   H        13.6169   44.0299   71.2202  H     
74   H        15.9123   42.0635   71.5773  H     
75   H        16.5768   42.3116   69.9562  H     
76   H        14.8268   42.1560   70.1676  H     
77   H         3.7194   41.7529   70.5001  H     
78   H         4.2120   41.7111   72.1975  H     
79   H         5.3823   41.2878   70.9253  H     
80   H         4.1047   44.0015   71.4381  H     
81   H         7.0092   43.1895   71.9363  H     
82   H         5.7447   43.5016   73.1466  H     
83   H         6.3348   44.8208   72.1345  H     
84   H         1.9017   44.4915   66.7454  H     
85   H         1.9637   45.6888   68.0311  H     
86   H         1.4548   47.5198   66.5352  H     
87   H         3.0038   48.1127   67.2058  H     
88   H         4.2472   46.2802   66.3965  H     
89   H         3.0022   45.7724   65.2423  H     
90   H         2.3575   50.1234   66.1126  H     
91   H         3.5703   50.6412   63.6727  H     
92   H         2.4102   51.6742   64.5348  H     
93   H         1.8158   50.4387   63.4025  H     
@<TRIPOS>BOND
     1    1    2 2
     2    1    6 1
     3    2    3 1
     4    2    8 1
     5    3    4 2
     6    3   25 1
     7    4    5 1
     8    5    6 2
     9    6   10 1
    10    7   25 1
    11    8    9 1
    12    9   26 1
    13   10   11 1
    14   11   12 1
    15   11   18 1
    16   12   13 1
    17   13   14 1
    18   13   21 1
    19   14   15 1
    20   14   22 1
    21   15   16 1
    22   16   17 1
    23   16   31 1
    24   17   23 2
    25   17   24 am
    26   18   19 1
    27   18   20 1
    28   24   33 1
    29   26   27 1
    30   27   28 1
    31   28   29 1
    32   30   31 1
    33   31   32 1
    34   33   35 1
    35   34   35 1
    36   34   36 1
    37   36   37 2
    38   36   38 am
    39   38   39 1
    40    1   40 1
    41    4   41 1
    42    5   42 1
    43    7   43 1
    44    7   44 1
    45    7   45 1
    46    9   46 1
    47    9   47 1
    48   10   48 1
    49   10   49 1
    50   11   50 1
    51   12   51 1
    52   12   52 1
    53   13   53 1
    54   14   54 1
    55   15   55 1
    56   15   56 1
    57   16   57 1
    58   18   58 1
    59   19   59 1
    60   19   60 1
    61   19   61 1
    62   20   62 1
    63   20   63 1
    64   20   64 1
    65   21   65 1
    66   21   66 1
    67   21   67 1
    68   22   68 1
    69   24   69 1
    70   26   70 1
    71   26   71 1
    72   27   72 1
    73   27   73 1
    74   29   74 1
    75   29   75 1
    76   29   76 1
    77   30   77 1
    78   30   78 1
    79   30   79 1
    80   31   80 1
    81   32   81 1
    82   32   82 1
    83   32   83 1
    84   33   84 1
    85   33   85 1
    86   34   86 1
    87   34   87 1
    88   35   88 1
    89   35   89 1
    90   38   90 1
    91   39   91 1
    92   39   92 1
    93   39   93 1
@<TRIPOS>PROPERTY_DATA
  Total_Score	| 12.7463
  Crash		| -2.9089
  Polar		| 3.3078
  FragIndex	| 1
  FragRMSD	| 0.638

