@<TRIPOS>MOLECULE
BindingDB_18309
 87 87 0 0 0
SMALL
NO_CHARGES


@<TRIPOS>ATOM
1    C        11.8354   48.2241   72.0411  C     
2    C        13.0372   48.5281   72.7145  C     
3    C        13.1864   49.7818   73.3516  C     
4    C        12.1134   50.6923   73.3332  C     
5    C        10.8971   50.3593   72.6996  C     
6    C        10.7441   49.1252   72.0251  C     
7    C        14.5770   49.7635   75.2738  C     
8    O        14.1068   47.6672   72.6613  O     
9    C        13.9530   46.3715   73.2682  C     
10   C         9.4796   48.7662   71.3316  C     
11   C         9.6304   48.3926   69.8152  C     
12   C         8.3591   47.6842   69.1921  C     
13   C         7.9717   46.2328   69.6265  C     
14   C         6.5376   45.8297   69.1630  C     
15   C         6.0674   44.4819   69.8036  C     
16   C         4.7027   43.9156   69.2790  C     
17   C         3.7649   44.9646   68.8689  C     
18   C        10.1582   49.6567   68.9787  C     
19   C        11.5781   49.4011   68.3645  C     
20   C         9.2515   50.2734   67.8653  C     
21   N         8.9682   45.2524   69.1553  N     
22   O         6.4144   45.7297   67.7466  O     
23   C         4.0410   42.9965   70.3434  C     
24   O         3.4758   45.8562   69.6697  O     
25   N         3.3060   44.9996   67.6212  N     
26   C         2.3851   45.9447   67.0713  C     
27   O        14.3884   50.1651   73.9118  O     
28   C        14.0150   45.2201   72.2348  C     
29   C        14.9690   45.4975   71.0336  C     
30   O        15.8558   44.3962   70.7217  O     
31   C        15.2722   43.3206   69.9676  C     
32   C         2.9931   46.6332   65.8334  C     
33   C         2.0363   47.6734   65.1877  C     
34   C         2.7095   48.6348   64.3310  C     
35   O         3.4478   49.4830   64.8231  O     
36   N         2.4903   48.6114   63.0218  N     
37   C         3.0451   49.5275   62.0757  C     
38   H        11.7681   47.3444   71.5295  H     
39   H        12.2242   51.6181   73.7718  H     
40   H        10.1364   51.0434   72.7229  H     
41   H        13.8056   50.1779   75.9224  H     
42   H        15.5416   50.1401   75.6033  H     
43   H        14.5856   48.6819   75.3624  H     
44   H        14.7930   46.2536   73.9495  H     
45   H        13.0428   46.2803   73.8817  H     
46   H         9.0891   47.9246   71.8915  H     
47   H         8.7501   49.5711   71.4085  H     
48   H        10.3924   47.6106   69.7628  H     
49   H         7.4699   48.3048   69.3640  H     
50   H         8.5127   47.6660   68.0986  H     
51   H         7.9597   46.2097   70.7163  H     
52   H         5.8380   46.5981   69.5044  H     
53   H         6.8315   43.7223   69.6326  H     
54   H         5.9846   44.6123   70.8899  H     
55   H         4.9321   43.2815   68.4184  H     
56   H        10.3010   50.4919   69.6860  H     
57   H        12.2550   49.0249   69.1381  H     
58   H        11.9879   50.3326   67.9591  H     
59   H        11.5251   48.6480   67.5615  H     
60   H         8.9838   49.5058   67.1275  H     
61   H         9.7618   51.0967   67.3418  H     
62   H         8.3414   50.6872   68.3088  H     
63   H         8.9363   45.2011   68.1297  H     
64   H         8.7582   44.3279   69.5494  H     
65   H         9.9013   45.5464   69.4586  H     
66   H         7.2955   45.8844   67.3496  H     
67   H         4.7058   42.1623   70.5746  H     
68   H         3.1018   42.5824   69.9603  H     
69   H         3.8344   43.5470   71.2658  H     
70   H         3.6338   44.3247   67.0016  H     
71   H         1.4851   45.4081   66.7765  H     
72   H         2.0907   46.7062   67.7966  H     
73   H        14.3598   44.3234   72.7562  H     
74   H        13.0120   45.0054   71.8597  H     
75   H        14.3764   45.7906   70.1587  H     
76   H        15.6211   46.3487   71.2606  H     
77   H        14.4270   42.8695   70.4979  H     
78   H        16.0395   42.5573   69.8210  H     
79   H        14.9376   43.6796   68.9968  H     
80   H         3.9208   47.1423   66.1224  H     
81   H         3.2380   45.8766   65.0804  H     
82   H         1.2769   47.1523   64.5979  H     
83   H         1.5139   48.2034   65.9896  H     
84   H         1.8809   47.9398   62.6766  H     
85   H         2.7549   50.5519   62.3147  H     
86   H         2.6768   49.2924   61.0781  H     
87   H         4.1337   49.4561   62.0737  H     
@<TRIPOS>BOND
     1    1    2 2
     2    1    6 1
     3    2    3 1
     4    2    8 1
     5    3    4 2
     6    3   27 1
     7    4    5 1
     8    5    6 2
     9    6   10 1
    10    7   27 1
    11    8    9 1
    12    9   28 1
    13   10   11 1
    14   11   12 1
    15   11   18 1
    16   12   13 1
    17   13   14 1
    18   13   21 1
    19   14   15 1
    20   14   22 1
    21   15   16 1
    22   16   17 1
    23   16   23 1
    24   17   24 2
    25   17   25 am
    26   18   19 1
    27   18   20 1
    28   25   26 1
    29   26   32 1
    30   28   29 1
    31   29   30 1
    32   30   31 1
    33   32   33 1
    34   33   34 1
    35   34   35 2
    36   34   36 am
    37   36   37 1
    38    1   38 1
    39    4   39 1
    40    5   40 1
    41    7   41 1
    42    7   42 1
    43    7   43 1
    44    9   44 1
    45    9   45 1
    46   10   46 1
    47   10   47 1
    48   11   48 1
    49   12   49 1
    50   12   50 1
    51   13   51 1
    52   14   52 1
    53   15   53 1
    54   15   54 1
    55   16   55 1
    56   18   56 1
    57   19   57 1
    58   19   58 1
    59   19   59 1
    60   20   60 1
    61   20   61 1
    62   20   62 1
    63   21   63 1
    64   21   64 1
    65   21   65 1
    66   22   66 1
    67   23   67 1
    68   23   68 1
    69   23   69 1
    70   25   70 1
    71   26   71 1
    72   26   72 1
    73   28   73 1
    74   28   74 1
    75   29   75 1
    76   29   76 1
    77   31   77 1
    78   31   78 1
    79   31   79 1
    80   32   80 1
    81   32   81 1
    82   33   82 1
    83   33   83 1
    84   36   84 1
    85   37   85 1
    86   37   86 1
    87   37   87 1
@<TRIPOS>PROPERTY_DATA
  Total_Score	| 10.6131
  Crash		| -2.4237
  Polar		| 4.2949
  FragIndex	| 1
  FragRMSD	| 0.932

