@<TRIPOS>MOLECULE
BindingDB_18291
 83 83 0 0 0
SMALL
NO_CHARGES


@<TRIPOS>ATOM
1    C        11.8236   49.2230   71.8774  C     
2    C        12.8157   48.9732   72.8279  C     
3    C        12.6681   49.5997   74.0837  C     
4    C        11.4602   50.2508   74.4167  C     
5    C        10.4004   50.2909   73.4943  C     
6    C        10.5523   49.7263   72.2054  C     
7    C        14.7461   50.4597   74.7431  C     
8    O        13.9476   48.1921   72.6056  O     
9    C        13.8132   47.0833   71.6611  C     
10   C         9.3900   49.5729   71.2888  C     
11   C         9.5123   48.5892   70.0429  C     
12   C         8.2628   47.6598   69.9780  C     
13   C         8.2275   46.5123   68.9089  C     
14   C         7.6724   45.1168   69.3799  C     
15   C         6.3860   45.1176   70.2825  C     
16   C         5.2310   44.1170   69.8744  C     
17   C         3.9731   44.7427   69.4286  C     
18   C         9.8938   49.3277   68.7018  C     
19   C         8.7822   50.3003   68.1987  C     
20   C        11.2439   50.1094   68.6958  C     
21   N         7.4563   46.9232   67.7168  N     
22   O         8.7158   44.4178   70.0715  O     
23   C         4.9252   43.0704   70.9887  C     
24   O         3.6983   45.9135   69.6693  O     
25   N         3.0893   44.0076   68.7620  N     
26   C         1.8613   44.4522   68.1752  C     
27   C         2.0821   44.9543   66.7257  C     
28   O        13.6654   49.5507   75.0183  O     
29   C        15.0633   46.2089   71.5434  C     
30   C        14.7398   44.8629   70.8341  C     
31   O        15.8971   44.0032   70.7845  O     
32   C        15.6972   42.8298   69.9690  C     
33   C         0.7561   45.1899   65.9598  C     
34   N         0.9880   45.3421   64.5155  N     
35   H        11.9104   48.8686   70.8888  H     
36   H        11.3420   50.6785   75.3438  H     
37   H         9.5065   50.7169   73.7692  H     
38   H        15.2840   50.1683   73.8364  H     
39   H        15.4384   50.4144   75.5806  H     
40   H        14.4079   51.4966   74.6440  H     
41   H        12.9627   46.4433   71.9509  H     
42   H        13.6010   47.5125   70.6705  H     
43   H         8.5612   49.2469   71.9167  H     
44   H         9.1089   50.5677   70.9666  H     
45   H        10.3770   47.8438   70.3033  H     
46   H         8.1835   47.1785   70.9602  H     
47   H         7.3736   48.2800   69.8607  H     
48   H         9.2430   46.3380   68.5556  H     
49   H         7.4831   44.5307   68.4760  H     
50   H         6.6977   44.9262   71.3139  H     
51   H         6.0086   46.1374   70.3113  H     
52   H         5.5840   43.5205   69.0277  H     
53   H        10.0113   48.5734   67.9256  H     
54   H         7.8186   49.8008   68.1757  H     
55   H         9.0055   50.6386   67.1880  H     
56   H         8.6959   51.1857   68.8220  H     
57   H        11.2893   50.8183   69.5226  H     
58   H        11.3775   50.6779   67.7697  H     
59   H        12.0916   49.4189   68.7646  H     
60   H         6.4586   46.9461   67.9358  H     
61   H         7.6213   46.2464   66.9709  H     
62   H         7.7539   47.8391   67.3903  H     
63   H         8.5175   43.4660   69.9329  H     
64   H         5.8360   42.5426   71.2745  H     
65   H         4.2099   42.3188   70.6455  H     
66   H         4.5134   43.5521   71.8762  H     
67   H         3.3000   43.0677   68.6570  H     
68   H         1.1858   43.5926   68.1595  H     
69   H         1.3987   45.2295   68.7883  H     
70   H         2.6547   45.8861   66.7466  H     
71   H         2.6630   44.2044   66.1806  H     
72   H        15.8262   46.7426   70.9718  H     
73   H        15.4493   46.0017   72.5438  H     
74   H        13.9301   44.3665   71.3765  H     
75   H        14.4092   45.0798   69.8152  H     
76   H        14.8444   42.2482   70.3204  H     
77   H        16.5787   42.2011   70.0248  H     
78   H        15.5419   43.1089   68.9254  H     
79   H         0.0946   44.3338   66.0952  H     
80   H         0.2507   46.0843   66.3331  H     
81   H         1.5721   46.1654   64.3420  H     
82   H         0.0892   45.4560   64.0340  H     
83   H         1.4572   44.5063   64.1480  H     
@<TRIPOS>BOND
     1    1    2 2
     2    1    6 1
     3    2    3 1
     4    2    8 1
     5    3    4 2
     6    3   28 1
     7    4    5 1
     8    5    6 2
     9    6   10 1
    10    7   28 1
    11    8    9 1
    12    9   29 1
    13   10   11 1
    14   11   12 1
    15   11   18 1
    16   12   13 1
    17   13   14 1
    18   13   21 1
    19   14   15 1
    20   14   22 1
    21   15   16 1
    22   16   17 1
    23   16   23 1
    24   17   24 2
    25   17   25 am
    26   18   19 1
    27   18   20 1
    28   25   26 1
    29   26   27 1
    30   27   33 1
    31   29   30 1
    32   30   31 1
    33   31   32 1
    34   33   34 1
    35    1   35 1
    36    4   36 1
    37    5   37 1
    38    7   38 1
    39    7   39 1
    40    7   40 1
    41    9   41 1
    42    9   42 1
    43   10   43 1
    44   10   44 1
    45   11   45 1
    46   12   46 1
    47   12   47 1
    48   13   48 1
    49   14   49 1
    50   15   50 1
    51   15   51 1
    52   16   52 1
    53   18   53 1
    54   19   54 1
    55   19   55 1
    56   19   56 1
    57   20   57 1
    58   20   58 1
    59   20   59 1
    60   21   60 1
    61   21   61 1
    62   21   62 1
    63   22   63 1
    64   23   64 1
    65   23   65 1
    66   23   66 1
    67   25   67 1
    68   26   68 1
    69   26   69 1
    70   27   70 1
    71   27   71 1
    72   29   72 1
    73   29   73 1
    74   30   74 1
    75   30   75 1
    76   32   76 1
    77   32   77 1
    78   32   78 1
    79   33   79 1
    80   33   80 1
    81   34   81 1
    82   34   82 1
    83   34   83 1
@<TRIPOS>PROPERTY_DATA
  Total_Score	| 12.7563
  Crash		| -2.6109
  Polar		| 6.2460
  FragIndex	| 1
  FragRMSD	| 0.888

