@<TRIPOS>MOLECULE
BindingDB_18339
 96 96 0 0 0
SMALL
NO_CHARGES


@<TRIPOS>ATOM
1    C        11.8315   48.6837   72.1540  C     
2    C        13.0954   48.8998   72.7294  C     
3    C        13.4198   50.1776   73.2511  C     
4    C        12.5079   51.2365   73.1009  C     
5    C        11.2667   51.0266   72.4505  C     
6    C        10.9138   49.7437   71.9391  C     
7    C        14.5881   50.8845   75.1649  C     
8    O        13.9802   47.8606   72.7722  O     
9    C        14.1002   47.1519   71.5183  C     
10   C         9.6240   49.4808   71.2247  C     
11   C         9.7441   48.6792   69.8560  C     
12   C         9.3713   47.1477   69.9811  C     
13   C         7.8974   46.7162   70.2993  C     
14   C         7.3726   45.5202   69.4269  C     
15   C         6.2535   44.6802   70.1345  C     
16   C         5.0419   44.2279   69.2331  C     
17   C         4.3946   45.4203   68.6775  C     
18   C         9.0666   49.4421   68.6433  C     
19   C         9.9173   50.6733   68.1891  C     
20   C         8.7685   48.5783   67.3779  C     
21   N         7.7881   46.3458   71.7277  N     
22   O         8.4808   44.6692   69.1050  O     
23   O         4.0486   46.3115   69.4558  O     
24   N         4.1900   45.5661   67.3741  N     
25   O        14.6543   50.3966   73.8115  O     
26   C        14.4111   45.6657   71.7987  C     
27   C        15.0540   44.9479   70.5850  C     
28   O        15.9831   43.9165   70.9703  O     
29   C        15.4200   42.6441   71.3490  C     
30   C         2.8523   42.7802   69.0604  C     
31   C         3.9820   43.3213   69.9960  C     
32   C         4.6114   42.1143   70.7546  C     
33   C         3.5551   46.6822   66.7229  C     
34   C         1.7102   47.2697   64.9403  C     
35   C         2.5427   46.1682   65.6634  C     
36   C         2.3271   47.8865   63.7606  C     
37   O         2.8214   47.0855   62.9711  O     
38   N         2.2312   49.1882   63.3911  N     
39   C         2.7445   49.6148   62.1014  C     
40   C         1.5437   50.1646   64.2077  C     
41   H        11.6285   47.7364   71.8207  H     
42   H        12.7340   52.1688   73.4706  H     
43   H        10.6295   51.8176   72.3202  H     
44   H        14.1710   51.8931   75.1777  H     
45   H        15.6016   50.9093   75.5637  H     
46   H        13.9961   50.2296   75.8086  H     
47   H        13.1794   47.2080   70.9291  H     
48   H        14.9252   47.5846   70.9431  H     
49   H         8.9766   48.9482   71.9189  H     
50   H         9.1228   50.4380   71.0586  H     
51   H        10.8103   48.6702   69.5851  H     
52   H         9.7097   46.6436   69.0727  H     
53   H        10.0183   46.7164   70.7465  H     
54   H         7.2379   47.5699   70.1170  H     
55   H         6.9969   45.9208   68.4866  H     
56   H         6.7466   43.7998   70.5512  H     
57   H         5.8761   45.2464   70.9961  H     
58   H         5.4444   43.6113   68.4147  H     
59   H         8.0990   49.8332   68.9780  H     
60   H        10.1847   51.3169   69.0275  H     
61   H         9.3622   51.2912   67.4764  H     
62   H        10.8444   50.3454   67.7107  H     
63   H         9.6495   47.9978   67.0937  H     
64   H         8.4859   49.1956   66.5231  H     
65   H         7.9442   47.8902   67.5712  H     
66   H         8.3451   45.5007   71.9054  H     
67   H         6.8008   46.1448   71.9443  H     
68   H         8.1434   47.0994   72.3223  H     
69   H         8.1242   43.7538   69.0334  H     
70   H         4.4599   44.8239   66.8024  H     
71   H        15.0781   45.6039   72.6651  H     
72   H        13.4729   45.1613   72.0569  H     
73   H        14.2756   44.5393   69.9286  H     
74   H        15.6318   45.6764   70.0064  H     
75   H        14.7509   42.7439   72.2073  H     
76   H        16.2464   41.9923   71.6423  H     
77   H        14.8846   42.1767   70.5143  H     
78   H         2.2528   43.6009   68.6548  H     
79   H         2.1726   42.1221   69.6139  H     
80   H         3.2824   42.2123   68.2306  H     
81   H         3.4890   43.9376   70.7555  H     
82   H         5.2738   41.5558   70.0918  H     
83   H         3.8414   41.4320   71.1327  H     
84   H         5.1789   42.4471   71.6268  H     
85   H         3.0353   47.3321   67.4343  H     
86   H         4.3393   47.2753   66.2417  H     
87   H         0.7869   46.7910   64.5961  H     
88   H         1.4237   48.0143   65.6887  H     
89   H         3.0779   45.5737   64.9159  H     
90   H         1.8358   45.5048   66.1810  H     
91   H         3.8193   49.4431   62.0441  H     
92   H         2.5748   50.6716   61.8838  H     
93   H         2.2583   49.0498   61.3055  H     
94   H         0.5027   49.8631   64.3433  H     
95   H         1.5210   51.1660   63.7766  H     
96   H         2.0241   50.2418   65.1879  H     
@<TRIPOS>BOND
     1    1    2 2
     2    1    6 1
     3    2    3 1
     4    2    8 1
     5    3    4 2
     6    3   25 1
     7    4    5 1
     8    5    6 2
     9    6   10 1
    10    7   25 1
    11    8    9 1
    12    9   26 1
    13   10   11 1
    14   11   12 1
    15   11   18 1
    16   12   13 1
    17   13   14 1
    18   13   21 1
    19   14   15 1
    20   14   22 1
    21   15   16 1
    22   16   17 1
    23   16   31 1
    24   17   23 2
    25   17   24 am
    26   18   19 1
    27   18   20 1
    28   24   33 1
    29   26   27 1
    30   27   28 1
    31   28   29 1
    32   30   31 1
    33   31   32 1
    34   33   35 1
    35   34   35 1
    36   34   36 1
    37   36   37 2
    38   36   38 am
    39   38   39 1
    40   38   40 1
    41    1   41 1
    42    4   42 1
    43    5   43 1
    44    7   44 1
    45    7   45 1
    46    7   46 1
    47    9   47 1
    48    9   48 1
    49   10   49 1
    50   10   50 1
    51   11   51 1
    52   12   52 1
    53   12   53 1
    54   13   54 1
    55   14   55 1
    56   15   56 1
    57   15   57 1
    58   16   58 1
    59   18   59 1
    60   19   60 1
    61   19   61 1
    62   19   62 1
    63   20   63 1
    64   20   64 1
    65   20   65 1
    66   21   66 1
    67   21   67 1
    68   21   68 1
    69   22   69 1
    70   24   70 1
    71   26   71 1
    72   26   72 1
    73   27   73 1
    74   27   74 1
    75   29   75 1
    76   29   76 1
    77   29   77 1
    78   30   78 1
    79   30   79 1
    80   30   80 1
    81   31   81 1
    82   32   82 1
    83   32   83 1
    84   32   84 1
    85   33   85 1
    86   33   86 1
    87   34   87 1
    88   34   88 1
    89   35   89 1
    90   35   90 1
    91   39   91 1
    92   39   92 1
    93   39   93 1
    94   40   94 1
    95   40   95 1
    96   40   96 1
@<TRIPOS>PROPERTY_DATA
  Total_Score	| 11.9961
  Crash		| -4.4781
  Polar		| 4.6217
  FragIndex	| 1
  FragRMSD	| 1.212

