@<TRIPOS>MOLECULE
BindingDB_50329044
 57 61 0 0 0
SMALL
NO_CHARGES


@<TRIPOS>ATOM
1    C        -8.5743  -26.3759   -3.5185  C     
2    C        -9.7380  -25.7797   -4.0470  C     
3    C       -10.2725  -24.6081   -3.4678  C     
4    C        -7.9384  -25.8000   -2.3988  C     
5    N        -9.9502  -22.9678   -1.5425  N     
6    C        -9.0371  -22.9289   -0.5731  C     
7    C        -8.0995  -23.8682   -0.7510  C     
8    C        -8.4896  -24.6315   -1.8221  C     
9    C        -9.6496  -24.0342   -2.3248  C     
10   C       -11.0035  -22.0752   -1.6514  C     
11   C       -12.3076  -22.5324   -1.9388  C     
12   C       -13.3793  -21.6295   -2.1205  C     
13   C       -13.1486  -20.2458   -2.1000  C     
14   C       -11.8499  -19.7641   -1.8574  C     
15   C       -10.7894  -20.6672   -1.6365  C     
16   C        -6.9610  -23.9937   -0.0055  C     
17   N        -6.7242  -24.9511    0.9165  N     
18   O        -6.1190  -23.1299   -0.2307  O     
19   C        -7.6339  -26.0581    1.1521  C     
20   C        -7.7985  -26.3440    2.6630  C     
21   N        -6.5293  -26.5554    3.3818  N     
22   C        -5.2987  -26.0939    2.6975  C     
23   C        -5.5304  -24.8767    1.7542  C     
24   O        -9.1355  -22.0784    0.4497  O     
25   C        -9.2595  -22.6166    1.7058  C     
26   C        -8.1968  -22.2811    2.5860  C     
27   C        -8.2445  -22.6331    3.9426  C     
28   C        -9.3439  -23.3408    4.4435  C     
29   C       -10.3989  -23.6813    3.5887  C     
30   C       -10.3890  -23.3269    2.2069  C     
31   C       -11.6225  -23.6499    1.4098  C     
32   F        -7.1492  -21.6261    2.1576  F     
33   H        -8.2090  -27.2327   -3.9302  H     
34   H       -10.1938  -26.2016   -4.8651  H     
35   H       -11.1100  -24.1859   -3.8754  H     
36   H        -7.0945  -26.2314   -2.0083  H     
37   H       -12.5127  -23.5313   -1.9713  H     
38   H       -14.3228  -21.9886   -2.2876  H     
39   H       -13.9206  -19.5933   -2.2722  H     
40   H       -11.6740  -18.7503   -1.8573  H     
41   H        -9.8494  -20.2849   -1.4873  H     
42   H        -8.6339  -25.8904    0.7503  H     
43   H        -7.2199  -26.9480    0.6668  H     
44   H        -8.4072  -27.2360    2.7924  H     
45   H        -8.3130  -25.5112    3.1334  H     
46   H        -6.4597  -27.5651    3.5111  H     
47   H        -6.6111  -26.1089    4.3033  H     
48   H        -4.9230  -26.9286    2.1018  H     
49   H        -4.5418  -25.8645    3.4493  H     
50   H        -4.6386  -24.7655    1.1300  H     
51   H        -5.6061  -23.9857    2.3838  H     
52   H        -7.4877  -22.3694    4.5765  H     
53   H        -9.3741  -23.6079    5.4264  H     
54   H       -11.1871  -24.1970    3.9762  H     
55   H       -12.1234  -24.5525    1.8049  H     
56   H       -12.3367  -22.8169    1.5402  H     
57   H       -11.4559  -23.8412    0.3191  H     
@<TRIPOS>BOND
     1    5   10 1
     2    1    2 2
     3    7   16 1
     4    8    4 2
     5   16   17 1
     6    5    6 1
     7   16   18 2
     8   17   19 1
     9    7    8 1
    10    9    5 1
    11    4    1 1
    12    8    9 1
    13   10   11 2
    14   17   23 1
    15   19   20 1
    16   20   21 1
    17   21   22 1
    18   22   23 1
    19    6   24 1
    20   24   25 1
    21   11   12 1
    22    2    3 1
    23   25   26 2
    24   12   13 2
    25   26   27 1
    26    6    7 2
    27   27   28 2
    28   13   14 1
    29   28   29 1
    30    3    9 2
    31   29   30 2
    32   30   25 1
    33   14   15 2
    34   30   31 1
    35   15   10 1
    36   26   32 1
    37    1   33 1
    38    2   34 1
    39    3   35 1
    40    4   36 1
    41   11   37 1
    42   12   38 1
    43   13   39 1
    44   14   40 1
    45   15   41 1
    46   19   42 1
    47   19   43 1
    48   20   44 1
    49   20   45 1
    50   21   46 1
    51   21   47 1
    52   22   48 1
    53   22   49 1
    54   23   50 1
    55   23   51 1
    56   27   52 1
    57   28   53 1
    58   29   54 1
    59   31   55 1
    60   31   56 1
    61   31   57 1
@<TRIPOS>PROPERTY_DATA
  Total_Score	| 13.5491
  Crash		| -1.1413
  Polar		| 5.5970
  FragIndex	| 1
  FragRMSD	| 0.348

