@<TRIPOS>MOLECULE
BindingDB_50329038
 57 61 0 0 0
SMALL
NO_CHARGES


@<TRIPOS>ATOM
1    C        -8.3691  -26.3517   -3.5539  C     
2    C        -9.5570  -25.8032   -4.0836  C     
3    C       -10.1644  -24.6894   -3.4656  C     
4    C        -7.7767  -25.7870   -2.4082  C     
5    N        -9.9086  -23.0878   -1.5217  N     
6    C        -8.9881  -22.9913   -0.5447  C     
7    C        -8.0435  -23.9310   -0.7150  C     
8    C        -8.3916  -24.6759   -1.8031  C     
9    C        -9.5740  -24.1358   -2.3064  C     
10   C       -10.9946  -22.2645   -1.7004  C     
11   C       -10.8445  -20.8553   -1.7402  C     
12   C       -11.9684  -20.0167   -1.8458  C     
13   C       -13.2589  -20.5746   -1.9006  C     
14   C       -13.4229  -21.9692   -1.8837  C     
15   C       -12.2978  -22.8089   -1.7925  C     
16   C        -6.9258  -24.1054    0.0300  C     
17   N        -6.7129  -25.1414    0.8673  N     
18   O        -6.0724  -23.2453   -0.1580  O     
19   C        -7.6653  -26.2271    1.0577  C     
20   C        -7.9033  -26.5067    2.5617  C     
21   N        -6.6684  -26.5606    3.3806  N     
22   C        -5.3845  -26.3450    2.6746  C     
23   C        -5.4763  -25.1962    1.6320  C     
24   O        -8.9965  -22.0400    0.4135  O     
25   C        -9.5282  -22.4008    1.6321  C     
26   C       -10.9032  -22.7102    1.7535  C     
27   C       -11.4683  -23.0261    2.9985  C     
28   C       -10.6637  -23.0686    4.1473  C     
29   C        -9.3044  -22.7338    4.0503  C     
30   C        -8.7362  -22.3618    2.8102  C     
31   C        -7.3381  -21.8889    2.8301  C     
32   H        -7.9266  -27.1526   -4.0098  H     
33   H        -9.9784  -26.2132   -4.9196  H     
34   H       -11.0182  -24.2877   -3.8582  H     
35   H        -6.9137  -26.1771   -2.0283  H     
36   H        -9.9133  -20.4346   -1.6840  H     
37   H       -11.8526  -18.9996   -1.8691  H     
38   H       -14.0778  -19.9661   -1.9530  H     
39   H       -14.3604  -22.3748   -1.9271  H     
40   H       -12.4345  -23.8218   -1.7602  H     
41   H        -7.2633  -27.1327    0.5936  H     
42   H        -8.6376  -26.0452    0.5987  H     
43   H        -8.4235  -27.4597    2.6719  H     
44   H        -8.5510  -25.7286    2.9726  H     
45   H        -6.7560  -25.8738    4.1373  H     
46   H        -6.6402  -27.4907    3.8014  H     
47   H        -5.1054  -27.2694    2.1646  H     
48   H        -4.6076  -26.1234    3.4100  H     
49   H        -4.6305  -25.2955    0.9437  H     
50   H        -5.3665  -24.2564    2.1806  H     
51   H       -11.5077  -22.6936    0.9352  H     
52   H       -12.4662  -23.2226    3.0674  H     
53   H       -11.0716  -23.2986    5.0583  H     
54   H        -8.7351  -22.7418    4.9006  H     
55   H        -6.6991  -22.6748    3.2336  H     
56   H        -7.2642  -21.0036    3.4690  H     
57   H        -6.9706  -21.6182    1.8427  H     
@<TRIPOS>BOND
     1   15   10 1
     2    5   10 1
     3    1    2 2
     4    7   16 1
     5    8    4 2
     6   16   17 1
     7    5    6 1
     8   16   18 2
     9   17   19 1
    10    7    8 1
    11    9    5 1
    12    4    1 1
    13    8    9 1
    14   10   11 2
    15   17   23 1
    16   19   20 1
    17   20   21 1
    18   21   22 1
    19   22   23 1
    20    6   24 1
    21   24   25 1
    22   11   12 1
    23    2    3 1
    24   25   26 2
    25   12   13 2
    26   26   27 1
    27    6    7 2
    28   27   28 2
    29   13   14 1
    30   28   29 1
    31    3    9 2
    32   29   30 2
    33   30   25 1
    34   14   15 2
    35   30   31 1
    36    1   32 1
    37    2   33 1
    38    3   34 1
    39    4   35 1
    40   11   36 1
    41   12   37 1
    42   13   38 1
    43   14   39 1
    44   15   40 1
    45   19   41 1
    46   19   42 1
    47   20   43 1
    48   20   44 1
    49   21   45 1
    50   21   46 1
    51   22   47 1
    52   22   48 1
    53   23   49 1
    54   23   50 1
    55   26   51 1
    56   27   52 1
    57   28   53 1
    58   29   54 1
    59   31   55 1
    60   31   56 1
    61   31   57 1
@<TRIPOS>PROPERTY_DATA
  Total_Score	| 13.5303
  Crash		| -1.7585
  Polar		| 4.9900
  FragIndex	| 1
  FragRMSD	| 0.462

