@<TRIPOS>MOLECULE
BindingDB_50329021
 54 58 0 0 0
SMALL
NO_CHARGES


@<TRIPOS>ATOM
1    C        -8.3761  -26.4341   -3.5528  C     
2    C        -9.5776  -25.8771   -4.0394  C     
3    C       -10.1489  -24.7549   -3.4045  C     
4    C        -7.7354  -25.8704   -2.4312  C     
5    N        -9.8075  -23.1406   -1.4863  N     
6    C        -8.8483  -23.0380   -0.5561  C     
7    C        -7.9230  -23.9938   -0.7353  C     
8    C        -8.3163  -24.7487   -1.8052  C     
9    C        -9.5114  -24.2014   -2.2722  C     
10   C       -10.8874  -22.3038   -1.6270  C     
11   C       -12.1924  -22.8304   -1.7684  C     
12   C       -13.2982  -21.9795   -1.9432  C     
13   C       -13.1193  -20.5862   -1.9590  C     
14   C       -11.8326  -20.0451   -1.7913  C     
15   C       -10.7246  -20.8980   -1.6328  C     
16   C        -6.7900  -24.1637   -0.0067  C     
17   N        -6.5489  -25.2077    0.8141  N     
18   O        -5.9645  -23.2730   -0.1731  O     
19   C        -5.3035  -25.3297    1.5631  C     
20   C        -5.5949  -25.5072    3.0765  C     
21   N        -6.5338  -26.6285    3.3020  N     
22   C        -7.7841  -26.5166    2.5225  C     
23   C        -7.4831  -26.3086    1.0185  C     
24   O        -8.7865  -22.0530    0.3601  O     
25   C        -9.0801  -22.4443    1.6396  C     
26   C       -10.4102  -22.6664    2.0626  C     
27   C       -10.6847  -22.9970    3.4024  C     
28   C        -9.6351  -23.0852    4.3332  C     
29   C        -8.3100  -22.8440    3.9250  C     
30   C        -8.0348  -22.5185    2.5837  C     
31   F       -14.1418  -19.8010   -2.1464  F     
32   H        -7.9650  -27.2449   -4.0208  H     
33   H       -10.0335  -26.2863   -4.8587  H     
34   H       -11.0107  -24.3478   -3.7713  H     
35   H        -6.8645  -26.2732   -2.0791  H     
36   H       -12.3446  -23.8418   -1.7450  H     
37   H       -14.2319  -22.3783   -2.0616  H     
38   H       -11.6979  -19.0308   -1.7974  H     
39   H        -9.7923  -20.4851   -1.5419  H     
40   H        -4.6389  -24.4671    1.4557  H     
41   H        -4.7525  -26.2017    1.1985  H     
42   H        -4.6694  -25.7060    3.6191  H     
43   H        -6.0266  -24.5871    3.4717  H     
44   H        -6.7960  -26.6681    4.2914  H     
45   H        -6.0758  -27.5062    3.0381  H     
46   H        -8.3822  -25.6875    2.9063  H     
47   H        -8.3522  -27.4374    2.6585  H     
48   H        -7.0336  -27.2219    0.6217  H     
49   H        -8.4396  -26.1810    0.5138  H     
50   H       -11.1807  -22.5882    1.3977  H     
51   H       -11.6486  -23.1568    3.7039  H     
52   H        -9.8339  -23.3310    5.3047  H     
53   H        -7.5507  -22.8958    4.6063  H     
54   H        -7.0689  -22.3357    2.2969  H     
@<TRIPOS>BOND
     1   15   10 1
     2    5   10 1
     3    1    2 2
     4    7   16 1
     5    8    4 2
     6   16   17 1
     7    5    6 1
     8   16   18 2
     9   17   19 1
    10    7    8 1
    11    9    5 1
    12    4    1 1
    13    8    9 1
    14   10   11 2
    15   17   23 1
    16   19   20 1
    17   20   21 1
    18   21   22 1
    19   22   23 1
    20    6   24 1
    21   24   25 1
    22   11   12 1
    23    2    3 1
    24   25   26 2
    25   12   13 2
    26   26   27 1
    27    6    7 2
    28   27   28 2
    29   13   14 1
    30   28   29 1
    31    3    9 2
    32   29   30 2
    33   30   25 1
    34   14   15 2
    35   13   31 1
    36    1   32 1
    37    2   33 1
    38    3   34 1
    39    4   35 1
    40   11   36 1
    41   12   37 1
    42   14   38 1
    43   15   39 1
    44   19   40 1
    45   19   41 1
    46   20   42 1
    47   20   43 1
    48   21   44 1
    49   21   45 1
    50   22   46 1
    51   22   47 1
    52   23   48 1
    53   23   49 1
    54   26   50 1
    55   27   51 1
    56   28   52 1
    57   29   53 1
    58   30   54 1
@<TRIPOS>PROPERTY_DATA
  Total_Score	| 13.7823
  Crash		| -0.9674
  Polar		| 5.6383
  FragIndex	| 1
  FragRMSD	| 0.119

