@<TRIPOS>MOLECULE
BindingDB_50329043
 57 61 0 0 0
SMALL
NO_CHARGES


@<TRIPOS>ATOM
1    C        -8.3918  -26.2219   -3.5622  C     
2    C        -9.5585  -25.6467   -4.1132  C     
3    C       -10.1469  -24.5189   -3.5062  C     
4    C        -7.8004  -25.6658   -2.4086  C     
5    N        -9.8958  -22.9206   -1.5638  N     
6    C        -9.0196  -22.8578   -0.5543  C     
7    C        -8.0631  -23.7891   -0.7184  C     
8    C        -8.3977  -24.5343   -1.8164  C     
9    C        -9.5625  -23.9731   -2.3419  C     
10   C       -10.9666  -22.0696   -1.7442  C     
11   C       -12.2718  -22.5702   -1.9682  C     
12   C       -13.3734  -21.6909   -2.0971  C     
13   C       -13.1752  -20.3031   -2.0058  C     
14   C       -11.8816  -19.7885   -1.7866  C     
15   C       -10.7886  -20.6642   -1.6542  C     
16   C        -6.9349  -23.9466    0.0235  C     
17   N        -6.8390  -24.6831    1.1471  N     
18   O        -5.9625  -23.3445   -0.4283  O     
19   C        -5.5612  -24.7467    1.8561  C     
20   C        -5.6226  -25.4316    3.2515  C     
21   N        -6.4329  -26.6792    3.2582  N     
22   C        -7.5198  -26.7825    2.2553  C     
23   C        -7.9667  -25.4131    1.7023  C     
24   O        -9.1185  -21.9475    0.4368  O     
25   C        -9.3730  -22.4265    1.7019  C     
26   C        -8.4846  -21.9999    2.7157  C     
27   C        -8.6553  -22.4161    4.0480  C     
28   C        -9.7301  -23.2503    4.3900  C     
29   C       -10.6348  -23.6563    3.3946  C     
30   C       -10.4902  -23.2395    2.0504  C     
31   C       -11.4931  -23.6894    1.0496  C     
32   F        -7.8014  -22.0703    4.9670  F     
33   H        -7.9767  -27.0438   -4.0008  H     
34   H        -9.9748  -26.0557   -4.9528  H     
35   H       -10.9912  -24.1138   -3.9084  H     
36   H        -6.9554  -26.0813   -2.0107  H     
37   H       -12.4417  -23.5777   -2.0001  H     
38   H       -14.3100  -22.0691   -2.2570  H     
39   H       -13.9667  -19.6654   -2.1189  H     
40   H       -11.7387  -18.7810   -1.7245  H     
41   H        -9.8599  -20.2731   -1.5028  H     
42   H        -4.8348  -25.2806    1.2340  H     
43   H        -5.1662  -23.7422    2.0148  H     
44   H        -6.0840  -24.7394    3.9600  H     
45   H        -4.6206  -25.6573    3.6157  H     
46   H        -6.8388  -26.7881    4.1959  H     
47   H        -5.8394  -27.4953    3.0859  H     
48   H        -7.1527  -27.3931    1.4240  H     
49   H        -8.3695  -27.2951    2.7142  H     
50   H        -8.3950  -24.8557    2.5342  H     
51   H        -8.7499  -25.6144    0.9757  H     
52   H        -7.6925  -21.3951    2.4824  H     
53   H        -9.8587  -23.5606    5.3540  H     
54   H       -11.4222  -24.2393    3.6772  H     
55   H       -11.9069  -22.8182    0.5557  H     
56   H       -11.0322  -24.3256    0.2864  H     
57   H       -12.3259  -24.2352    1.4930  H     
@<TRIPOS>BOND
     1    5   10 1
     2    1    2 2
     3    7   16 1
     4    8    4 2
     5   16   17 1
     6    5    6 1
     7   16   18 2
     8   17   19 1
     9    7    8 1
    10    9    5 1
    11    4    1 1
    12    8    9 1
    13   10   11 2
    14   17   23 1
    15   19   20 1
    16   20   21 1
    17   21   22 1
    18   22   23 1
    19    6   24 1
    20   24   25 1
    21   11   12 1
    22    2    3 1
    23   25   26 2
    24   12   13 2
    25   26   27 1
    26    6    7 2
    27   27   28 2
    28   13   14 1
    29   28   29 1
    30    3    9 2
    31   29   30 2
    32   30   25 1
    33   14   15 2
    34   30   31 1
    35   15   10 1
    36   27   32 1
    37    1   33 1
    38    2   34 1
    39    3   35 1
    40    4   36 1
    41   11   37 1
    42   12   38 1
    43   13   39 1
    44   14   40 1
    45   15   41 1
    46   19   42 1
    47   19   43 1
    48   20   44 1
    49   20   45 1
    50   21   46 1
    51   21   47 1
    52   22   48 1
    53   22   49 1
    54   23   50 1
    55   23   51 1
    56   26   52 1
    57   28   53 1
    58   29   54 1
    59   31   55 1
    60   31   56 1
    61   31   57 1
@<TRIPOS>PROPERTY_DATA
  Total_Score	| 12.1525
  Crash		| -1.6224
  Polar		| 5.1126
  FragIndex	| 1
  FragRMSD	| 0.457

