@<TRIPOS>MOLECULE
BindingDB_50329019
 57 61 0 0 0
SMALL
NO_CHARGES


@<TRIPOS>ATOM
1    N        -6.2716  -25.1823    0.7327  N     
2    C        -7.2113  -26.1876    1.1963  C     
3    C        -7.5221  -26.0769    2.7065  C     
4    N        -6.5102  -26.6841    3.5875  N     
5    C        -5.1361  -26.1419    3.6643  C     
6    C        -4.7501  -24.9728    2.7220  C     
7    C        -4.9037  -25.3184    1.2181  C     
8    C        -8.4724  -26.6367   -3.4596  C     
9    C        -9.5596  -25.9533   -4.0389  C     
10   C       -10.0567  -24.7745   -3.4492  C     
11   C        -7.8399  -26.1222   -2.3075  C     
12   N        -9.6557  -23.1647   -1.5587  N     
13   C        -8.7103  -23.0868   -0.6205  C     
14   C        -7.8203  -24.0807   -0.7686  C     
15   C        -8.2776  -24.8806   -1.7866  C     
16   C        -9.3993  -24.2500   -2.3156  C     
17   C       -10.7486  -22.3468   -1.6585  C     
18   C       -12.0478  -22.9092   -1.6624  C     
19   C       -13.1840  -22.0819   -1.7124  C     
20   C       -13.0390  -20.6821   -1.7440  C     
21   C       -11.7515  -20.1143   -1.7368  C     
22   C       -10.6104  -20.9392   -1.6987  C     
23   C        -6.6289  -24.1938   -0.1163  C     
24   O        -5.8497  -23.2843   -0.3767  O     
25   O        -8.6784  -22.1221    0.3171  O     
26   C        -8.9595  -22.5389    1.5974  C     
27   C       -10.1556  -23.2138    1.9495  C     
28   C       -10.4088  -23.5707    3.2879  C     
29   C        -9.4894  -23.2228    4.2905  C     
30   C        -8.3095  -22.5347    3.9563  C     
31   C        -8.0410  -22.1998    2.6130  C     
32   H        -6.8347  -27.1882    0.9659  H     
33   H        -8.1632  -26.1061    0.6759  H     
34   H        -7.6896  -25.0406    2.9941  H     
35   H        -8.4485  -26.6222    2.9023  H     
36   H        -6.4660  -27.6759    3.3465  H     
37   H        -6.9043  -26.6260    4.5252  H     
38   H        -4.4506  -26.9739    3.4907  H     
39   H        -4.9812  -25.8116    4.6937  H     
40   H        -5.3473  -24.0899    2.9589  H     
41   H        -3.7044  -24.7168    2.9172  H     
42   H        -4.2076  -24.6833    0.6724  H     
43   H        -4.5515  -26.3372    1.0337  H     
44   H        -8.1404  -27.5091   -3.8720  H     
45   H       -10.0112  -26.3319   -4.8764  H     
46   H       -10.8639  -24.2944   -3.8521  H     
47   H        -7.0927  -26.6553   -1.8597  H     
48   H       -12.1703  -23.9264   -1.6152  H     
49   H       -14.1181  -22.5003   -1.7185  H     
50   H       -13.8660  -20.0815   -1.7703  H     
51   H       -11.6499  -19.0985   -1.7490  H     
52   H        -9.6790  -20.5134   -1.6928  H     
53   H       -10.8384  -23.4641    1.2319  H     
54   H       -11.2594  -24.0812    3.5287  H     
55   H        -9.6757  -23.4803    5.2624  H     
56   H        -7.6430  -22.2806    4.6874  H     
57   H        -7.1860  -21.6899    2.3766  H     
@<TRIPOS>BOND
     1    1    2 1
     2    2    3 1
     3    3    4 1
     4    4    5 1
     5    5    6 1
     6    6    7 1
     7    1    7 1
     8   23    1 1
     9   12   13 1
    10   23   24 2
    11   14   15 1
    12   16   12 1
    13   11    8 1
    14   15   16 1
    15   17   18 2
    16   13   25 1
    17   25   26 1
    18   18   19 1
    19    9   10 1
    20   26   27 2
    21   19   20 2
    22   27   28 1
    23   13   14 2
    24   28   29 2
    25   20   21 1
    26   29   30 1
    27   10   16 2
    28   30   31 2
    29   31   26 1
    30   21   22 2
    31   22   17 1
    32   12   17 1
    33    8    9 2
    34   14   23 1
    35   15   11 2
    36    2   32 1
    37    2   33 1
    38    3   34 1
    39    3   35 1
    40    4   36 1
    41    4   37 1
    42    5   38 1
    43    5   39 1
    44    6   40 1
    45    6   41 1
    46    7   42 1
    47    7   43 1
    48    8   44 1
    49    9   45 1
    50   10   46 1
    51   11   47 1
    52   18   48 1
    53   19   49 1
    54   20   50 1
    55   21   51 1
    56   22   52 1
    57   27   53 1
    58   28   54 1
    59   29   55 1
    60   30   56 1
    61   31   57 1
@<TRIPOS>PROPERTY_DATA
  Total_Score	| 13.8137
  Crash		| -1.4889
  Polar		| 6.7898
  FragIndex	| 1
  FragRMSD	| 0.813

