@<TRIPOS>MOLECULE
BindingDB_50329040
 57 61 0 0 0
SMALL
NO_CHARGES


@<TRIPOS>ATOM
1    C        -8.4658  -26.3317   -3.6249  C     
2    C        -9.6193  -25.7211   -4.1609  C     
3    C       -10.1907  -24.6003   -3.5273  C     
4    C        -7.8618  -25.8136   -2.4600  C     
5    N        -9.9014  -23.0417   -1.5724  N     
6    C        -8.9817  -22.9677   -0.6047  C     
7    C        -8.0679  -23.9409   -0.7469  C     
8    C        -8.4383  -24.6819   -1.8379  C     
9    C        -9.5931  -24.0944   -2.3546  C     
10   C       -10.9553  -22.1867   -1.7408  C     
11   C       -10.7788  -20.7807   -1.7157  C     
12   C       -11.8785  -19.9144   -1.8459  C     
13   C       -13.1769  -20.4393   -2.0113  C     
14   C       -13.3645  -21.8367   -2.0402  C     
15   C       -12.2651  -22.7015   -1.9126  C     
16   C        -6.9175  -24.1129   -0.0359  C     
17   N        -6.6205  -25.1879    0.7284  N     
18   O        -6.0921  -23.2250   -0.2272  O     
19   C        -7.5563  -26.2702    1.0039  C     
20   C        -7.7579  -26.4322    2.5286  C     
21   N        -6.4765  -26.5573    3.2476  N     
22   C        -5.4550  -25.5413    2.8937  C     
23   C        -5.3138  -25.3619    1.3578  C     
24   O        -8.9447  -22.0099    0.3335  O     
25   C        -9.3989  -22.3852    1.5707  C     
26   C       -10.7611  -22.6458    1.8374  C     
27   C       -11.1809  -22.9787    3.1356  C     
28   C       -10.2430  -23.0407    4.1820  C     
29   C        -8.8780  -22.7605    3.9404  C     
30   C        -8.4681  -22.4411    2.6258  C     
31   C        -7.8944  -22.7107    5.0456  C     
32   H        -8.0528  -27.1462   -4.0912  H     
33   H       -10.0327  -26.0927   -5.0171  H     
34   H       -11.0184  -24.1577   -3.9204  H     
35   H        -7.0213  -26.2515   -2.0730  H     
36   H        -9.8458  -20.3814   -1.6229  H     
37   H       -11.7406  -18.8981   -1.8298  H     
38   H       -13.9754  -19.8119   -2.1156  H     
39   H       -14.3112  -22.2157   -2.1561  H     
40   H       -12.4217  -23.7117   -1.9234  H     
41   H        -8.5407  -26.1278    0.5540  H     
42   H        -7.1512  -27.2005    0.5968  H     
43   H        -8.3064  -25.5737    2.9194  H     
44   H        -8.3403  -27.3333    2.7210  H     
45   H        -6.6797  -26.4873    4.2476  H     
46   H        -6.0852  -27.4872    3.0513  H     
47   H        -4.4976  -25.8626    3.3080  H     
48   H        -5.7310  -24.5873    3.3548  H     
49   H        -4.6295  -24.5263    1.1772  H     
50   H        -4.8382  -26.2527    0.9373  H     
51   H       -11.4557  -22.5842    1.0943  H     
52   H       -12.1692  -23.1642    3.3187  H     
53   H       -10.5704  -23.2793    5.1243  H     
54   H        -7.4859  -22.2259    2.4370  H     
55   H        -8.2842  -23.1583    5.9591  H     
56   H        -7.6390  -21.6632    5.2424  H     
57   H        -6.9792  -23.2521    4.7656  H     
@<TRIPOS>BOND
     1   15   10 1
     2    5   10 1
     3    1    2 2
     4    7   16 1
     5    8    4 2
     6   16   17 1
     7    5    6 1
     8   16   18 2
     9   17   19 1
    10    7    8 1
    11    9    5 1
    12    4    1 1
    13    8    9 1
    14   10   11 2
    15   17   23 1
    16   19   20 1
    17   20   21 1
    18   21   22 1
    19   22   23 1
    20    6   24 1
    21   24   25 1
    22   11   12 1
    23    2    3 1
    24   25   26 2
    25   12   13 2
    26   26   27 1
    27    6    7 2
    28   27   28 2
    29   13   14 1
    30   28   29 1
    31    3    9 2
    32   29   30 2
    33   30   25 1
    34   14   15 2
    35   29   31 1
    36    1   32 1
    37    2   33 1
    38    3   34 1
    39    4   35 1
    40   11   36 1
    41   12   37 1
    42   13   38 1
    43   14   39 1
    44   15   40 1
    45   19   41 1
    46   19   42 1
    47   20   43 1
    48   20   44 1
    49   21   45 1
    50   21   46 1
    51   22   47 1
    52   22   48 1
    53   23   49 1
    54   23   50 1
    55   26   51 1
    56   27   52 1
    57   28   53 1
    58   30   54 1
    59   31   55 1
    60   31   56 1
    61   31   57 1
@<TRIPOS>PROPERTY_DATA
  Total_Score	| 13.3473
  Crash		| -1.8694
  Polar		| 5.3456
  FragIndex	| 1
  FragRMSD	| 0.293

