@<TRIPOS>MOLECULE
BindingDB_50329042
 60 64 0 0 0
SMALL
NO_CHARGES


@<TRIPOS>ATOM
1    C        -8.4493  -26.1234   -3.6439  C     
2    C        -9.6266  -25.5608   -4.1782  C     
3    C       -10.2546  -24.4794   -3.5242  C     
4    C        -7.8798  -25.6021   -2.4635  C     
5    N       -10.0619  -22.9689   -1.5198  N     
6    C        -9.1918  -22.9050   -0.5033  C     
7    C        -8.1992  -23.7977   -0.6880  C     
8    C        -8.5119  -24.5201   -1.8141  C     
9    C        -9.6928  -23.9790   -2.3325  C     
10   C       -11.1096  -22.1129   -1.7436  C     
11   C       -10.8976  -20.7145   -1.6731  C     
12   C       -11.9657  -19.8189   -1.8840  C     
13   C       -13.2501  -20.3058   -2.1834  C     
14   C       -13.4658  -21.6901   -2.2688  C     
15   C       -12.4043  -22.5890   -2.0511  C     
16   C        -7.0667  -23.9584    0.0522  C     
17   N        -6.8245  -24.9634    0.9219  N     
18   O        -6.1746  -23.1615   -0.2222  O     
19   C        -5.5433  -25.0334    1.6213  C     
20   C        -5.3692  -26.2460    2.5744  C     
21   N        -6.5826  -26.5436    3.3630  N     
22   C        -7.8770  -26.4020    2.6608  C     
23   C        -7.7760  -26.0328    1.1577  C     
24   O        -9.3760  -22.0031    0.4862  O     
25   C        -9.4385  -22.4245    1.7982  C     
26   C        -8.5401  -21.8038    2.7076  C     
27   C        -8.5383  -22.2020    4.0633  C     
28   C        -9.4458  -23.1616    4.5317  C     
29   C       -10.4129  -23.6813    3.6621  C     
30   C       -10.4460  -23.3010    2.3012  C     
31   C       -11.6243  -23.7411    1.5198  C     
32   C        -7.6767  -20.6794    2.2657  C     
33   H        -8.0002  -26.9082   -4.1247  H     
34   H       -10.0252  -25.9310   -5.0418  H     
35   H       -11.1012  -24.0676   -3.9159  H     
36   H        -7.0215  -26.0081   -2.0854  H     
37   H        -9.9677  -20.3366   -1.4790  H     
38   H       -11.8092  -18.8056   -1.8350  H     
39   H       -14.0197  -19.6558   -2.3479  H     
40   H       -14.3957  -22.0476   -2.4915  H     
41   H       -12.5786  -23.5947   -2.1084  H     
42   H        -4.7322  -25.0747    0.8884  H     
43   H        -5.4172  -24.1234    2.2114  H     
44   H        -5.1247  -27.1319    1.9832  H     
45   H        -4.5394  -26.0694    3.2618  H     
46   H        -6.6122  -25.9627    4.2077  H     
47   H        -6.5342  -27.5258    3.6493  H     
48   H        -8.4487  -25.6317    3.1770  H     
49   H        -8.4133  -27.3441    2.7590  H     
50   H        -8.7830  -25.7974    0.8136  H     
51   H        -7.4412  -26.9138    0.6037  H     
52   H        -7.8883  -21.7793    4.7277  H     
53   H        -9.4335  -23.4492    5.5105  H     
54   H       -11.1014  -24.3386    4.0355  H     
55   H       -12.5131  -23.2376    1.9065  H     
56   H       -11.7676  -24.8183    1.6125  H     
57   H       -11.5462  -23.4999    0.4665  H     
58   H        -7.1277  -20.2355    3.0938  H     
59   H        -6.9569  -21.0250    1.5241  H     
60   H        -8.2962  -19.8964    1.8219  H     
@<TRIPOS>BOND
     1    5   10 1
     2    1    2 2
     3    7   16 1
     4    8    4 2
     5   16   17 1
     6    5    6 1
     7   16   18 2
     8   17   19 1
     9    7    8 1
    10    9    5 1
    11    4    1 1
    12    8    9 1
    13   10   11 2
    14   17   23 1
    15   19   20 1
    16   20   21 1
    17   21   22 1
    18   22   23 1
    19    6   24 1
    20   24   25 1
    21   11   12 1
    22    2    3 1
    23   25   26 2
    24   12   13 2
    25   26   27 1
    26    6    7 2
    27   27   28 2
    28   13   14 1
    29   28   29 1
    30    3    9 2
    31   29   30 2
    32   30   25 1
    33   14   15 2
    34   30   31 1
    35   15   10 1
    36   26   32 1
    37    1   33 1
    38    2   34 1
    39    3   35 1
    40    4   36 1
    41   11   37 1
    42   12   38 1
    43   13   39 1
    44   14   40 1
    45   15   41 1
    46   19   42 1
    47   19   43 1
    48   20   44 1
    49   20   45 1
    50   21   46 1
    51   21   47 1
    52   22   48 1
    53   22   49 1
    54   23   50 1
    55   23   51 1
    56   27   52 1
    57   28   53 1
    58   29   54 1
    59   31   55 1
    60   31   56 1
    61   31   57 1
    62   32   58 1
    63   32   59 1
    64   32   60 1
@<TRIPOS>PROPERTY_DATA
  Total_Score	| 13.2447
  Crash		| -2.1239
  Polar		| 5.0774
  FragIndex	| 1
  FragRMSD	| 0.452

