@<TRIPOS>MOLECULE
BindingDB_50329036
 57 61 0 0 0
SMALL
NO_CHARGES


@<TRIPOS>ATOM
1    C        -8.6180  -26.7850   -3.4212  C     
2    C        -9.7845  -26.2180   -3.9776  C     
3    C       -10.2936  -25.0008   -3.4814  C     
4    C        -7.9487  -26.1330   -2.3601  C     
5    N        -9.8278  -23.1618   -1.8220  N     
6    C        -8.8397  -22.9831   -0.9334  C     
7    C        -8.0009  -24.0326   -0.9323  C     
8    C        -8.4532  -24.9067   -1.8831  C     
9    C        -9.6109  -24.3461   -2.4332  C     
10   C       -10.8911  -22.3043   -2.0089  C     
11   C       -12.1765  -22.8000   -2.3402  C     
12   C       -13.2804  -21.9302   -2.4669  C     
13   C       -13.1235  -20.5512   -2.2455  C     
14   C       -11.8546  -20.0391   -1.9255  C     
15   C       -10.7477  -20.9056   -1.8249  C     
16   C        -6.8931  -24.1650   -0.1495  C     
17   N        -6.6392  -25.1905    0.6940  N     
18   O        -6.1052  -23.2295   -0.2599  O     
19   C        -5.3903  -25.2823    1.4437  C     
20   C        -5.6615  -25.4894    2.9583  C     
21   N        -6.5668  -26.6417    3.1773  N     
22   C        -7.8182  -26.5616    2.4003  C     
23   C        -7.5522  -26.3062    0.8930  C     
24   O        -8.6947  -21.8528   -0.2242  O     
25   C        -8.7229  -21.9900    1.1387  C     
26   C        -7.9068  -21.1342    1.8959  C     
27   C        -7.9121  -21.2027    3.2963  C     
28   C        -8.7308  -22.1327    3.9546  C     
29   C        -9.5886  -22.9840    3.2191  C     
30   C        -9.5849  -22.8899    1.8066  C     
31   C       -10.4657  -23.9406    3.9393  C     
32   F       -11.2985  -23.2537    4.7885  F     
33   F       -11.2545  -24.7153    3.1191  F     
34   F        -9.7000  -24.8036    4.6813  F     
35   H        -8.2581  -27.6681   -3.7889  H     
36   H       -10.2615  -26.6954   -4.7489  H     
37   H       -11.1386  -24.5950   -3.8897  H     
38   H        -7.0990  -26.5406   -1.9654  H     
39   H       -12.3241  -23.8045   -2.4683  H     
40   H       -14.2026  -22.2998   -2.7065  H     
41   H       -13.9258  -19.9217   -2.3188  H     
42   H       -11.7387  -19.0392   -1.7584  H     
43   H        -9.8293  -20.5084   -1.6129  H     
44   H        -4.8159  -26.1323    1.0671  H     
45   H        -4.7462  -24.4057    1.3432  H     
46   H        -4.7206  -25.6785    3.4804  H     
47   H        -6.1095  -24.5852    3.3806  H     
48   H        -6.0814  -27.5067    2.9185  H     
49   H        -6.8277  -26.6935    4.1678  H     
50   H        -8.3500  -27.5060    2.5261  H     
51   H        -8.4357  -25.7601    2.8099  H     
52   H        -8.5216  -26.1590    0.4142  H     
53   H        -7.1015  -27.2065    0.4668  H     
54   H        -7.3018  -20.4600    1.4234  H     
55   H        -7.3263  -20.5671    3.8384  H     
56   H        -8.7089  -22.1755    4.9756  H     
57   H       -10.2013  -23.4846    1.2476  H     
@<TRIPOS>BOND
     1    7   16 1
     2    8    4 2
     3   16   17 1
     4    5    6 1
     5   16   18 2
     6   17   19 1
     7    7    8 1
     8    9    5 1
     9    4    1 1
    10    8    9 1
    11   10   11 2
    12   17   23 1
    13   19   20 1
    14   20   21 1
    15   21   22 1
    16   22   23 1
    17    6   24 1
    18   24   25 1
    19   11   12 1
    20    2    3 1
    21   25   26 2
    22   12   13 2
    23   26   27 1
    24    6    7 2
    25   27   28 2
    26   13   14 1
    27   28   29 1
    28    3    9 2
    29   29   30 2
    30   30   25 1
    31   14   15 2
    32   29   31 1
    33   15   10 1
    34   31   32 1
    35    5   10 1
    36   31   33 1
    37    1    2 2
    38   31   34 1
    39    1   35 1
    40    2   36 1
    41    3   37 1
    42    4   38 1
    43   11   39 1
    44   12   40 1
    45   13   41 1
    46   14   42 1
    47   15   43 1
    48   19   44 1
    49   19   45 1
    50   20   46 1
    51   20   47 1
    52   21   48 1
    53   21   49 1
    54   22   50 1
    55   22   51 1
    56   23   52 1
    57   23   53 1
    58   26   54 1
    59   27   55 1
    60   28   56 1
    61   30   57 1
@<TRIPOS>PROPERTY_DATA
  Total_Score	| 12.0695
  Crash		| -3.0518
  Polar		| 5.5470
  FragIndex	| 1
  FragRMSD	| 0.657

