@<TRIPOS>MOLECULE
BindingDB_50329049
 57 61 0 0 0
SMALL
NO_CHARGES


@<TRIPOS>ATOM
1    C        -8.3180  -26.1996   -3.3968  C     
2    C        -9.5233  -25.6739   -3.9116  C     
3    C       -10.1308  -24.5572   -3.2994  C     
4    C        -7.7121  -25.6178   -2.2632  C     
5    N        -9.8640  -22.9177   -1.3995  N     
6    C        -8.9360  -22.7899   -0.4421  C     
7    C        -8.0019  -23.7480   -0.5643  C     
8    C        -8.3424  -24.5166   -1.6438  C     
9    C        -9.5314  -23.9883   -2.1551  C     
10   C       -10.9502  -22.0931   -1.5776  C     
11   C       -12.2506  -22.6319   -1.7226  C     
12   C       -13.3661  -21.7887   -1.8889  C     
13   C       -13.2011  -20.3928   -1.8963  C     
14   C       -11.9175  -19.8409   -1.7414  C     
15   C       -10.7998  -20.6849   -1.5914  C     
16   C        -6.9286  -23.9066    0.2553  C     
17   N        -6.9596  -24.5387    1.4452  N     
18   O        -5.9336  -23.3009   -0.1279  O     
19   C        -8.0806  -25.3526    1.8968  C     
20   C        -7.5770  -26.7933    2.1758  C     
21   N        -6.4713  -26.7661    3.1573  N     
22   C        -5.3455  -25.8587    2.7966  C     
23   C        -5.8664  -24.4502    2.4072  C     
24   O        -8.9345  -21.7890    0.4630  O     
25   C        -9.2256  -22.1744    1.7458  C     
26   C       -10.5384  -22.5003    2.1605  C     
27   C       -10.7789  -22.9250    3.4790  C     
28   C        -9.7156  -23.0153    4.3971  C     
29   C        -8.4163  -22.6355    4.0103  C     
30   C        -8.1776  -22.2035    2.6920  C     
31   C        -4.3425  -25.8048    3.9766  C     
32   H        -7.8749  -26.9968   -3.8600  H     
33   H        -9.9498  -26.0945   -4.7411  H     
34   H       -10.9891  -24.1651   -3.6924  H     
35   H        -6.8223  -25.9810   -1.9111  H     
36   H       -12.3941  -23.6451   -1.6943  H     
37   H       -14.2998  -22.1903   -1.9993  H     
38   H       -14.0111  -19.7809   -2.0190  H     
39   H       -11.7957  -18.8246   -1.7453  H     
40   H        -9.8706  -20.2643   -1.5016  H     
41   H        -8.4974  -24.9374    2.8156  H     
42   H        -8.9052  -25.4224    1.1854  H     
43   H        -8.3910  -27.4021    2.5841  H     
44   H        -7.2345  -27.2554    1.2407  H     
45   H        -6.8597  -26.5068    4.0756  H     
46   H        -6.1047  -27.7188    3.2120  H     
47   H        -4.8265  -26.2784    1.9261  H     
48   H        -5.0183  -23.8601    2.0476  H     
49   H        -6.2345  -23.9465    3.3070  H     
50   H       -11.3168  -22.4489    1.4989  H     
51   H       -11.7264  -23.1733    3.7672  H     
52   H        -9.8908  -23.3521    5.3440  H     
53   H        -7.6451  -22.6862    4.6818  H     
54   H        -7.2289  -21.9436    2.4112  H     
55   H        -3.9033  -26.7926    4.1340  H     
56   H        -3.5359  -25.0954    3.7687  H     
57   H        -4.8496  -25.4953    4.8966  H     
@<TRIPOS>BOND
     1   15   10 1
     2    5   10 1
     3    1    2 2
     4    7   16 1
     5    8    4 2
     6   16   17 1
     7    5    6 1
     8   16   18 2
     9   17   19 1
    10    7    8 1
    11    9    5 1
    12    4    1 1
    13    8    9 1
    14   10   11 2
    15   17   23 1
    16   19   20 1
    17   20   21 1
    18   21   22 1
    19   22   23 1
    20    6   24 1
    21   24   25 1
    22   11   12 1
    23    2    3 1
    24   25   26 2
    25   12   13 2
    26   26   27 1
    27    6    7 2
    28   27   28 2
    29   13   14 1
    30   28   29 1
    31    3    9 2
    32   29   30 2
    33   30   25 1
    34   14   15 2
    35   22   31 1
    36    1   32 1
    37    2   33 1
    38    3   34 1
    39    4   35 1
    40   11   36 1
    41   12   37 1
    42   13   38 1
    43   14   39 1
    44   15   40 1
    45   19   41 1
    46   19   42 1
    47   20   43 1
    48   20   44 1
    49   21   45 1
    50   21   46 1
    51   22   47 1
    52   23   48 1
    53   23   49 1
    54   26   50 1
    55   27   51 1
    56   28   52 1
    57   29   53 1
    58   30   54 1
    59   31   55 1
    60   31   56 1
    61   31   57 1
@<TRIPOS>PROPERTY_DATA
  Total_Score	| 12.9094
  Crash		| -1.1222
  Polar		| 5.0729
  FragIndex	| 1
  FragRMSD	| 0.489

