@<TRIPOS>MOLECULE
BindingDB_50329041
 54 58 0 0 0
SMALL
NO_CHARGES


@<TRIPOS>ATOM
1    C        -8.3876  -26.3219   -3.5298  C     
2    C        -9.6068  -25.7847   -3.9963  C     
3    C       -10.1793  -24.6653   -3.3553  C     
4    C        -7.7373  -25.7505   -2.4154  C     
5    N        -9.8080  -23.0293   -1.4692  N     
6    C        -8.8452  -22.9159   -0.5455  C     
7    C        -7.9180  -23.8687   -0.7264  C     
8    C        -8.3169  -24.6364   -1.7829  C     
9    C        -9.5197  -24.0982   -2.2431  C     
10   C       -10.8908  -22.1988   -1.6148  C     
11   C       -10.7375  -20.7890   -1.6198  C     
12   C       -11.8554  -19.9430   -1.7330  C     
13   C       -13.1457  -20.4919   -1.8452  C     
14   C       -13.3158  -21.8884   -1.8479  C     
15   C       -12.1970  -22.7328   -1.7247  C     
16   C        -6.8108  -24.0528    0.0349  C     
17   N        -6.6271  -25.0784    0.8945  N     
18   O        -5.9743  -23.1630   -0.0861  O     
19   C        -7.5859  -26.1676    1.0386  C     
20   C        -7.8571  -26.5002    2.5268  C     
21   N        -6.6413  -26.6129    3.3652  N     
22   C        -5.3466  -26.3178    2.7104  C     
23   C        -5.4353  -25.1161    1.7322  C     
24   O        -8.7882  -21.9532    0.3930  O     
25   C        -9.1476  -22.3702    1.6487  C     
26   C       -10.4973  -22.6234    1.9839  C     
27   C       -10.8545  -23.0037    3.2877  C     
28   C        -9.8675  -23.0956    4.2882  C     
29   C        -8.5205  -22.8227    3.9729  C     
30   C        -8.1631  -22.4525    2.6607  C     
31   F        -7.6091  -22.8816    4.9113  F     
32   H        -7.9733  -27.1260   -4.0085  H     
33   H       -10.0703  -26.1987   -4.8132  H     
34   H       -11.0573  -24.2751   -3.7057  H     
35   H        -6.8637  -26.1493   -2.0744  H     
36   H        -9.8049  -20.3745   -1.5399  H     
37   H       -11.7306  -18.9262   -1.7360  H     
38   H       -13.9577  -19.8788   -1.9277  H     
39   H       -14.2550  -22.2891   -1.9187  H     
40   H       -12.3450  -23.7466   -1.7022  H     
41   H        -7.1707  -27.0536    0.5553  H     
42   H        -8.5579  -25.9721    0.5802  H     
43   H        -8.3964  -27.4486    2.5886  H     
44   H        -8.4947  -25.7266    2.9589  H     
45   H        -6.6087  -27.5781    3.7030  H     
46   H        -6.7501  -25.9942    4.1772  H     
47   H        -5.0333  -27.2058    2.1586  H     
48   H        -4.5991  -26.1201    3.4816  H     
49   H        -4.5388  -25.1271    1.1034  H     
50   H        -5.4100  -24.2036    2.3342  H     
51   H       -11.2252  -22.5247    1.2797  H     
52   H       -11.8358  -23.1839    3.5197  H     
53   H       -10.1363  -23.3557    5.2411  H     
54   H        -7.1854  -22.2339    2.4458  H     
@<TRIPOS>BOND
     1   15   10 1
     2    5   10 1
     3    1    2 2
     4    7   16 1
     5    8    4 2
     6   16   17 1
     7    5    6 1
     8   16   18 2
     9   17   19 1
    10    7    8 1
    11    9    5 1
    12    4    1 1
    13    8    9 1
    14   10   11 2
    15   17   23 1
    16   19   20 1
    17   20   21 1
    18   21   22 1
    19   22   23 1
    20    6   24 1
    21   24   25 1
    22   11   12 1
    23    2    3 1
    24   25   26 2
    25   12   13 2
    26   26   27 1
    27    6    7 2
    28   27   28 2
    29   13   14 1
    30   28   29 1
    31    3    9 2
    32   29   30 2
    33   30   25 1
    34   14   15 2
    35   29   31 1
    36    1   32 1
    37    2   33 1
    38    3   34 1
    39    4   35 1
    40   11   36 1
    41   12   37 1
    42   13   38 1
    43   14   39 1
    44   15   40 1
    45   19   41 1
    46   19   42 1
    47   20   43 1
    48   20   44 1
    49   21   45 1
    50   21   46 1
    51   22   47 1
    52   22   48 1
    53   23   49 1
    54   23   50 1
    55   26   51 1
    56   27   52 1
    57   28   53 1
    58   30   54 1
@<TRIPOS>PROPERTY_DATA
  Total_Score	| 13.2854
  Crash		| -1.0079
  Polar		| 5.2830
  FragIndex	| 1
  FragRMSD	| 0.230

