@<TRIPOS>MOLECULE
BindingDB_50329052
 58 62 0 0 0
SMALL
NO_CHARGES


@<TRIPOS>ATOM
1    C        -8.2609  -26.2926   -3.2138  C     
2    C        -9.4408  -25.7753   -3.7812  C     
3    C       -10.0466  -24.6207   -3.2401  C     
4    C        -7.6695  -25.6627   -2.0984  C     
5    N        -9.8014  -22.9002   -1.4015  N     
6    C        -8.8818  -22.7333   -0.4412  C     
7    C        -7.9358  -23.6799   -0.5346  C     
8    C        -8.2796  -24.5070   -1.5691  C     
9    C        -9.4588  -23.9975   -2.1152  C     
10   C       -10.9111  -22.1133   -1.5898  C     
11   C       -10.8077  -20.7031   -1.6389  C     
12   C       -11.9510  -19.8963   -1.7835  C     
13   C       -13.2229  -20.4950   -1.8971  C     
14   C       -13.3420  -21.8952   -1.8675  C     
15   C       -12.1987  -22.6979   -1.7027  C     
16   C        -6.8709  -23.8201    0.2875  C     
17   N        -6.9012  -24.4931    1.4588  N     
18   O        -5.8798  -23.1960   -0.0748  O     
19   C        -8.0388  -25.2846    1.9032  C     
20   C        -7.5936  -26.7408    2.1927  C     
21   N        -6.4603  -26.7598    3.1395  N     
22   C        -5.3080  -25.8833    2.7801  C     
23   C        -5.8052  -24.4528    2.4110  C     
24   O        -8.9222  -21.7274    0.4573  O     
25   C        -9.2101  -22.1233    1.7384  C     
26   C       -10.5049  -22.5252    2.1421  C     
27   C       -10.7289  -22.9950    3.4499  C     
28   C        -9.6733  -23.0239    4.3808  C     
29   C        -8.3927  -22.5867    4.0003  C     
30   C        -8.1635  -22.1270    2.6887  C     
31   C        -4.4332  -26.5066    1.6547  C     
32   O        -3.0852  -26.0471    1.7662  O     
33   H        -7.8274  -27.1273   -3.6148  H     
34   H        -9.8591  -26.2299   -4.5965  H     
35   H       -10.8887  -24.2353   -3.6680  H     
36   H        -6.8065  -26.0308   -1.6936  H     
37   H        -9.8902  -20.2517   -1.5754  H     
38   H       -11.8642  -18.8761   -1.8160  H     
39   H       -14.0545  -19.9079   -2.0044  H     
40   H       -14.2655  -22.3271   -1.9596  H     
41   H       -12.3122  -23.7119   -1.6506  H     
42   H        -8.4251  -24.8455    2.8266  H     
43   H        -8.8586  -25.3258    1.1824  H     
44   H        -7.3125  -27.2430    1.2577  H     
45   H        -8.4200  -27.2988    2.6418  H     
46   H        -6.1278  -27.7233    3.1988  H     
47   H        -6.8220  -26.4906    4.0606  H     
48   H        -4.6783  -25.8088    3.6737  H     
49   H        -4.9460  -23.8574    2.0758  H     
50   H        -6.1687  -23.9705    3.3226  H     
51   H       -11.2791  -22.4977    1.4782  H     
52   H       -11.6644  -23.3129    3.7262  H     
53   H        -9.8402  -23.3726    5.3256  H     
54   H        -7.6287  -22.5927    4.6793  H     
55   H        -7.2289  -21.7931    2.4253  H     
56   H        -4.4331  -27.5938    1.7334  H     
57   H        -4.8185  -26.2271    0.6733  H     
58   H        -2.7490  -25.9790    0.8499  H     
@<TRIPOS>BOND
     1    5   10 1
     2    1    2 2
     3    7   16 1
     4    8    4 2
     5   16   17 1
     6    5    6 1
     7   16   18 2
     8   17   19 1
     9    7    8 1
    10    9    5 1
    11    4    1 1
    12    8    9 1
    13   10   11 2
    14   17   23 1
    15   19   20 1
    16   20   21 1
    17   21   22 1
    18   22   23 1
    19    6   24 1
    20   24   25 1
    21   11   12 1
    22    2    3 1
    23   25   26 2
    24   12   13 2
    25   26   27 1
    26    6    7 2
    27   27   28 2
    28   13   14 1
    29   28   29 1
    30    3    9 2
    31   29   30 2
    32   30   25 1
    33   14   15 2
    34   22   31 1
    35   15   10 1
    36   31   32 1
    37    1   33 1
    38    2   34 1
    39    3   35 1
    40    4   36 1
    41   11   37 1
    42   12   38 1
    43   13   39 1
    44   14   40 1
    45   15   41 1
    46   19   42 1
    47   19   43 1
    48   20   44 1
    49   20   45 1
    50   21   46 1
    51   21   47 1
    52   22   48 1
    53   23   49 1
    54   23   50 1
    55   26   51 1
    56   27   52 1
    57   28   53 1
    58   29   54 1
    59   30   55 1
    60   31   56 1
    61   31   57 1
    62   32   58 1
@<TRIPOS>PROPERTY_DATA
  Total_Score	| 12.7407
  Crash		| -1.1641
  Polar		| 6.3079
  FragIndex	| 1
  FragRMSD	| 0.509

