@<TRIPOS>MOLECULE
BindingDB_50419723
 54 58 0 0 0
SMALL
NO_CHARGES


@<TRIPOS>ATOM
1    C        -7.9318  -23.7459   -0.5728  C     
2    C        -8.8342  -22.7679   -0.3818  C     
3    N        -9.7870  -22.8184   -1.3266  N     
4    C        -8.3227  -24.4458   -1.6770  C     
5    C        -9.4907  -23.8513   -2.1481  C     
6    C        -6.8054  -23.9660    0.1530  C     
7    N        -6.5866  -25.0373    0.9477  N     
8    O        -8.7662  -21.8154    0.5680  O     
9    C       -10.1138  -24.3437   -3.3130  C     
10   C        -7.7543  -25.5597   -2.3306  C     
11   C       -10.8763  -21.9871   -1.4470  C     
12   O        -5.9422  -23.1096   -0.0196  O     
13   C        -9.5499  -25.4481   -3.9804  C     
14   C        -8.3775  -26.0568   -3.4902  C     
15   C        -9.0639  -22.2609    1.8290  C     
16   Cl      -10.2764  -26.0199   -5.3861  Cl    
17   C       -12.1751  -22.5200   -1.6363  C     
18   C       -10.7256  -20.5803   -1.4004  C     
19   C       -10.3966  -22.4994    2.2371  C     
20   C        -8.0237  -22.4129    2.7708  C     
21   C       -11.8375  -19.7344   -1.5615  C     
22   C       -13.2850  -21.6741   -1.7926  C     
23   C       -10.6770  -22.9482    3.5397  C     
24   C        -8.3031  -22.8508    4.0813  C     
25   C       -13.1198  -20.2793   -1.7557  C     
26   C        -9.6293  -23.1273    4.4605  C     
27   C        -7.5063  -26.1645    1.0612  C     
28   C        -7.8232  -26.4931    2.5379  C     
29   N        -6.5883  -26.6487    3.3238  N     
30   C        -5.6729  -25.4939    3.2158  C     
31   C        -5.3638  -25.1722    1.7303  C     
32   H       -10.9559  -23.8927   -3.6791  H     
33   H        -6.9021  -25.9979   -1.9714  H     
34   H        -7.9635  -26.8506   -3.9823  H     
35   H       -12.3151  -23.5331   -1.6661  H     
36   H        -9.7991  -20.1643   -1.2802  H     
37   H       -11.1682  -22.3605    1.5839  H     
38   H        -7.0574  -22.2133    2.5028  H     
39   H       -11.7139  -18.7189   -1.5566  H     
40   H       -14.2140  -22.0728   -1.9464  H     
41   H       -11.6421  -23.1437    3.8186  H     
42   H        -7.5426  -22.9712    4.7541  H     
43   H       -13.9251  -19.6649   -1.8846  H     
44   H        -9.8320  -23.4560    5.4064  H     
45   H        -8.4641  -26.0085    0.5627  H     
46   H        -7.0469  -27.0423    0.5991  H     
47   H        -8.4414  -25.7015    2.9724  H     
48   H        -8.3711  -27.4323    2.5942  H     
49   H        -6.8671  -26.7705    4.2995  H     
50   H        -6.1150  -27.4957    2.9985  H     
51   H        -6.1205  -24.6259    3.7049  H     
52   H        -4.7448  -25.7359    3.7402  H     
53   H        -4.7672  -25.9881    1.3128  H     
54   H        -4.7350  -24.2760    1.7182  H     
@<TRIPOS>BOND
     1    1    2 2
     2    1    4 1
     3    1    6 1
     4    2    3 1
     5    2    8 1
     6    3    5 1
     7    3   11 1
     8    4    5 1
     9    4   10 2
    10    5    9 2
    11    6    7 am
    12    6   12 2
    13    7   27 1
    14    7   31 1
    15    8   15 1
    16    9   13 1
    17   10   14 1
    18   11   17 2
    19   11   18 1
    20   13   14 2
    21   13   16 1
    22   15   19 2
    23   15   20 1
    24   17   22 1
    25   18   21 2
    26   19   23 1
    27   20   24 2
    28   21   25 1
    29   22   25 2
    30   23   26 2
    31   24   26 1
    32   27   28 1
    33   28   29 1
    34   29   30 1
    35   30   31 1
    36    9   32 1
    37   10   33 1
    38   14   34 1
    39   17   35 1
    40   18   36 1
    41   19   37 1
    42   20   38 1
    43   21   39 1
    44   22   40 1
    45   23   41 1
    46   24   42 1
    47   25   43 1
    48   26   44 1
    49   27   45 1
    50   27   46 1
    51   28   47 1
    52   28   48 1
    53   29   49 1
    54   29   50 1
    55   30   51 1
    56   30   52 1
    57   31   53 1
    58   31   54 1
@<TRIPOS>PROPERTY_DATA
  Total_Score	| 13.1068
  Crash		| -1.8873
  Polar		| 5.7615
  FragIndex	| 1
  FragRMSD	| 0.254

