@<TRIPOS>MOLECULE
BindingDB_50329037
 58 62 0 0 0
SMALL
NO_CHARGES


@<TRIPOS>ATOM
1    C        -8.4333  -26.5228   -3.5815  C     
2    C        -9.6423  -25.9693   -4.0571  C     
3    C       -10.1926  -24.8297   -3.4404  C     
4    C        -7.7646  -25.9355   -2.4872  C     
5    N        -9.8121  -23.1746   -1.5705  N     
6    C        -8.8521  -23.0673   -0.6423  C     
7    C        -7.9220  -24.0207   -0.8180  C     
8    C        -8.3210  -24.7897   -1.8785  C     
9    C        -9.5237  -24.2495   -2.3407  C     
10   C       -10.9074  -22.3450   -1.6670  C     
11   C       -12.2181  -22.8756   -1.6996  C     
12   C       -13.3346  -22.0259   -1.7779  C     
13   C       -13.1658  -20.6300   -1.7872  C     
14   C       -11.8720  -20.0876   -1.7526  C     
15   C       -10.7521  -20.9347   -1.6906  C     
16   C        -6.7978  -24.1862   -0.0691  C     
17   N        -6.5671  -25.2138    0.7773  N     
18   O        -5.9797  -23.2820   -0.2158  O     
19   C        -7.4914  -26.3210    0.9860  C     
20   C        -7.8076  -26.5087    2.4909  C     
21   N        -6.5733  -26.6126    3.2909  N     
22   C        -5.6452  -25.4855    3.0615  C     
23   C        -5.3383  -25.3080    1.5498  C     
24   O        -8.8493  -22.0985    0.2877  O     
25   C        -9.0822  -22.4857    1.5881  C     
26   C       -10.1699  -23.2992    1.9877  C     
27   C       -10.3431  -23.6379    3.3433  C     
28   C        -9.4653  -23.1281    4.3151  C     
29   C        -8.4173  -22.2707    3.9341  C     
30   C        -8.2353  -21.9390    2.5767  C     
31   O        -7.2277  -21.0793    2.2380  O     
32   C        -7.6849  -19.7437    1.9547  C     
33   H        -8.0443  -27.3572   -4.0259  H     
34   H       -10.1188  -26.4068   -4.8449  H     
35   H       -11.0626  -24.4292   -3.7944  H     
36   H        -6.8951  -26.3384   -2.1394  H     
37   H       -12.3624  -23.8873   -1.6667  H     
38   H       -14.2736  -22.4229   -1.8287  H     
39   H       -13.9806  -20.0163   -1.8217  H     
40   H       -11.7444  -19.0730   -1.7820  H     
41   H        -9.8160  -20.5221   -1.6802  H     
42   H        -7.0328  -27.2389    0.6056  H     
43   H        -8.4469  -26.2069    0.4700  H     
44   H        -8.3861  -27.4246    2.6370  H     
45   H        -8.4033  -25.6673    2.8525  H     
46   H        -6.8528  -26.6288    4.2718  H     
47   H        -6.1162  -27.4948    3.0467  H     
48   H        -6.0845  -24.5648    3.4583  H     
49   H        -4.7153  -25.6816    3.6025  H     
50   H        -4.7665  -26.1735    1.1974  H     
51   H        -4.6837  -24.4377    1.4465  H     
52   H       -10.8271  -23.6590    1.2909  H     
53   H       -11.1017  -24.2600    3.6236  H     
54   H        -9.5939  -23.3757    5.3019  H     
55   H        -7.7955  -21.8837    4.6478  H     
56   H        -8.3547  -19.7262    1.0932  H     
57   H        -6.8101  -19.1347    1.7188  H     
58   H        -8.2044  -19.3161    2.8249  H     
@<TRIPOS>BOND
     1    5   10 1
     2    1    2 2
     3    7   16 1
     4    8    4 2
     5   16   17 1
     6    5    6 1
     7   16   18 2
     8   17   19 1
     9    7    8 1
    10    9    5 1
    11    4    1 1
    12    8    9 1
    13   10   11 2
    14   17   23 1
    15   19   20 1
    16   20   21 1
    17   21   22 1
    18   22   23 1
    19    6   24 1
    20   24   25 1
    21   11   12 1
    22    2    3 1
    23   25   26 2
    24   12   13 2
    25   26   27 1
    26    6    7 2
    27   27   28 2
    28   13   14 1
    29   28   29 1
    30    3    9 2
    31   29   30 2
    32   30   25 1
    33   14   15 2
    34   30   31 1
    35   15   10 1
    36   31   32 1
    37    1   33 1
    38    2   34 1
    39    3   35 1
    40    4   36 1
    41   11   37 1
    42   12   38 1
    43   13   39 1
    44   14   40 1
    45   15   41 1
    46   19   42 1
    47   19   43 1
    48   20   44 1
    49   20   45 1
    50   21   46 1
    51   21   47 1
    52   22   48 1
    53   22   49 1
    54   23   50 1
    55   23   51 1
    56   26   52 1
    57   27   53 1
    58   28   54 1
    59   29   55 1
    60   32   56 1
    61   32   57 1
    62   32   58 1
@<TRIPOS>PROPERTY_DATA
  Total_Score	| 15.2262
  Crash		| -1.0505
  Polar		| 5.7716
  FragIndex	| 1
  FragRMSD	| 0.299

