@<TRIPOS>MOLECULE
BindingDB_50329034
 54 58 0 0 0
SMALL
NO_CHARGES


@<TRIPOS>ATOM
1    C       -13.1556  -20.4139   -1.8735  C     
2    O        -8.6800  -21.8779    0.3953  O     
3    C       -13.3405  -21.8049   -1.8743  C     
4    C       -12.2312  -22.6671   -1.7321  C     
5    C       -10.9178  -22.1545   -1.6132  C     
6    C       -10.7503  -20.7445   -1.6303  C     
7    C       -11.8594  -19.8847   -1.7459  C     
8    N        -9.8436  -22.9916   -1.4772  N     
9    C        -9.5898  -24.0953   -2.2333  C     
10   C        -8.4155  -24.6935   -1.7745  C     
11   C        -7.9392  -23.9236   -0.7175  C     
12   C        -8.8389  -22.8669   -0.5514  C     
13   C       -10.2546  -24.6459   -3.3483  C     
14   C        -9.7347  -25.7984   -3.9762  C     
15   C        -8.5583  -26.4013   -3.4882  C     
16   C        -7.8862  -25.8473   -2.3846  C     
17   C        -8.9598  -22.2930    1.6747  C     
18   C       -10.3038  -22.5336    2.0299  C     
19   C       -10.6213  -22.9813    3.3250  C     
20   C        -9.6091  -23.1870    4.2838  C     
21   C        -8.2528  -22.9192    3.9438  C     
22   C        -7.9450  -22.4348    2.6638  C     
23   C        -6.7883  -24.1344    0.0126  C     
24   N        -6.5347  -25.2186    0.7727  N     
25   O        -5.9853  -23.2014   -0.0707  O     
26   C        -5.2818  -25.3644    1.5102  C     
27   C        -5.5578  -25.5141    3.0331  C     
28   N        -6.5553  -26.5795    3.2998  N     
29   C        -7.8001  -26.4862    2.5091  C     
30   C        -7.4776  -26.3068    1.0087  C     
31   H       -13.9576  -19.7908   -1.9602  H     
32   H       -14.2806  -22.1940   -1.9693  H     
33   H       -12.3966  -23.6780   -1.7064  H     
34   H        -9.8131  -20.3419   -1.5563  H     
35   H       -11.7218  -18.8713   -1.7368  H     
36   H       -11.0904  -24.1948   -3.7368  H     
37   H       -10.1964  -26.1869   -4.7982  H     
38   H        -8.1713  -27.2263   -3.9558  H     
39   H        -7.0171  -26.2705   -2.0398  H     
40   H       -11.0553  -22.3637    1.3427  H     
41   H       -11.6024  -23.1470    3.5802  H     
42   H        -9.8566  -23.5493    5.2123  H     
43   H        -7.4678  -23.0642    4.5883  H     
44   H        -6.9667  -22.2178    2.4761  H     
45   H        -4.7583  -26.2609    1.1602  H     
46   H        -4.5869  -24.5312    1.3647  H     
47   H        -4.6274  -25.7725    3.5380  H     
48   H        -5.9015  -24.5594    3.4375  H     
49   H        -6.1063  -27.4779    3.0993  H     
50   H        -6.8341  -26.5696    4.2839  H     
51   H        -8.3408  -27.4260    2.6568  H     
52   H        -8.4441  -25.6232    2.8980  H     
53   H        -8.4285  -26.1854    0.5056  H     
54   H        -7.0425  -27.2411    0.6065  H     
@<TRIPOS>BOND
     1    1    3 2
     2    1    7 1
     3    2   12 1
     4    2   17 1
     5    3    4 1
     6    4    5 2
     7    5    6 1
     8    5    8 1
     9    6    7 2
    10    8    9 1
    11    8   12 1
    12    9   10 2
    13    9   13 1
    14   10   11 1
    15   10   16 1
    16   11   12 2
    17   11   23 1
    18   13   14 2
    19   14   15 1
    20   15   16 2
    21   17   18 2
    22   17   22 1
    23   18   19 1
    24   19   20 2
    25   20   21 1
    26   21   22 2
    27   23   24 am
    28   23   25 2
    29   24   26 1
    30   24   30 1
    31   26   27 1
    32   27   28 1
    33   28   29 1
    34   29   30 1
    35    1   31 1
    36    3   32 1
    37    4   33 1
    38    6   34 1
    39    7   35 1
    40   13   36 1
    41   14   37 1
    42   15   38 1
    43   16   39 1
    44   18   40 1
    45   19   41 1
    46   20   42 1
    47   21   43 1
    48   22   44 1
    49   26   45 1
    50   26   46 1
    51   27   47 1
    52   27   48 1
    53   28   49 1
    54   28   50 1
    55   29   51 1
    56   29   52 1
    57   30   53 1
    58   30   54 1
@<TRIPOS>PROPERTY_DATA
  Total_Score	| 14.1041
  Crash		| -0.6653
  Polar		| 5.6596
  FragIndex	| 1
  FragRMSD	| 0.080

