@<TRIPOS>MOLECULE
BindingDB_50329050
 60 64 0 0 0
SMALL
NO_CHARGES


@<TRIPOS>ATOM
1    C        -8.3659  -26.2466   -3.2928  C     
2    C        -9.5677  -25.7127   -3.8117  C     
3    C       -10.1355  -24.5580   -3.2405  C     
4    C        -7.7264  -25.6317   -2.2009  C     
5    N        -9.8039  -22.8680   -1.3870  N     
6    C        -8.8387  -22.7131   -0.4670  C     
7    C        -7.9019  -23.6710   -0.6186  C     
8    C        -8.3077  -24.4790   -1.6360  C     
9    C        -9.5007  -23.9505   -2.1293  C     
10   C       -10.9161  -22.0814   -1.5266  C     
11   C       -12.2015  -22.6794   -1.6244  C     
12   C       -13.3457  -21.8782   -1.7706  C     
13   C       -13.2303  -20.4774   -1.7964  C     
14   C       -11.9666  -19.8768   -1.6895  C     
15   C       -10.8149  -20.6759   -1.5514  C     
16   C        -6.7889  -23.8442    0.1266  C     
17   N        -6.7129  -24.5708    1.2582  N     
18   O        -5.7725  -23.3602   -0.3781  O     
19   C        -7.8986  -24.9850    1.9857  C     
20   C        -7.8219  -26.4394    2.4899  C     
21   N        -6.4841  -26.8540    2.9626  N     
22   C        -5.3917  -25.8558    3.0772  C     
23   C        -5.4080  -24.8849    1.8328  C     
24   O        -8.8109  -21.7171    0.4342  O     
25   C        -9.1377  -22.0924    1.7151  C     
26   C       -10.3987  -22.6456    2.0315  C     
27   C       -10.6685  -23.0899    3.3420  C     
28   C        -9.6976  -22.9433    4.3470  C     
29   C        -8.4561  -22.3486    4.0474  C     
30   C        -8.1804  -21.9226    2.7399  C     
31   C        -4.0665  -26.6773    3.1007  C     
32   C        -5.4989  -25.0670    4.4172  C     
33   H        -7.9528  -27.0795   -3.7197  H     
34   H       -10.0113  -26.1557   -4.6139  H     
35   H       -10.9941  -24.1664   -3.6354  H     
36   H        -6.8615  -26.0191   -1.8216  H     
37   H       -12.2979  -23.6967   -1.5906  H     
38   H       -14.2629  -22.3192   -1.8476  H     
39   H       -14.0692  -19.8970   -1.9021  H     
40   H       -11.8793  -18.8601   -1.7123  H     
41   H        -9.8954  -20.2168   -1.4916  H     
42   H        -8.0120  -24.3331    2.8446  H     
43   H        -8.8216  -24.8995    1.4103  H     
44   H        -8.5281  -26.5875    3.3105  H     
45   H        -8.1007  -27.1254    1.6820  H     
46   H        -6.6058  -27.3363    3.8653  H     
47   H        -6.1624  -27.5578    2.2861  H     
48   H        -4.8958  -23.9455    2.0983  H     
49   H        -4.8196  -25.3536    1.0269  H     
50   H       -11.1069  -22.7531    1.3100  H     
51   H       -11.5759  -23.4993    3.5582  H     
52   H        -9.8869  -23.2930    5.2839  H     
53   H        -7.7510  -22.2466    4.7769  H     
54   H        -7.2744  -21.4962    2.5229  H     
55   H        -4.0543  -27.3513    3.9649  H     
56   H        -3.1957  -26.0158    3.1563  H     
57   H        -3.9764  -27.2878    2.1955  H     
58   H        -6.3500  -24.3843    4.4176  H     
59   H        -4.5943  -24.4733    4.5925  H     
60   H        -5.6232  -25.7653    5.2519  H     
@<TRIPOS>BOND
     1    5   10 1
     2    1    2 2
     3    7   16 1
     4    8    4 2
     5   16   17 1
     6    5    6 1
     7   16   18 2
     8   17   19 1
     9    7    8 1
    10    9    5 1
    11    4    1 1
    12    8    9 1
    13   10   11 2
    14   17   23 1
    15   19   20 1
    16   20   21 1
    17   21   22 1
    18   22   23 1
    19    6   24 1
    20   24   25 1
    21   11   12 1
    22    2    3 1
    23   25   26 2
    24   12   13 2
    25   26   27 1
    26    6    7 2
    27   27   28 2
    28   13   14 1
    29   28   29 1
    30    3    9 2
    31   29   30 2
    32   30   25 1
    33   14   15 2
    34   22   31 1
    35   15   10 1
    36   22   32 1
    37    1   33 1
    38    2   34 1
    39    3   35 1
    40    4   36 1
    41   11   37 1
    42   12   38 1
    43   13   39 1
    44   14   40 1
    45   15   41 1
    46   19   42 1
    47   19   43 1
    48   20   44 1
    49   20   45 1
    50   21   46 1
    51   21   47 1
    52   23   48 1
    53   23   49 1
    54   26   50 1
    55   27   51 1
    56   28   52 1
    57   29   53 1
    58   30   54 1
    59   31   55 1
    60   31   56 1
    61   31   57 1
    62   32   58 1
    63   32   59 1
    64   32   60 1
@<TRIPOS>PROPERTY_DATA
  Total_Score	| 11.4491
  Crash		| -1.9438
  Polar		| 4.0713
  FragIndex	| 1
  FragRMSD	| 0.466

