@<TRIPOS>MOLECULE
BindingDB_50379632
 50 54 0 0 0
SMALL
NO_CHARGES


@<TRIPOS>ATOM
1    C        21.1732   -1.6116    8.1165  C     
2    C        21.0011   -2.8354    8.8206  C     
3    C        19.7917   -3.1335    9.4719  C     
4    N        18.7654   -2.2545    9.4159  N     
5    C        18.8273   -1.0815    8.7363  C     
6    C        20.0330   -0.7569    8.0712  C     
7    N        17.7872   -0.1940    8.7119  N     
8    C        16.5392   -0.3571    9.2251  C     
9    S        15.8365   -1.7168   10.0235  S     
10   C        14.3048   -0.9997   10.3353  C     
11   C        14.4064    0.2866    9.7781  C     
12   N        15.5979    0.6087    9.1987  N     
13   C        13.2223   -1.6151   11.0344  C     
14   C        13.2001   -3.0129   11.2417  C     
15   N        12.2045   -3.6012   11.9435  N     
16   C        11.1729   -2.9105   12.4747  C     
17   C        11.0936   -1.5106   12.3109  C     
18   C        12.1461   -0.8814   11.5908  C     
19   N        22.3877   -1.2657    7.5428  N     
20   C        22.9144    0.0951    7.5521  C     
21   C        24.3254    0.1474    8.2131  C     
22   N        25.2336   -0.8804    7.6503  N     
23   C        24.6526   -2.2386    7.6443  C     
24   C        23.2910   -2.2185    6.9038  C     
25   C         9.9986   -0.7770   12.8520  C     
26   C         9.9850    0.5328   13.3200  C     
27   N         8.7424    0.8126   13.7400  N     
28   N         7.9581   -0.2064   13.5770  N     
29   C         8.6793   -1.1996   13.0290  C     
30   H        21.7574   -3.5083    8.9269  H     
31   H        19.6906   -3.9953   10.0046  H     
32   H        20.0427    0.0971    7.5130  H     
33   H        17.9815    0.6753    8.3235  H     
34   H        13.6371    0.9600    9.7947  H     
35   H        13.9370   -3.6140   10.8741  H     
36   H        10.4720   -3.4240   13.0120  H     
37   H        12.1250    0.1340   11.4771  H     
38   H        22.9861    0.4583    6.5219  H     
39   H        22.3094    0.8104    8.1099  H     
40   H        24.7779    1.1276    8.0519  H     
41   H        24.2431   -0.0140    9.2930  H     
42   H        25.4521   -0.6168    6.6811  H     
43   H        26.1061   -0.8833    8.1947  H     
44   H        25.3415   -2.9171    7.1365  H     
45   H        24.5094   -2.5939    8.6745  H     
46   H        22.9258   -3.2439    6.8472  H     
47   H        23.4623   -1.9025    5.8644  H     
48   H        10.7813    1.1679   13.3832  H     
49   H         8.4736    1.6652   14.1241  H     
50   H         8.3008   -2.1170   12.7779  H     
@<TRIPOS>BOND
     1    1    2 2
     2    1    6 1
     3    1   19 1
     4    2    3 1
     5    3    4 2
     6    4    5 1
     7    5    6 2
     8    5    7 1
     9    7    8 1
    10    8    9 1
    11    8   12 2
    12    9   10 1
    13   10   11 2
    14   10   13 1
    15   11   12 1
    16   13   14 2
    17   13   18 1
    18   14   15 1
    19   15   16 2
    20   16   17 1
    21   17   18 2
    22   17   25 1
    23   19   20 1
    24   19   24 1
    25   20   21 1
    26   21   22 1
    27   22   23 1
    28   23   24 1
    29   25   26 2
    30   25   29 1
    31   26   27 1
    32   27   28 1
    33   28   29 2
    34    2   30 1
    35    3   31 1
    36    6   32 1
    37    7   33 1
    38   11   34 1
    39   14   35 1
    40   16   36 1
    41   18   37 1
    42   20   38 1
    43   20   39 1
    44   21   40 1
    45   21   41 1
    46   22   42 1
    47   22   43 1
    48   23   44 1
    49   23   45 1
    50   24   46 1
    51   24   47 1
    52   26   48 1
    53   27   49 1
    54   29   50 1
@<TRIPOS>PROPERTY_DATA
  Total_Score	| 8.4828
  Crash		| -1.3024
  Polar		| 2.3591
  FragIndex	| 1
  FragRMSD	| 0.994

