@<TRIPOS>MOLECULE
BindingDB_50379750
 44 47 0 0 0
SMALL
NO_CHARGES


@<TRIPOS>ATOM
1    C        21.0868   -3.1436    8.8038  C     
2    C        19.8031   -3.4346    9.2841  C     
3    N        18.8560   -2.4711    9.2793  N     
4    C        19.0725   -1.2152    8.8143  C     
5    C        20.3617   -0.8881    8.3424  C     
6    C        21.4233   -1.8373    8.3451  C     
7    N        18.1094   -0.2588    8.8209  N     
8    C        16.8388   -0.3610    9.2803  C     
9    S        15.9498   -1.6992    9.9174  S     
10   C        14.5083   -0.8261   10.2605  C     
11   C        14.7871    0.4895    9.8522  C     
12   N        16.0158    0.7129    9.3254  N     
13   C        13.3395   -1.3209   10.8975  C     
14   C        13.0109   -2.7002   10.8637  C     
15   C        11.8528   -3.1833   11.5081  C     
16   C        11.0225   -2.3021   12.2228  C     
17   C        11.3489   -0.9361   12.2883  C     
18   C        12.4936   -0.4500   11.6266  C     
19   N        22.6998   -1.5260    7.9108  N     
20   C        23.6121   -2.5769    7.4610  C     
21   C        24.8744   -2.0769    6.7065  C     
22   N        24.5080   -0.9353    5.8424  N     
23   C        23.8703    0.2013    6.5473  C     
24   C        23.2497   -0.1754    7.9193  C     
25   H        21.7828   -3.8919    8.8471  H     
26   H        19.5795   -4.3618    9.6394  H     
27   H        20.5058    0.0395    7.9431  H     
28   H        18.3861    0.6216    8.5162  H     
29   H        14.1026    1.2455    9.9186  H     
30   H        13.5959   -3.3643   10.3586  H     
31   H        11.6288   -4.1824   11.4798  H     
32   H        10.1887   -2.6540   12.7019  H     
33   H        10.7560   -0.2947   12.8199  H     
34   H        12.7222    0.5401   11.7231  H     
35   H        23.9448   -3.1755    8.3118  H     
36   H        23.0771   -3.2344    6.7661  H     
37   H        25.6371   -1.7583    7.4202  H     
38   H        25.2959   -2.8756    6.0904  H     
39   H        25.3467   -0.5956    5.3652  H     
40   H        23.8536   -1.2743    5.1293  H     
41   H        24.6219    0.9816    6.6874  H     
42   H        23.0894    0.6025    5.8959  H     
43   H        22.5643    0.6145    8.2277  H     
44   H        24.0535   -0.1657    8.6622  H     
@<TRIPOS>BOND
     1    1    2 2
     2    1    6 1
     3    2    3 1
     4    3    4 2
     5    4    5 1
     6    4    7 1
     7    5    6 2
     8    6   19 1
     9    7    8 1
    10    8    9 1
    11    8   12 2
    12    9   10 1
    13   10   11 2
    14   10   13 1
    15   11   12 1
    16   13   14 2
    17   13   18 1
    18   14   15 1
    19   15   16 2
    20   16   17 1
    21   17   18 2
    22   19   20 1
    23   19   24 1
    24   20   21 1
    25   21   22 1
    26   22   23 1
    27   23   24 1
    28    1   25 1
    29    2   26 1
    30    5   27 1
    31    7   28 1
    32   11   29 1
    33   14   30 1
    34   15   31 1
    35   16   32 1
    36   17   33 1
    37   18   34 1
    38   20   35 1
    39   20   36 1
    40   21   37 1
    41   21   38 1
    42   22   39 1
    43   22   40 1
    44   23   41 1
    45   23   42 1
    46   24   43 1
    47   24   44 1
@<TRIPOS>PROPERTY_DATA
  Total_Score	| 6.9714
  Crash		| -1.0451
  Polar		| 2.0152
  FragIndex	| 1
  FragRMSD	| 0.671

