@<TRIPOS>MOLECULE
BindingDB_50379762
 48 52 0 0 0
SMALL
NO_CHARGES


@<TRIPOS>ATOM
1    C        21.1236   -1.6408    8.0487  C     
2    C        20.9414   -2.8967    8.6971  C     
3    C        19.7359   -3.1805    9.3551  C     
4    N        18.7420   -2.2665    9.3666  N     
5    C        18.8309   -1.0503    8.7571  C     
6    C        20.0337   -0.7311    8.0931  C     
7    N        17.8258   -0.1242    8.7879  N     
8    C        16.5804   -0.2848    9.2953  C     
9    S        15.8431   -1.6654    9.9996  S     
10   C        14.3414   -0.9421   10.4320  C     
11   C        14.4761    0.3836    9.9830  C     
12   N        15.6618    0.6988    9.3857  N     
13   C        13.2870   -1.5851   11.1536  C     
14   C        13.3870   -2.9598   11.5103  C     
15   N        12.4211   -3.5824   12.2332  N     
16   C        11.3015   -2.9386   12.6439  C     
17   C        11.0880   -1.5642   12.3435  C     
18   C        12.1155   -0.9130   11.6008  C     
19   C         9.9020   -0.9023   12.8105  C     
20   N        22.2989   -1.3149    7.4100  N     
21   C        22.8424    0.0328    7.4258  C     
22   C        24.2602   -0.0059    8.0383  C     
23   O        25.0965   -0.9540    7.3478  O     
24   C        24.5560   -2.2921    7.3300  C     
25   C        23.1309   -2.2897    6.7250  C     
26   C         9.7810    0.4022   13.2878  C     
27   N         8.4945    0.6163   13.6048  N     
28   N         7.7767   -0.4407   13.3810  N     
29   C         8.5913   -1.3991   12.8954  C     
30   H        21.6916   -3.5908    8.7507  H     
31   H        19.6210   -4.0700    9.8452  H     
32   H        20.0857    0.1552    7.5884  H     
33   H        18.0478    0.7574    8.4502  H     
34   H        13.7437    1.0783   10.0978  H     
35   H        14.1900   -3.5214   11.2311  H     
36   H        10.6238   -3.4869   13.1779  H     
37   H        11.9977    0.0776   11.3605  H     
38   H        22.8979    0.4110    6.4004  H     
39   H        22.2675    0.7493    8.0181  H     
40   H        24.7231    0.9804    7.9612  H     
41   H        24.2031   -0.2684    9.1003  H     
42   H        25.2070   -2.9274    6.7202  H     
43   H        24.5244   -2.7086    8.3447  H     
44   H        22.7319   -3.2984    6.7483  H     
45   H        23.1804   -2.0234    5.6604  H     
46   H        10.5242    1.0953   13.3873  H     
47   H         8.1378    1.4536   13.9388  H     
48   H         8.2757   -2.3282   12.6010  H     
@<TRIPOS>BOND
     1    1    2 2
     2    1    6 1
     3    1   20 1
     4    2    3 1
     5    3    4 2
     6    4    5 1
     7    5    6 2
     8    5    7 1
     9    7    8 1
    10    8    9 1
    11    8   12 2
    12    9   10 1
    13   10   11 2
    14   10   13 1
    15   11   12 1
    16   13   14 2
    17   13   18 1
    18   14   15 1
    19   15   16 2
    20   16   17 1
    21   17   18 2
    22   17   19 1
    23   19   26 2
    24   19   29 1
    25   20   21 1
    26   20   25 1
    27   21   22 1
    28   22   23 1
    29   23   24 1
    30   24   25 1
    31   26   27 1
    32   27   28 1
    33   28   29 2
    34    2   30 1
    35    3   31 1
    36    6   32 1
    37    7   33 1
    38   11   34 1
    39   14   35 1
    40   16   36 1
    41   18   37 1
    42   21   38 1
    43   21   39 1
    44   22   40 1
    45   22   41 1
    46   24   42 1
    47   24   43 1
    48   25   44 1
    49   25   45 1
    50   26   46 1
    51   27   47 1
    52   29   48 1
@<TRIPOS>PROPERTY_DATA
  Total_Score	| 8.6233
  Crash		| -1.1111
  Polar		| 2.6585
  FragIndex	| 1
  FragRMSD	| 1.013

