@<TRIPOS>MOLECULE
BindingDB_50379748
 50 53 0 0 0
SMALL
NO_CHARGES


@<TRIPOS>ATOM
1    C        20.9667   -3.0454    8.7043  C     
2    C        19.6908   -3.3539    9.2017  C     
3    N        18.7270   -2.4070    9.2105  N     
4    C        18.9227   -1.1481    8.7454  C     
5    C        20.1973   -0.8081    8.2409  C     
6    C        21.2783   -1.7380    8.2333  C     
7    N        17.9597   -0.1955    8.7757  N     
8    C        16.6974   -0.2873    9.2528  C     
9    S        15.8221   -1.6133    9.9213  S     
10   C        14.4053   -0.7192   10.3127  C     
11   C        14.6715    0.5877    9.8783  C     
12   N        15.8904    0.7916    9.3182  N     
13   C        13.2511   -1.1973   10.9826  C     
14   C        12.8146   -2.5355   10.8527  C     
15   C        11.6546   -2.9833   11.5130  C     
16   C        10.9421   -2.0881   12.3375  C     
17   N        11.3971   -0.8165   12.4683  N     
18   C        12.4987   -0.3514   11.8282  C     
19   N        22.5494   -1.4006    7.7926  N     
20   C        23.0054   -0.0212    7.6667  C     
21   C        24.4667    0.1501    8.1739  C     
22   N        25.3967   -0.8805    7.7319  N     
23   C        24.8598   -1.8979    6.8453  C     
24   C        23.5137   -2.4288    7.4094  C     
25   C         9.7131   -2.4945   13.0428  C     
26   C        26.6759   -0.8593    8.1583  C     
27   C        27.7091   -1.7964    7.7411  C     
28   O        27.0493    0.0145    8.9349  O     
29   H        21.6640   -3.7896    8.7293  H     
30   H        19.4860   -4.2856    9.5629  H     
31   H        20.3114    0.1239    7.8415  H     
32   H        18.2340    0.6855    8.4745  H     
33   H        14.0022    1.3523    9.9773  H     
34   H        13.3230   -3.1919   10.2590  H     
35   H        11.3383   -3.9483   11.3898  H     
36   H        12.7813    0.6139   11.9954  H     
37   H        22.9504    0.2670    6.6129  H     
38   H        22.4049    0.6895    8.2347  H     
39   H        24.8308    1.1320    7.8553  H     
40   H        24.4337    0.1423    9.2682  H     
41   H        24.6845   -1.4471    5.8642  H     
42   H        25.5178   -2.7533    6.6868  H     
43   H        23.7629   -3.0333    8.2857  H     
44   H        23.0660   -3.0802    6.6528  H     
45   H         8.9474   -2.7715   12.3168  H     
46   H         9.3228   -1.6796   13.6570  H     
47   H         9.9220   -3.3465   13.6907  H     
48   H        27.4356   -2.8139    8.0313  H     
49   H        28.6801   -1.5721    8.1923  H     
50   H        27.8247   -1.7473    6.6551  H     
@<TRIPOS>BOND
     1    1    2 2
     2    1    6 1
     3    2    3 1
     4    3    4 2
     5    4    5 1
     6    4    7 1
     7    5    6 2
     8    6   19 1
     9    7    8 1
    10    8    9 1
    11    8   12 2
    12    9   10 1
    13   10   11 2
    14   10   13 1
    15   11   12 1
    16   13   14 2
    17   13   18 1
    18   14   15 1
    19   15   16 2
    20   16   17 1
    21   16   25 1
    22   17   18 2
    23   19   20 1
    24   19   24 1
    25   20   21 1
    26   21   22 1
    27   22   23 1
    28   22   26 am
    29   23   24 1
    30   26   27 1
    31   26   28 2
    32    1   29 1
    33    2   30 1
    34    5   31 1
    35    7   32 1
    36   11   33 1
    37   14   34 1
    38   15   35 1
    39   18   36 1
    40   20   37 1
    41   20   38 1
    42   21   39 1
    43   21   40 1
    44   23   41 1
    45   23   42 1
    46   24   43 1
    47   24   44 1
    48   25   45 1
    49   25   46 1
    50   25   47 1
    51   27   48 1
    52   27   49 1
    53   27   50 1
@<TRIPOS>PROPERTY_DATA
  Total_Score	| 7.3052
  Crash		| -1.2837
  Polar		| 2.0533
  FragIndex	| 1
  FragRMSD	| 0.334

