@<TRIPOS>MOLECULE
BindingDB_50379629
 42 45 0 0 0
SMALL
NO_CHARGES


@<TRIPOS>ATOM
1    C        21.3308   -1.6403    8.0348  C     
2    C        21.1598   -2.9236    8.6037  C     
3    C        19.9126   -3.2655    9.1419  C     
4    N        18.9019   -2.3665    9.1251  N     
5    C        19.0143   -1.1173    8.5923  C     
6    C        20.2490   -0.7346    8.0227  C     
7    N        18.0019   -0.2107    8.6074  N     
8    C        16.7699   -0.3432    9.1502  C     
9    S        16.0390   -1.6614    9.9839  S     
10   C        14.5500   -0.8704   10.3344  C     
11   C        14.6910    0.4050    9.7589  C     
12   N        15.8713    0.6619    9.1442  N     
13   N        22.5472   -1.2668    7.5594  N     
14   C        22.8934   -1.5199    6.1841  C     
15   C        23.7680   -0.3612    5.6278  C     
16   N        24.7666    0.1746    6.5918  N     
17   C        24.9450   -0.6075    7.8375  C     
18   C        23.5655   -0.8563    8.5009  C     
19   C        13.4739   -1.3891   11.1102  C     
20   C        12.2478   -0.6977   11.2600  C     
21   N        11.2737   -1.1806   12.0709  N     
22   C        11.4309   -2.3399   12.7531  C     
23   N        12.5803   -3.0442   12.6207  N     
24   C        13.5876   -2.6041   11.8210  C     
25   H        21.9321   -3.5954    8.6187  H     
26   H        19.7607   -4.1847    9.5572  H     
27   H        20.3684    0.2023    7.6268  H     
28   H        18.2133    0.6658    8.2412  H     
29   H        13.9739    1.1281    9.8193  H     
30   H        23.4757   -2.4478    6.1422  H     
31   H        22.0148   -1.6656    5.5397  H     
32   H        24.2948   -0.7104    4.7410  H     
33   H        23.1158    0.4598    5.3259  H     
34   H        25.6715    0.2447    6.1201  H     
35   H        24.4677    1.1185    6.8513  H     
36   H        25.4219   -1.5627    7.5989  H     
37   H        25.6001   -0.0637    8.5184  H     
38   H        23.2457    0.0819    8.9556  H     
39   H        23.6885   -1.5992    9.2954  H     
40   H        12.0640    0.1721   10.7630  H     
41   H        10.6879   -2.6810   13.3636  H     
42   H        14.4381   -3.1746   11.7750  H     
@<TRIPOS>BOND
     1    1    2 2
     2    1    6 1
     3    1   13 1
     4    2    3 1
     5    3    4 2
     6    4    5 1
     7    5    6 2
     8    5    7 1
     9    7    8 1
    10    8    9 1
    11    8   12 2
    12    9   10 1
    13   10   11 2
    14   10   19 1
    15   11   12 1
    16   13   14 1
    17   13   18 1
    18   14   15 1
    19   15   16 1
    20   16   17 1
    21   17   18 1
    22   19   20 2
    23   19   24 1
    24   20   21 1
    25   21   22 2
    26   22   23 1
    27   23   24 2
    28    2   25 1
    29    3   26 1
    30    6   27 1
    31    7   28 1
    32   11   29 1
    33   14   30 1
    34   14   31 1
    35   15   32 1
    36   15   33 1
    37   16   34 1
    38   16   35 1
    39   17   36 1
    40   17   37 1
    41   18   38 1
    42   18   39 1
    43   20   40 1
    44   22   41 1
    45   24   42 1
@<TRIPOS>PROPERTY_DATA
  Total_Score	| 6.7747
  Crash		| -0.6978
  Polar		| 2.9750
  FragIndex	| 1
  FragRMSD	| 0.921

