@<TRIPOS>MOLECULE
BindingDB_50379759
 42 45 0 0 0
SMALL
NO_CHARGES


@<TRIPOS>ATOM
1    C        21.3390   -1.7532    8.1218  C     
2    C        21.0413   -3.0668    8.5728  C     
3    C        19.7761   -3.3759    9.0888  C     
4    N        18.8122   -2.4269    9.1500  N     
5    C        19.0000   -1.1672    8.6851  C     
6    C        20.2550   -0.8299    8.1314  C     
7    N        18.0090   -0.2313    8.7168  N     
8    C        16.7505   -0.3607    9.2092  C     
9    S        15.9427   -1.6884    9.9568  S     
10   C        14.4739   -0.8598   10.3084  C     
11   C        14.6806    0.4343    9.7866  C     
12   N        15.8909    0.6778    9.2263  N     
13   C        13.3521   -1.3530   11.0387  C     
14   C        12.3772   -0.4709   11.5607  C     
15   N        11.3451   -0.9230   12.3137  N     
16   C        11.1781   -2.2336   12.6103  C     
17   C        12.1019   -3.1840   12.1301  C     
18   C        13.1867   -2.7344   11.3396  C     
19   C        11.9502   -4.4382   12.4407  C     
20   N        11.8032   -5.5446   12.7281  N     
21   N        22.6166   -1.3872    7.7325  N     
22   C        23.6005   -2.3700    7.2875  C     
23   C        24.9895   -1.7707    6.9105  C     
24   O        25.4125   -0.9134    7.9872  O     
25   C        24.5101    0.1744    8.2640  C     
26   C        23.0541    0.0004    7.7427  C     
27   H        21.7480   -3.8054    8.5726  H     
28   H        19.5897   -4.3029    9.4838  H     
29   H        20.3599    0.1025    7.7185  H     
30   H        18.2583    0.6621    8.4259  H     
31   H        13.9836    1.1729    9.8354  H     
32   H        12.4389    0.5339   11.4125  H     
33   H        10.3784   -2.5071   13.1920  H     
34   H        13.8652   -3.4163   10.9887  H     
35   H        23.8031   -3.1022    8.0883  H     
36   H        23.2089   -2.9108    6.4167  H     
37   H        25.7216   -2.5780    6.7868  H     
38   H        24.9319   -1.2076    5.9684  H     
39   H        24.4918    0.2842    9.3469  H     
40   H        24.9399    1.0885    7.8455  H     
41   H        22.9924    0.3815    6.7119  H     
42   H        22.4312    0.6344    8.3693  H     
@<TRIPOS>BOND
     1    1    2 2
     2    1    6 1
     3    1   21 1
     4    2    3 1
     5    3    4 2
     6    4    5 1
     7    5    6 2
     8    5    7 1
     9    7    8 1
    10    8    9 1
    11    8   12 2
    12    9   10 1
    13   10   11 2
    14   10   13 1
    15   11   12 1
    16   13   14 2
    17   13   18 1
    18   14   15 1
    19   15   16 2
    20   16   17 1
    21   17   18 2
    22   17   19 1
    23   19   20 3
    24   21   22 1
    25   21   26 1
    26   22   23 1
    27   23   24 1
    28   24   25 1
    29   25   26 1
    30    2   27 1
    31    3   28 1
    32    6   29 1
    33    7   30 1
    34   11   31 1
    35   14   32 1
    36   16   33 1
    37   18   34 1
    38   22   35 1
    39   22   36 1
    40   23   37 1
    41   23   38 1
    42   25   39 1
    43   25   40 1
    44   26   41 1
    45   26   42 1
@<TRIPOS>PROPERTY_DATA
  Total_Score	| 6.6612
  Crash		| -1.1009
  Polar		| 1.8881
  FragIndex	| 1
  FragRMSD	| 0.350

