@<TRIPOS>MOLECULE
BindingDB_50379769
 53 56 0 0 0
SMALL
NO_CHARGES


@<TRIPOS>ATOM
1    O        24.8605   -1.1008    6.2743  O     
2    C        21.1683   -1.7575    8.2756  C     
3    C        20.9757   -2.9909    8.9534  C     
4    C        19.7758   -3.2347    9.6355  C     
5    N        18.7905   -2.3064    9.6078  N     
6    C        18.8974   -1.1127    8.9549  C     
7    C        20.1073   -0.8178    8.3023  C     
8    N        17.8932   -0.2040    8.9032  N     
9    C        16.6146   -0.3504    9.3200  C     
10   S        15.8289   -1.6645   10.1065  S     
11   C        14.3074   -0.8896   10.3194  C     
12   C        14.4815    0.3723    9.7214  C     
13   N        15.7135    0.6390    9.2058  N     
14   C        13.2060   -1.3778   11.0861  C     
15   C        12.2207   -0.4902   11.5786  C     
16   N        11.2447   -0.9262   12.4120  N     
17   C        11.1532   -2.2095   12.8204  C     
18   C        12.0896   -3.1711   12.3821  C     
19   C        13.1037   -2.7317   11.4895  C     
20   N        22.3141   -1.5106    7.5806  N     
21   C        23.0608   -0.2826    7.8146  C     
22   C        24.0686    0.0329    6.6804  C     
23   C        24.2563   -2.4076    6.3219  C     
24   C        22.7216   -2.4132    6.5216  C     
25   C        12.0095   -4.5744   12.8777  C     
26   C        13.2986   -5.1384   13.5428  C     
27   C        13.9529   -4.2543   14.6493  C     
28   N        13.9842   -4.9091   15.9615  N     
29   H        21.7251   -3.6870    9.0009  H     
30   H        19.6385   -4.1030   10.1542  H     
31   H        20.1821    0.0529    7.7741  H     
32   H        18.1320    0.6657    8.5426  H     
33   H        13.7405    1.0732    9.6793  H     
34   H        12.2323    0.5023   11.3491  H     
35   H        10.4034   -2.4599   13.4687  H     
36   H        13.7843   -3.4144   11.1463  H     
37   H        22.4256    0.5945    7.9324  H     
38   H        23.6167   -0.4061    8.7531  H     
39   H        24.7508    0.8223    7.0067  H     
40   H        23.5134    0.4028    5.8126  H     
41   H        24.4991   -2.9309    5.3960  H     
42   H        24.7185   -2.9530    7.1456  H     
43   H        22.3954   -3.4420    6.6744  H     
44   H        22.2426   -2.0667    5.5978  H     
45   H        11.2024   -4.6742   13.6100  H     
46   H        11.7404   -5.2157   12.0382  H     
47   H        13.0477   -6.1176   13.9576  H     
48   H        14.0411   -5.3197   12.7600  H     
49   H        14.9871   -4.0304   14.3717  H     
50   H        13.4341   -3.3011   14.7673  H     
51   H        13.0337   -5.0249   16.3226  H     
52   H        14.5165   -4.3367   16.6212  H     
53   H        14.4311   -5.8277   15.8779  H     
@<TRIPOS>BOND
     1    1   22 1
     2    1   23 1
     3    2    3 2
     4    2    7 1
     5    2   20 1
     6    3    4 1
     7    4    5 2
     8    5    6 1
     9    6    7 2
    10    6    8 1
    11    8    9 1
    12    9   10 1
    13    9   13 2
    14   10   11 1
    15   11   12 2
    16   11   14 1
    17   12   13 1
    18   14   15 2
    19   14   19 1
    20   15   16 1
    21   16   17 2
    22   17   18 1
    23   18   19 2
    24   18   25 1
    25   20   21 1
    26   20   24 1
    27   21   22 1
    28   23   24 1
    29   25   26 1
    30   26   27 1
    31   27   28 1
    32    3   29 1
    33    4   30 1
    34    7   31 1
    35    8   32 1
    36   12   33 1
    37   15   34 1
    38   17   35 1
    39   19   36 1
    40   21   37 1
    41   21   38 1
    42   22   39 1
    43   22   40 1
    44   23   41 1
    45   23   42 1
    46   24   43 1
    47   24   44 1
    48   25   45 1
    49   25   46 1
    50   26   47 1
    51   26   48 1
    52   27   49 1
    53   27   50 1
    54   28   51 1
    55   28   52 1
    56   28   53 1
@<TRIPOS>PROPERTY_DATA
  Total_Score	| 9.3865
  Crash		| -0.8013
  Polar		| 4.6996
  FragIndex	| 1
  FragRMSD	| 0.554

