@<TRIPOS>MOLECULE
BindingDB_50379636
 52 56 0 0 0
SMALL
NO_CHARGES


@<TRIPOS>ATOM
1    C        21.2604   -1.6303    8.1461  C     
2    C        20.9841   -2.8931    8.7484  C     
3    C        19.7239   -3.1843    9.2871  C     
4    N        18.7466   -2.2571    9.2205  N     
5    C        18.8975   -1.0343    8.6481  C     
6    C        20.1664   -0.7095    8.1067  C     
7    N        17.8704   -0.1273    8.6206  N     
8    C        16.6146   -0.2859    9.1109  C     
9    S        15.8892   -1.6311    9.9012  S     
10   C        14.3639   -0.9023   10.2272  C     
11   C        14.4838    0.3841    9.6738  C     
12   N        15.6772    0.6873    9.0924  N     
13   C        13.2897   -1.5154   10.9427  C     
14   C        13.2829   -2.9083   11.1837  C     
15   N        12.3090   -3.4806   11.9285  N     
16   C        11.2877   -2.7764   12.4678  C     
17   C        11.1816   -1.3829   12.2599  C     
18   C        12.2062   -0.7760   11.4810  C     
19   N        22.5197   -1.3517    7.6364  N     
20   C        23.1035   -0.0152    7.6334  C     
21   C        24.5292   -0.0191    8.2457  C     
22   N        25.3819   -1.0042    7.5454  N     
23   C        24.8068   -2.3645    7.5450  C     
24   C        23.3602   -2.3575    6.9764  C     
25   C        10.0924   -0.6381   12.8281  C     
26   C        10.2754    0.6608   13.3592  C     
27   C         9.2071    1.3788   13.9232  C     
28   C         7.9379    0.7879   13.9595  C     
29   N         7.7640   -0.4569   13.4669  N     
30   C         8.7789   -1.1713   12.9133  C     
31   H        21.6689   -3.6515    8.7611  H     
32   H        19.5309   -4.0978    9.7111  H     
33   H        20.2909    0.2319    7.7320  H     
34   H        18.0807    0.7479    8.2551  H     
35   H        13.7326    1.0738    9.7076  H     
36   H        14.0221   -3.5134   10.8229  H     
37   H        10.6114   -3.2772   13.0462  H     
38   H        12.1670    0.2285   11.3101  H     
39   H        23.1750    0.3147    6.5888  H     
40   H        22.5155    0.7440    8.1461  H     
41   H        24.9837    0.9708    8.1305  H     
42   H        24.4800   -0.2625    9.3125  H     
43   H        25.4964   -0.6996    6.5718  H     
44   H        26.3033   -1.0316    7.9967  H     
45   H        25.4408   -3.0127    6.9351  H     
46   H        24.8003   -2.7518    8.5709  H     
47   H        23.0088   -3.3833    7.1048  H     
48   H        23.3900   -2.1517    5.9002  H     
49   H        11.1987    1.0951   13.3630  H     
50   H         9.3494    2.3114   14.3057  H     
51   H         7.1454    1.2913   14.3570  H     
52   H         8.5639   -2.0980   12.5465  H     
@<TRIPOS>BOND
     1    1    2 2
     2    1    6 1
     3    1   19 1
     4    2    3 1
     5    3    4 2
     6    4    5 1
     7    5    6 2
     8    5    7 1
     9    7    8 1
    10    8    9 1
    11    8   12 2
    12    9   10 1
    13   10   11 2
    14   10   13 1
    15   11   12 1
    16   13   14 2
    17   13   18 1
    18   14   15 1
    19   15   16 2
    20   16   17 1
    21   17   18 2
    22   17   25 1
    23   19   20 1
    24   19   24 1
    25   20   21 1
    26   21   22 1
    27   22   23 1
    28   23   24 1
    29   25   26 2
    30   25   30 1
    31   26   27 1
    32   27   28 2
    33   28   29 1
    34   29   30 2
    35    2   31 1
    36    3   32 1
    37    6   33 1
    38    7   34 1
    39   11   35 1
    40   14   36 1
    41   16   37 1
    42   18   38 1
    43   20   39 1
    44   20   40 1
    45   21   41 1
    46   21   42 1
    47   22   43 1
    48   22   44 1
    49   23   45 1
    50   23   46 1
    51   24   47 1
    52   24   48 1
    53   26   49 1
    54   27   50 1
    55   28   51 1
    56   30   52 1
@<TRIPOS>PROPERTY_DATA
  Total_Score	| 7.7398
  Crash		| -2.8579
  Polar		| 2.2642
  FragIndex	| 1
  FragRMSD	| 0.194

