@<TRIPOS>MOLECULE
BindingDB_50379747
 45 48 0 0 0
SMALL
NO_CHARGES


@<TRIPOS>ATOM
1    C        21.0783   -3.2007    8.9651  C     
2    C        19.8079   -3.4378    9.4914  C     
3    N        18.8481   -2.4874    9.3962  N     
4    C        19.0342   -1.2867    8.7674  C     
5    C        20.2775   -1.0431    8.1463  C     
6    C        21.3221   -1.9951    8.2519  C     
7    N        18.1014   -0.3014    8.7530  N     
8    C        16.8493   -0.3505    9.2619  C     
9    S        15.9595   -1.6682    9.9273  S     
10   C        14.5356   -0.7847   10.3106  C     
11   C        14.8154    0.5241    9.8724  C     
12   N        16.0386    0.7193    9.3161  N     
13   C        13.3704   -1.2905   10.9507  C     
14   C        13.0661   -2.6740   10.9260  C     
15   C        11.9328   -3.1857   11.5742  C     
16   C        11.0800   -2.2904   12.2578  C     
17   N        11.3720   -0.9700   12.2680  N     
18   C        12.4615   -0.4503   11.6444  C     
19   N        22.5481   -1.7716    7.7294  N     
20   C        23.6492   -1.4591    8.6061  C     
21   C        24.1069   -0.0148    8.2310  C     
22   O        24.4657   -0.0004    6.8320  O     
23   C        23.3895   -0.3323    5.9378  C     
24   C        22.7670   -1.6982    6.3042  C     
25   C        25.3092    0.5016    9.0462  C     
26   O        25.5540    1.8779    8.7410  O     
27   H        21.8085   -3.9147    9.0495  H     
28   H        19.6055   -4.3137    9.9846  H     
29   H        20.4559   -0.1415    7.6917  H     
30   H        18.3880    0.5522    8.3879  H     
31   H        14.1501    1.2912    9.9677  H     
32   H        13.6746   -3.3321   10.4321  H     
33   H        11.7192   -4.1822   11.5527  H     
34   H        10.2504   -2.6373   12.7377  H     
35   H        12.6249    0.5540   11.7203  H     
36   H        23.3800   -1.4727    9.6654  H     
37   H        24.4602   -2.1853    8.4609  H     
38   H        23.2700    0.6679    8.4126  H     
39   H        22.6297    0.4518    5.9730  H     
40   H        23.7852   -0.3763    4.9269  H     
41   H        23.4628   -2.4901    6.0177  H     
42   H        21.8613   -1.8382    5.7215  H     
43   H        25.1134    0.3957   10.1172  H     
44   H        26.2075   -0.0662    8.7992  H     
45   H        24.8760    2.1379    8.0774  H     
@<TRIPOS>BOND
     1    1    2 2
     2    1    6 1
     3    2    3 1
     4    3    4 2
     5    4    5 1
     6    4    7 1
     7    5    6 2
     8    6   19 1
     9    7    8 1
    10    8    9 1
    11    8   12 2
    12    9   10 1
    13   10   11 2
    14   10   13 1
    15   11   12 1
    16   13   14 2
    17   13   18 1
    18   14   15 1
    19   15   16 2
    20   16   17 1
    21   17   18 2
    22   19   20 1
    23   19   24 1
    24   20   21 1
    25   21   22 1
    26   21   25 1
    27   22   23 1
    28   23   24 1
    29   25   26 1
    30    1   27 1
    31    2   28 1
    32    5   29 1
    33    7   30 1
    34   11   31 1
    35   14   32 1
    36   15   33 1
    37   16   34 1
    38   18   35 1
    39   20   36 1
    40   20   37 1
    41   21   38 1
    42   23   39 1
    43   23   40 1
    44   24   41 1
    45   24   42 1
    46   25   43 1
    47   25   44 1
    48   26   45 1
@<TRIPOS>PROPERTY_DATA
  Total_Score	| 7.4789
  Crash		| -1.2145
  Polar		| 3.0449
  FragIndex	| 1
  FragRMSD	| 0.846

