@<TRIPOS>MOLECULE
BindingDB_50379628
 46 49 0 0 0
SMALL
NO_CHARGES


@<TRIPOS>ATOM
1    C        21.3038   -1.7293    8.2389  C     
2    C        21.0020   -3.0248    8.7488  C     
3    C        19.7253   -3.3344    9.2420  C     
4    N        18.7532   -2.3970    9.2206  N     
5    C        18.9398   -1.1499    8.7219  C     
6    C        20.2118   -0.8125    8.2117  C     
7    N        17.9669   -0.1973    8.7355  N     
8    C        16.7090   -0.2884    9.2230  C     
9    S        15.8465   -1.6098    9.9157  S     
10   C        14.4240   -0.7227   10.3013  C     
11   C        14.6806    0.5796    9.8461  C     
12   N        15.8953    0.7851    9.2778  N     
13   N        22.5741   -1.3947    7.7915  N     
14   C        23.0237   -0.0137    7.6449  C     
15   C        24.4974    0.1828    8.1015  C     
16   N        25.4409   -0.8527    7.6089  N     
17   C        24.8514   -1.9214    6.7775  C     
18   C        23.5326   -2.4326    7.4119  C     
19   C        13.2733   -1.2034   10.9787  C     
20   C        12.8885   -2.5633   10.9237  C     
21   C        11.7335   -3.0152   11.5904  C     
22   C        10.9648   -2.0973   12.3366  C     
23   N        11.3634   -0.8006   12.3888  N     
24   C        12.4625   -0.3350   11.7460  C     
25   C         9.7417   -2.5069   13.0496  C     
26   H        21.7074   -3.7584    8.8045  H     
27   H        19.5263   -4.2576    9.6271  H     
28   H        20.3156    0.1096    7.7873  H     
29   H        18.2398    0.6834    8.4336  H     
30   H        14.0082    1.3421    9.9349  H     
31   H        22.9350    0.2659    6.5905  H     
32   H        22.4374    0.6985    8.2280  H     
33   H        24.8535    1.1606    7.7701  H     
34   H        24.5317    0.1704    9.1952  H     
35   H        26.1776   -0.3933    7.0680  H     
36   H        25.8763   -1.2949    8.4234  H     
37   H        24.6536   -1.5307    5.7759  H     
38   H        25.5683   -2.7393    6.6867  H     
39   H        23.8111   -3.0043    8.3009  H     
40   H        23.0662   -3.1144    6.6915  H     
41   H        13.4395   -3.2400   10.3889  H     
42   H        11.4595   -4.0002   11.5280  H     
43   H        12.6972    0.6524   11.8516  H     
44   H         9.0039   -2.8715   12.3330  H     
45   H         9.3030   -1.6667   13.5957  H     
46   H         9.9763   -3.2991   13.7639  H     
@<TRIPOS>BOND
     1    1    2 2
     2    1    6 1
     3    1   13 1
     4    2    3 1
     5    3    4 2
     6    4    5 1
     7    5    6 2
     8    5    7 1
     9    7    8 1
    10    8    9 1
    11    8   12 2
    12    9   10 1
    13   10   11 2
    14   10   19 1
    15   11   12 1
    16   13   14 1
    17   13   18 1
    18   14   15 1
    19   15   16 1
    20   16   17 1
    21   17   18 1
    22   19   20 2
    23   19   24 1
    24   20   21 1
    25   21   22 2
    26   22   23 1
    27   22   25 1
    28   23   24 2
    29    2   26 1
    30    3   27 1
    31    6   28 1
    32    7   29 1
    33   11   30 1
    34   14   31 1
    35   14   32 1
    36   15   33 1
    37   15   34 1
    38   16   35 1
    39   16   36 1
    40   17   37 1
    41   17   38 1
    42   18   39 1
    43   18   40 1
    44   20   41 1
    45   21   42 1
    46   24   43 1
    47   25   44 1
    48   25   45 1
    49   25   46 1
@<TRIPOS>PROPERTY_DATA
  Total_Score	| 7.5349
  Crash		| -1.1157
  Polar		| 1.9499
  FragIndex	| 1
  FragRMSD	| 0.327

