@<TRIPOS>MOLECULE
BindingDB_50379758
 44 47 0 0 0
SMALL
NO_CHARGES


@<TRIPOS>ATOM
1    C        21.4046   -1.7877    8.4035  C     
2    C        21.0692   -3.0859    8.8823  C     
3    C        19.7746   -3.3835    9.3339  C     
4    N        18.8169   -2.4338    9.2875  N     
5    C        19.0316   -1.1834    8.8099  C     
6    C        20.3273   -0.8544    8.3508  C     
7    N        18.0531   -0.2336    8.7870  N     
8    C        16.7829   -0.3343    9.2433  C     
9    S        15.9378   -1.6619    9.9433  S     
10   C        14.4776   -0.8134   10.2672  C     
11   C        14.7109    0.4855    9.7886  C     
12   N        15.9361    0.7156    9.2506  N     
13   C        13.3264   -1.3299   10.9201  C     
14   C        13.0446   -2.7146   10.9325  C     
15   N        11.9410   -3.1932   11.5593  N     
16   C        11.0607   -2.3960   12.2100  C     
17   C        11.2826   -1.0067   12.2542  C     
18   C        12.4235   -0.4845   11.6068  C     
19   C        10.4512   -0.2218   12.8773  C     
20   N         9.7260    0.4727   13.4337  N     
21   N        22.7028   -1.4777    8.0234  N     
22   C        23.2304   -0.1206    7.9904  C     
23   C        23.9478    0.1833    6.6467  C     
24   N        24.6617   -0.9806    6.0666  N     
25   C        24.9837   -2.0550    7.0262  C     
26   C        23.6756   -2.5285    7.7185  C     
27   H        21.7655   -3.8275    8.9589  H     
28   H        19.5523   -4.3066    9.7054  H     
29   H        20.4564    0.0699    7.9422  H     
30   H        18.3231    0.6434    8.4723  H     
31   H        14.0132    1.2288    9.8363  H     
32   H        13.6570   -3.3832   10.4654  H     
33   H        10.2483   -2.8231   12.6625  H     
34   H        12.6117    0.5200   11.6586  H     
35   H        22.5131    0.6722    8.1905  H     
36   H        23.9691   -0.0458    8.7947  H     
37   H        23.2093    0.5193    5.9139  H     
38   H        24.6688    0.9908    6.7970  H     
39   H        24.0661   -1.3810    5.3381  H     
40   H        25.5267   -0.6544    5.6293  H     
41   H        25.4521   -2.8851    6.4924  H     
42   H        25.6962   -1.6826    7.7679  H     
43   H        23.9519   -3.0559    8.6348  H     
44   H        23.2068   -3.2447    7.0359  H     
@<TRIPOS>BOND
     1    1    2 2
     2    1    6 1
     3    1   21 1
     4    2    3 1
     5    3    4 2
     6    4    5 1
     7    5    6 2
     8    5    7 1
     9    7    8 1
    10    8    9 1
    11    8   12 2
    12    9   10 1
    13   10   11 2
    14   10   13 1
    15   11   12 1
    16   13   14 2
    17   13   18 1
    18   14   15 1
    19   15   16 2
    20   16   17 1
    21   17   18 2
    22   17   19 1
    23   19   20 3
    24   21   22 1
    25   21   26 1
    26   22   23 1
    27   23   24 1
    28   24   25 1
    29   25   26 1
    30    2   27 1
    31    3   28 1
    32    6   29 1
    33    7   30 1
    34   11   31 1
    35   14   32 1
    36   16   33 1
    37   18   34 1
    38   22   35 1
    39   22   36 1
    40   23   37 1
    41   23   38 1
    42   24   39 1
    43   24   40 1
    44   25   41 1
    45   25   42 1
    46   26   43 1
    47   26   44 1
@<TRIPOS>PROPERTY_DATA
  Total_Score	| 6.6578
  Crash		| -1.1040
  Polar		| 1.9461
  FragIndex	| 1
  FragRMSD	| 1.151

