@<TRIPOS>MOLECULE
BindingDB_50379633
 49 53 0 0 0
SMALL
NO_CHARGES


@<TRIPOS>ATOM
1    C        21.3037   -1.6968    8.0494  C     
2    C        21.0805   -2.9999    8.5662  C     
3    C        19.8630   -3.3184    9.1783  C     
4    N        18.8879   -2.3864    9.2563  N     
5    C        19.0138   -1.1240    8.7763  C     
6    C        20.2368   -0.7625    8.1791  C     
7    N        18.0174   -0.1942    8.8518  N     
8    C        16.7561   -0.3537    9.3011  C     
9    S        16.0081   -1.7514    9.9719  S     
10   C        14.4857   -1.0166   10.2956  C     
11   C        14.6291    0.3116    9.8357  C     
12   N        15.8427    0.6469    9.3238  N     
13   C        13.4069   -1.6205   11.0173  C     
14   C        13.4538   -2.9822   11.4086  C     
15   N        12.5166   -3.5174   12.2322  N     
16   C        11.4592   -2.7996   12.6998  C     
17   C        11.2631   -1.4379   12.3279  C     
18   C        12.2758   -0.8852   11.4730  C     
19   N        22.4861   -1.3498    7.4471  N     
20   C        23.0278   -0.0013    7.5192  C     
21   C        24.4672   -0.0539    8.0923  C     
22   O        25.2848   -1.0051    7.3746  O     
23   C        24.7248   -2.3330    7.3113  C     
24   C        23.3057   -2.2924    6.7019  C     
25   C        10.1523   -0.6427   12.8326  C     
26   C         8.8163   -1.1202   13.0043  C     
27   N         7.8193   -0.3321   13.4976  N     
28   C         8.0594    0.9664   13.8199  C     
29   N         9.3058    1.4738   13.7041  N     
30   C        10.3306    0.7191   13.2339  C     
31   H        21.8151   -3.7095    8.5488  H     
32   H        19.7015   -4.2543    9.5537  H     
33   H        20.3361    0.1722    7.7727  H     
34   H        18.2547    0.7007    8.5676  H     
35   H        13.8931    1.0276    9.9113  H     
36   H        14.2106   -3.6026   11.0987  H     
37   H        10.8233   -3.2855   13.3373  H     
38   H        12.2030    0.0938   11.1853  H     
39   H        23.0508    0.4326    6.5152  H     
40   H        22.4489    0.6667    8.1644  H     
41   H        24.9346    0.9306    8.0030  H     
42   H        24.4363   -0.3136    9.1555  H     
43   H        25.3666   -2.9435    6.6686  H     
44   H        24.7030   -2.7900    8.3044  H     
45   H        22.8929   -3.3035    6.6442  H     
46   H        23.3787   -1.9331    5.6720  H     
47   H         8.5439   -2.0856   12.7838  H     
48   H         7.3151    1.5508   14.1787  H     
49   H        11.2601    1.1426   13.2343  H     
@<TRIPOS>BOND
     1    1    2 2
     2    1    6 1
     3    1   19 1
     4    2    3 1
     5    3    4 2
     6    4    5 1
     7    5    6 2
     8    5    7 1
     9    7    8 1
    10    8    9 1
    11    8   12 2
    12    9   10 1
    13   10   11 2
    14   10   13 1
    15   11   12 1
    16   13   14 2
    17   13   18 1
    18   14   15 1
    19   15   16 2
    20   16   17 1
    21   17   18 2
    22   17   25 1
    23   19   20 1
    24   19   24 1
    25   20   21 1
    26   21   22 1
    27   22   23 1
    28   23   24 1
    29   25   26 2
    30   25   30 1
    31   26   27 1
    32   27   28 2
    33   28   29 1
    34   29   30 2
    35    2   31 1
    36    3   32 1
    37    6   33 1
    38    7   34 1
    39   11   35 1
    40   14   36 1
    41   16   37 1
    42   18   38 1
    43   20   39 1
    44   20   40 1
    45   21   41 1
    46   21   42 1
    47   23   43 1
    48   23   44 1
    49   24   45 1
    50   24   46 1
    51   26   47 1
    52   28   48 1
    53   30   49 1
@<TRIPOS>PROPERTY_DATA
  Total_Score	| 8.4864
  Crash		| -2.3714
  Polar		| 2.8609
  FragIndex	| 1
  FragRMSD	| 1.025

