@<TRIPOS>MOLECULE
BindingDB_50379623
 50 54 0 0 0
SMALL
NO_CHARGES


@<TRIPOS>ATOM
1    C        21.2470   -1.6642    8.0626  C     
2    C        21.0837   -2.9111    8.7225  C     
3    C        19.8560   -3.2530    9.3123  C     
4    N        18.8254   -2.3813    9.2622  N     
5    C        18.8974   -1.1711    8.6518  C     
6    C        20.1165   -0.8033    8.0402  C     
7    N        17.8531   -0.2948    8.6287  N     
8    C        16.6226   -0.4447    9.1758  C     
9    S        15.9672   -1.7545   10.0717  S     
10   C        14.4253   -1.0548   10.3692  C     
11   C        14.4866    0.1967    9.7312  C     
12   N        15.6600    0.4991    9.1110  N     
13   C        13.3926   -1.6380   11.1621  C     
14   C        13.4864   -2.9715   11.6348  C     
15   N        12.5403   -3.4852   12.4588  N     
16   C        11.4646   -2.7773   12.8726  C     
17   C        11.2798   -1.4399   12.4446  C     
18   C        12.2613   -0.8944   11.5772  C     
19   N        22.4460   -1.3033    7.4817  N     
20   C        22.9130    0.0707    7.4428  C     
21   C        24.3029    0.1650    8.1252  C     
22   O        25.2273   -0.8011    7.5920  O     
23   C        24.7402   -2.1581    7.6513  C     
24   C        23.3825   -2.2616    6.9172  C     
25   C        10.1734   -0.6665   12.9097  C     
26   C        10.3361    0.6959   13.2815  C     
27   C         9.2474    1.4577   13.7387  C     
28   C         7.9888    0.8400   13.8452  C     
29   N         7.8405   -0.4665   13.5035  N     
30   C         8.8727   -1.2224   13.0462  C     
31   H        21.8655   -3.5564    8.8424  H     
32   H        19.7473   -4.1386    9.8033  H     
33   H        20.1505    0.0837    7.5367  H     
34   H        18.0213    0.5547    8.1911  H     
35   H        13.7156    0.8654    9.7307  H     
36   H        14.2668   -3.5790   11.3795  H     
37   H        10.8113   -3.2264   13.5216  H     
38   H        12.1419    0.0638   11.2406  H     
39   H        22.9972    0.3967    6.4028  H     
40   H        22.2630    0.7762    7.9611  H     
41   H        24.7241    1.1600    7.9657  H     
42   H        24.1970    0.0184    9.2007  H     
43   H        25.4711   -2.8063    7.1689  H     
44   H        24.6339   -2.4760    8.6900  H     
45   H        23.0385   -3.2962    6.9339  H     
46   H        23.5427   -2.0182    5.8632  H     
47   H        11.2583    1.1374   13.2525  H     
48   H         9.3673    2.4405   14.0068  H     
49   H         7.1901    1.3724   14.1843  H     
50   H         8.6801   -2.1978   12.7889  H     
@<TRIPOS>BOND
     1    1    2 2
     2    1    6 1
     3    1   19 1
     4    2    3 1
     5    3    4 2
     6    4    5 1
     7    5    6 2
     8    5    7 1
     9    7    8 1
    10    8    9 1
    11    8   12 2
    12    9   10 1
    13   10   11 2
    14   10   13 1
    15   11   12 1
    16   13   14 2
    17   13   18 1
    18   14   15 1
    19   15   16 2
    20   16   17 1
    21   17   18 2
    22   17   25 1
    23   19   20 1
    24   19   24 1
    25   20   21 1
    26   21   22 1
    27   22   23 1
    28   23   24 1
    29   25   26 1
    30   25   30 2
    31   26   27 2
    32   27   28 1
    33   28   29 2
    34   29   30 1
    35    2   31 1
    36    3   32 1
    37    6   33 1
    38    7   34 1
    39   11   35 1
    40   14   36 1
    41   16   37 1
    42   18   38 1
    43   20   39 1
    44   20   40 1
    45   21   41 1
    46   21   42 1
    47   23   43 1
    48   23   44 1
    49   24   45 1
    50   24   46 1
    51   26   47 1
    52   27   48 1
    53   28   49 1
    54   30   50 1
@<TRIPOS>PROPERTY_DATA
  Total_Score	| 7.6156
  Crash		| -2.8262
  Polar		| 2.0211
  FragIndex	| 1
  FragRMSD	| 0.128

