@<TRIPOS>MOLECULE
BindingDB_50379631
 43 46 0 0 0
SMALL
NO_CHARGES


@<TRIPOS>ATOM
1    C        21.4204   -1.7533    8.1395  C     
2    C        21.1507   -3.1051    8.4606  C     
3    C        19.8877   -3.4533    8.9767  C     
4    N        18.9103   -2.5195    9.0755  N     
5    C        19.0992   -1.2160    8.7405  C     
6    C        20.3707   -0.8080    8.2927  C     
7    N        18.1151   -0.2813    8.7525  N     
8    C        16.8423   -0.4051    9.1828  C     
9    S        16.0470   -1.6737   10.0307  S     
10   C        14.5407   -0.8654   10.2324  C     
11   C        14.7214    0.3651    9.5709  C     
12   N        15.9458    0.5838    9.0313  N     
13   C        13.4241   -1.3055   11.0065  C     
14   C        12.3422   -0.4394   11.3089  C     
15   N        11.3367   -0.8326   12.1298  N     
16   C        11.2989   -2.0585   12.7030  C     
17   C        12.3203   -2.9802   12.4353  C     
18   C        13.3771   -2.6019   11.5831  C     
19   N        22.6394   -1.3661    7.6636  N     
20   C        23.4415   -0.4230    8.4265  C     
21   C        24.8258   -0.1249    7.7970  C     
22   N        24.6296    0.1984    6.3724  N     
23   C        23.8746   -0.8223    5.5938  C     
24   C        23.1838   -1.9343    6.4473  C     
25   Br       12.3004   -4.6485   13.2561  Br    
26   H        21.8828   -3.8192    8.3968  H     
27   H        19.6864   -4.4203    9.2341  H     
28   H        20.5105    0.1642    7.9889  H     
29   H        18.3575    0.5847    8.3917  H     
30   H        13.9965    1.0734    9.5000  H     
31   H        12.3044    0.5138   10.9430  H     
32   H        10.5276   -2.3011   13.3242  H     
33   H        14.1254   -3.2726   11.4091  H     
34   H        22.9209    0.5368    8.5369  H     
35   H        23.6160   -0.8297    9.4245  H     
36   H        25.3091    0.7075    8.3110  H     
37   H        25.4724   -1.0048    7.8697  H     
38   H        24.1247    1.0881    6.3424  H     
39   H        25.5451    0.3390    5.9311  H     
40   H        23.1086   -0.2977    5.0175  H     
41   H        24.5606   -1.2925    4.8889  H     
42   H        23.9265   -2.6955    6.7209  H     
43   H        22.4084   -2.4128    5.8383  H     
@<TRIPOS>BOND
     1    1    2 2
     2    1    6 1
     3    1   19 1
     4    2    3 1
     5    3    4 2
     6    4    5 1
     7    5    6 2
     8    5    7 1
     9    7    8 1
    10    8    9 1
    11    8   12 2
    12    9   10 1
    13   10   11 2
    14   10   13 1
    15   11   12 1
    16   13   14 2
    17   13   18 1
    18   14   15 1
    19   15   16 2
    20   16   17 1
    21   17   18 2
    22   17   25 1
    23   19   20 1
    24   19   24 1
    25   20   21 1
    26   21   22 1
    27   22   23 1
    28   23   24 1
    29    2   26 1
    30    3   27 1
    31    6   28 1
    32    7   29 1
    33   11   30 1
    34   14   31 1
    35   16   32 1
    36   18   33 1
    37   20   34 1
    38   20   35 1
    39   21   36 1
    40   21   37 1
    41   22   38 1
    42   22   39 1
    43   23   40 1
    44   23   41 1
    45   24   42 1
    46   24   43 1
@<TRIPOS>PROPERTY_DATA
  Total_Score	| 6.6172
  Crash		| -1.2768
  Polar		| 3.2174
  FragIndex	| 1
  FragRMSD	| 0.846

