@<TRIPOS>MOLECULE
BindingDB_50379625
 61 65 0 0 0
SMALL
NO_CHARGES


@<TRIPOS>ATOM
1    C        21.4200   -1.9195    8.6507  C     
2    C        21.0306   -3.1302    9.2955  C     
3    C        19.7003   -3.3778    9.6543  C     
4    N        18.7737   -2.4279    9.4305  N     
5    C        19.0416   -1.2349    8.8458  C     
6    C        20.3704   -0.9767    8.4319  C     
7    N        18.0821   -0.2674    8.7447  N     
8    C        16.8029   -0.3337    9.1911  C     
9    S        15.9148   -1.6536    9.8523  S     
10   C        14.4902   -0.7725   10.2317  C     
11   C        14.7643    0.5338    9.7970  C     
12   N        15.9902    0.7410    9.2480  N     
13   N        22.7446   -1.6819    8.3108  N     
14   C        23.3536   -0.3586    8.2267  C     
15   C        24.1867   -0.1643    6.9293  C     
16   N        25.0982   -1.2987    6.5587  N     
17   C        24.4757   -2.6333    6.8052  C     
18   C        23.7215   -2.7460    8.1561  C     
19   C        26.5700   -1.1962    6.8740  C     
20   C        27.0064   -1.2053    8.2766  C     
21   O        26.7415   -0.1598    8.8468  O     
22   N        27.7155   -2.1297    8.9658  N     
23   C        27.9587   -1.9966   10.4034  C     
24   C        27.5668   -3.3014   11.1435  C     
25   O        28.2248   -4.4393   10.5549  O     
26   C        27.9609   -4.5784    9.1450  C     
27   C        28.3670   -3.2920    8.3811  C     
28   C        13.3490   -1.2806   10.9092  C     
29   C        12.4750   -0.4276   11.6240  C     
30   C        11.3692   -0.9434   12.3245  C     
31   C        11.1389   -2.3286   12.3075  C     
32   N        11.9843   -3.1376   11.6227  N     
33   C        13.0601   -2.6665   10.9415  C     
34   H        21.7066   -3.8336    9.5861  H     
35   H        19.4350   -4.2431   10.1263  H     
36   H        20.5502   -0.0948    7.9520  H     
37   H        18.3839    0.6020    8.4388  H     
38   H        14.0983    1.3003    9.8912  H     
39   H        22.6479    0.4661    8.3037  H     
40   H        24.0276   -0.2409    9.0780  H     
41   H        23.4760   -0.0463    6.1073  H     
42   H        24.7420    0.7744    6.9971  H     
43   H        25.1068   -1.2367    5.5373  H     
44   H        23.7530   -2.8105    6.0030  H     
45   H        25.2199   -3.4329    6.7380  H     
46   H        24.4103   -2.6663    9.0018  H     
47   H        23.3132   -3.7553    8.1576  H     
48   H        27.0121   -2.0222    6.3269  H     
49   H        26.9773   -0.2959    6.4041  H     
50   H        29.0230   -1.8009   10.5673  H     
51   H        27.4082   -1.1814   10.8821  H     
52   H        27.8707   -3.2320   12.1899  H     
53   H        26.4815   -3.4391   11.1152  H     
54   H        28.5456   -5.4211    8.7711  H     
55   H        26.9026   -4.8010    8.9760  H     
56   H        28.1792   -3.4612    7.3249  H     
57   H        29.4494   -3.1610    8.4769  H     
58   H        12.6509    0.5775   11.6682  H     
59   H        10.7463   -0.3192   12.8434  H     
60   H        10.3444   -2.7301   12.8082  H     
61   H        13.6489   -3.3419   10.4520  H     
@<TRIPOS>BOND
     1    1    2 2
     2    1    6 1
     3    1   13 1
     4    2    3 1
     5    3    4 2
     6    4    5 1
     7    5    6 2
     8    5    7 1
     9    7    8 1
    10    8    9 1
    11    8   12 2
    12    9   10 1
    13   10   11 2
    14   10   28 1
    15   11   12 1
    16   13   14 1
    17   13   18 1
    18   14   15 1
    19   15   16 1
    20   16   17 1
    21   16   19 1
    22   17   18 1
    23   19   20 1
    24   20   21 2
    25   20   22 am
    26   22   23 1
    27   22   27 1
    28   23   24 1
    29   24   25 1
    30   25   26 1
    31   26   27 1
    32   28   29 2
    33   28   33 1
    34   29   30 1
    35   30   31 2
    36   31   32 1
    37   32   33 2
    38    2   34 1
    39    3   35 1
    40    6   36 1
    41    7   37 1
    42   11   38 1
    43   14   39 1
    44   14   40 1
    45   15   41 1
    46   15   42 1
    47   16   43 1
    48   17   44 1
    49   17   45 1
    50   18   46 1
    51   18   47 1
    52   19   48 1
    53   19   49 1
    54   23   50 1
    55   23   51 1
    56   24   52 1
    57   24   53 1
    58   26   54 1
    59   26   55 1
    60   27   56 1
    61   27   57 1
    62   29   58 1
    63   30   59 1
    64   31   60 1
    65   33   61 1
@<TRIPOS>PROPERTY_DATA
  Total_Score	| 6.0714
  Crash		| -0.7523
  Polar		| 1.9358
  FragIndex	| 1
  FragRMSD	| 1.276

