@<TRIPOS>MOLECULE
BindingDB_50266254
 47 50 0 0 0
SMALL
NO_CHARGES


@<TRIPOS>ATOM
1    C        -2.1361  -24.3950   30.9349  C     
2    C        -2.2505  -25.8038   30.8386  C     
3    C        -1.6005  -26.4562   29.7649  C     
4    C        -1.4054  -23.6277   29.9931  C     
5    C        -0.7818  -24.3114   28.9201  C     
6    C        -0.8695  -25.7188   28.8180  C     
7    N        -0.2043  -26.3363   27.8100  N     
8    C         0.5093  -25.6912   26.9009  C     
9    C         0.6152  -24.2879   26.9235  C     
10   N        -0.0368  -23.6828   27.9596  N     
11   N         1.2928  -23.5126   26.0054  N     
12   C         1.8406  -24.0114   24.7546  C     
13   C         3.3714  -23.7587   24.7136  C     
14   N         3.7293  -22.3254   24.9523  N     
15   C         3.0532  -21.7892   26.1750  C     
16   C         1.5289  -22.0906   26.2175  C     
17   C         3.5785  -21.4554   23.7502  C     
18   C        -3.0276  -26.5477   31.8714  C     
19   F        -3.0883  -27.9069   31.6729  F     
20   F        -2.4663  -26.3477   33.1098  F     
21   F        -4.3259  -26.0975   31.9023  F     
22   C        -1.2731  -22.2173   30.1738  C     
23   C        -1.5570  -21.3026   29.1301  C     
24   C        -1.4193  -19.9150   29.3272  C     
25   C        -0.9992  -19.4191   30.5731  C     
26   C        -0.7098  -20.3114   31.6204  C     
27   C        -0.8441  -21.6969   31.4186  C     
28   H        -2.6006  -23.9182   31.7137  H     
29   H        -1.6427  -27.4734   29.6702  H     
30   H         0.9964  -26.2469   26.2467  H     
31   H         1.6674  -25.0687   24.5656  H     
32   H         1.3624  -23.4850   23.9239  H     
33   H         3.8420  -24.3645   25.4935  H     
34   H         3.7736  -24.1067   23.7580  H     
35   H         4.7308  -22.3183   25.1601  H     
36   H         3.5228  -22.2497   27.0486  H     
37   H         3.2133  -20.7111   26.2677  H     
38   H         1.0207  -21.5195   25.4358  H     
39   H         1.1536  -21.7126   27.1712  H     
40   H         2.5366  -21.3707   23.4368  H     
41   H         4.1605  -21.8560   22.9179  H     
42   H         3.9597  -20.4544   23.9610  H     
43   H        -1.8770  -21.6367   28.2191  H     
44   H        -1.6261  -19.2667   28.5635  H     
45   H        -0.8965  -18.4117   30.7162  H     
46   H        -0.3948  -19.9554   32.5253  H     
47   H        -0.6150  -22.3269   32.1884  H     
@<TRIPOS>BOND
     1    1    2 2
     2    1    4 1
     3    2    3 1
     4    2   18 1
     5    3    6 2
     6    4    5 2
     7    4   22 1
     8    5    6 1
     9    5   10 1
    10    6    7 1
    11    7    8 2
    12    8    9 1
    13    9   10 2
    14    9   11 1
    15   11   12 1
    16   11   16 1
    17   12   13 1
    18   13   14 1
    19   14   15 1
    20   14   17 1
    21   15   16 1
    22   18   19 1
    23   18   20 1
    24   18   21 1
    25   22   23 2
    26   22   27 1
    27   23   24 1
    28   24   25 2
    29   25   26 1
    30   26   27 2
    31    1   28 1
    32    3   29 1
    33    8   30 1
    34   12   31 1
    35   12   32 1
    36   13   33 1
    37   13   34 1
    38   14   35 1
    39   15   36 1
    40   15   37 1
    41   16   38 1
    42   16   39 1
    43   17   40 1
    44   17   41 1
    45   17   42 1
    46   23   43 1
    47   24   44 1
    48   25   45 1
    49   26   46 1
    50   27   47 1
@<TRIPOS>PROPERTY_DATA
  Total_Score	| 7.2838
  Crash		| -0.7753
  Polar		| 1.1527
  FragIndex	| 1
  FragRMSD	| 0.334

