@<TRIPOS>MOLECULE
BindingDB_50266289
 44 47 0 0 0
SMALL
NO_CHARGES


@<TRIPOS>ATOM
1    C        -2.1758  -24.3539   30.8260  C     
2    C        -2.2680  -25.7568   30.7562  C     
3    C        -1.5658  -26.4547   29.7563  C     
4    C        -1.3816  -23.6032   29.9123  C     
5    C        -0.7239  -24.3230   28.8728  C     
6    C        -0.8165  -25.7371   28.8103  C     
7    N        -0.1380  -26.3930   27.8282  N     
8    C         0.5996  -25.7808   26.9135  C     
9    C         0.6980  -24.3845   26.8737  C     
10   N         0.0360  -23.7413   27.9125  N     
11   N         1.3641  -23.6147   25.9506  N     
12   C         1.9806  -24.1335   24.7326  C     
13   C         3.4896  -23.7824   24.7124  C     
14   N         3.7604  -22.3225   24.9088  N     
15   C         3.0128  -21.7708   26.0796  C     
16   C         1.5125  -22.1764   26.1125  C     
17   C         3.5882  -21.5016   23.6783  C     
18   C        -1.2371  -22.1805   30.1209  C     
19   C        -0.8654  -21.6898   31.4027  C     
20   C        -0.6981  -20.3072   31.6438  C     
21   C        -0.9069  -19.3822   30.6065  C     
22   C        -1.3070  -19.8422   29.3354  C     
23   C        -1.4677  -21.2240   29.0929  C     
24   H        -2.6973  -23.8962   31.5806  H     
25   H        -2.8276  -26.2618   31.4463  H     
26   H        -1.6079  -27.4811   29.7337  H     
27   H         1.0951  -26.3687   26.2832  H     
28   H         1.9027  -25.2091   24.6025  H     
29   H         1.4980  -23.6889   23.8579  H     
30   H         3.9905  -24.3363   25.5176  H     
31   H         3.9355  -24.1350   23.7768  H     
32   H         4.7495  -22.2523   25.1471  H     
33   H         3.4942  -22.1402   26.9881  H     
34   H         3.0919  -20.6790   26.1118  H     
35   H         0.9713  -21.6489   25.3203  H     
36   H         1.1211  -21.7916   27.0565  H     
37   H         2.5471  -21.4779   23.3498  H     
38   H         4.2066  -21.8938   22.8677  H     
39   H         3.9161  -20.4768   23.8727  H     
40   H        -0.6995  -22.3198   32.1857  H     
41   H        -0.4088  -19.9877   32.5674  H     
42   H        -0.7622  -18.3852   30.7717  H     
43   H        -1.5072  -19.1753   28.5919  H     
44   H        -1.7920  -21.4931   28.1656  H     
@<TRIPOS>BOND
     1    1    2 2
     2    1    4 1
     3    2    3 1
     4    3    6 2
     5    4    5 2
     6    4   18 1
     7    5    6 1
     8    5   10 1
     9    6    7 1
    10    7    8 2
    11    8    9 1
    12    9   10 2
    13    9   11 1
    14   11   12 1
    15   11   16 1
    16   12   13 1
    17   13   14 1
    18   14   15 1
    19   14   17 1
    20   15   16 1
    21   18   19 2
    22   18   23 1
    23   19   20 1
    24   20   21 2
    25   21   22 1
    26   22   23 2
    27    1   24 1
    28    2   25 1
    29    3   26 1
    30    8   27 1
    31   12   28 1
    32   12   29 1
    33   13   30 1
    34   13   31 1
    35   14   32 1
    36   15   33 1
    37   15   34 1
    38   16   35 1
    39   16   36 1
    40   17   37 1
    41   17   38 1
    42   17   39 1
    43   19   40 1
    44   20   41 1
    45   21   42 1
    46   22   43 1
    47   23   44 1
@<TRIPOS>PROPERTY_DATA
  Total_Score	| 5.6923
  Crash		| -0.5448
  Polar		| 1.1361
  FragIndex	| 1
  FragRMSD	| 0.374

