@<TRIPOS>MOLECULE
BindingDB_50266327
 47 50 0 0 0
SMALL
NO_CHARGES


@<TRIPOS>ATOM
1    C        -2.1261  -24.3556   30.9988  C     
2    C        -2.1977  -25.7675   30.9576  C     
3    C        -1.5784  -26.4537   29.8881  C     
4    C        -1.4399  -23.6151   30.0050  C     
5    C        -0.8359  -24.3228   28.9387  C     
6    C        -0.8934  -25.7361   28.8908  C     
7    N        -0.2399  -26.3764   27.8850  N     
8    C         0.4383  -25.7432   26.9357  C     
9    C         0.5136  -24.3346   26.9094  C     
10   N        -0.1311  -23.7104   27.9393  N     
11   N         1.1569  -23.5730   25.9567  N     
12   C         1.7058  -24.0927   24.7173  C     
13   C         3.2298  -23.8151   24.6637  C     
14   N         3.5203  -22.3577   24.8352  N     
15   C         2.8739  -21.8015   26.0635  C     
16   C         1.3570  -22.1423   26.1077  C     
17   C         4.9806  -22.0610   24.7658  C     
18   C        -1.3094  -22.2051   30.1416  C     
19   C        -1.5843  -21.3248   29.0696  C     
20   C        -1.4592  -19.9293   29.2338  C     
21   C        -1.0553  -19.3943   30.4721  C     
22   C        -0.7608  -20.2620   31.5423  C     
23   C        -0.8797  -21.6531   31.3733  C     
24   C        -2.8779  -26.4915   32.0590  C     
25   H        -2.5751  -23.8632   31.7765  H     
26   H        -1.6009  -27.4741   29.8463  H     
27   H         0.9131  -26.3093   26.2751  H     
28   H         1.5440  -25.1538   24.5500  H     
29   H         1.2221  -23.5846   23.8777  H     
30   H         3.7275  -24.3985   25.4448  H     
31   H         3.6089  -24.1534   23.6950  H     
32   H         3.0921  -21.8777   24.0382  H     
33   H         3.3611  -22.2009   26.9572  H     
34   H         2.9859  -20.7132   26.0777  H     
35   H         0.8477  -21.6185   25.2926  H     
36   H         0.9529  -21.7342   27.0364  H     
37   H         5.5241  -22.5412   25.5837  H     
38   H         5.1545  -20.9841   24.8178  H     
39   H         5.3941  -22.4150   23.8192  H     
40   H        -1.8973  -21.6842   28.1643  H     
41   H        -1.6641  -19.3041   28.4478  H     
42   H        -0.9661  -18.3829   30.5896  H     
43   H        -0.4585  -19.8802   32.4441  H     
44   H        -0.6435  -22.2620   32.1602  H     
45   H        -2.3642  -26.2885   32.9998  H     
46   H        -2.8824  -27.5701   31.9007  H     
47   H        -3.9126  -26.1564   32.1465  H     
@<TRIPOS>BOND
     1    1    2 2
     2    1    4 1
     3    2    3 1
     4    2   24 1
     5    3    6 2
     6    4    5 2
     7    4   18 1
     8    5    6 1
     9    5   10 1
    10    6    7 1
    11    7    8 2
    12    8    9 1
    13    9   10 2
    14    9   11 1
    15   11   12 1
    16   11   16 1
    17   12   13 1
    18   13   14 1
    19   14   15 1
    20   14   17 1
    21   15   16 1
    22   18   19 2
    23   18   23 1
    24   19   20 1
    25   20   21 2
    26   21   22 1
    27   22   23 2
    28    1   25 1
    29    3   26 1
    30    8   27 1
    31   12   28 1
    32   12   29 1
    33   13   30 1
    34   13   31 1
    35   14   32 1
    36   15   33 1
    37   15   34 1
    38   16   35 1
    39   16   36 1
    40   17   37 1
    41   17   38 1
    42   17   39 1
    43   19   40 1
    44   20   41 1
    45   21   42 1
    46   22   43 1
    47   23   44 1
    48   24   45 1
    49   24   46 1
    50   24   47 1
@<TRIPOS>PROPERTY_DATA
  Total_Score	| 7.3633
  Crash		| -0.5779
  Polar		| 1.1364
  FragIndex	| 1
  FragRMSD	| 0.135

