@<TRIPOS>MOLECULE
BindingDB_50265837
 51 54 0 0 0
SMALL
NO_CHARGES


@<TRIPOS>ATOM
1    C        -2.1124  -24.3055   30.8479  C     
2    C        -2.2128  -25.7199   30.8494  C     
3    C        -1.5267  -26.4334   29.8383  C     
4    C        -1.3916  -23.5955   29.8560  C     
5    C        -0.7362  -24.3383   28.8525  C     
6    C        -0.7873  -25.7488   28.8561  C     
7    N        -0.0951  -26.4223   27.9024  N     
8    C         0.6133  -25.8247   26.9537  C     
9    C         0.6725  -24.4187   26.8699  C     
10   N        -0.0081  -23.7642   27.8556  N     
11   C        -3.0099  -26.4006   31.9060  C     
12   F        -3.1136  -27.7627   31.7516  F     
13   F        -2.4394  -26.1716   33.1347  F     
14   F        -4.2962  -25.9160   31.9260  F     
15   C        -1.3537  -22.1694   29.8875  C     
16   C        -0.9533  -21.4895   31.0601  C     
17   C        -0.9654  -20.0846   31.1100  C     
18   C        -1.3698  -19.3434   29.9903  C     
19   C        -1.7614  -19.9799   28.7837  C     
20   C        -1.7413  -21.4012   28.7670  C     
21   N         1.3191  -23.6775   25.9032  N     
22   C         1.4517  -22.2280   25.9970  C     
23   C         2.9507  -21.8240   25.9654  C     
24   N         3.7128  -22.4396   24.8338  N     
25   C         3.4459  -23.9107   24.7105  C     
26   C         1.9301  -24.2395   24.7102  C     
27   C         3.5867  -21.6991   23.5462  C     
28   C        -2.1561  -19.2299   27.6641  C     
29   N        -2.5710  -19.7630   26.5300  N     
30   O        -2.1446  -18.0083   27.6833  O     
31   H        -2.5993  -23.7804   31.5816  H     
32   H        -1.5542  -27.4579   29.8126  H     
33   H         1.1207  -26.4095   26.3417  H     
34   H        -0.6478  -22.0101   31.8842  H     
35   H        -0.6786  -19.6065   31.9686  H     
36   H        -1.3718  -18.3250   30.0690  H     
37   H        -2.0266  -21.8948   27.9195  H     
38   H         0.9314  -21.7676   25.1545  H     
39   H         1.0267  -21.7966   26.9087  H     
40   H         3.0294  -20.7343   25.9432  H     
41   H         3.4201  -22.1523   26.8983  H     
42   H         4.7009  -22.3552   25.0892  H     
43   H         3.9077  -24.3168   23.8048  H     
44   H         3.9129  -24.4203   25.5588  H     
45   H         1.8166  -25.3178   24.5959  H     
46   H         1.4535  -23.8023   23.8253  H     
47   H         2.5609  -21.6995   23.1756  H     
48   H         4.2310  -22.1474   22.7883  H     
49   H         3.9099  -20.6635   23.6715  H     
50   H        -2.8356  -19.1913   25.7910  H     
51   H        -2.6204  -20.7235   26.4289  H     
@<TRIPOS>BOND
     1    1    2 2
     2    1    4 1
     3    2    3 1
     4    2   11 1
     5    3    6 2
     6    4    5 2
     7    4   15 1
     8    5    6 1
     9    5   10 1
    10    6    7 1
    11    7    8 2
    12    8    9 1
    13    9   10 2
    14    9   21 1
    15   11   12 1
    16   11   13 1
    17   11   14 1
    18   15   16 2
    19   15   20 1
    20   16   17 1
    21   17   18 2
    22   18   19 1
    23   19   20 2
    24   19   28 1
    25   21   22 1
    26   21   26 1
    27   22   23 1
    28   23   24 1
    29   24   25 1
    30   24   27 1
    31   25   26 1
    32   28   29 am
    33   28   30 2
    34    1   31 1
    35    3   32 1
    36    8   33 1
    37   16   34 1
    38   17   35 1
    39   18   36 1
    40   20   37 1
    41   22   38 1
    42   22   39 1
    43   23   40 1
    44   23   41 1
    45   24   42 1
    46   25   43 1
    47   25   44 1
    48   26   45 1
    49   26   46 1
    50   27   47 1
    51   27   48 1
    52   27   49 1
    53   29   50 1
    54   29   51 1
@<TRIPOS>PROPERTY_DATA
  Total_Score	| 7.8233
  Crash		| -0.4531
  Polar		| 2.3794
  FragIndex	| 1
  FragRMSD	| 0.406

