@<TRIPOS>MOLECULE
BindingDB_50265840
 49 52 0 0 0
SMALL
NO_CHARGES


@<TRIPOS>ATOM
1    C        -2.1175  -24.4029   30.9724  C     
2    C        -2.2205  -25.8160   30.8912  C     
3    C        -1.5700  -26.4693   29.8182  C     
4    C        -1.4464  -23.6219   29.9955  C     
5    C        -0.8554  -24.3132   28.9009  C     
6    C        -0.8801  -25.7266   28.8424  C     
7    N        -0.1961  -26.3355   27.8407  N     
8    C         0.4550  -25.6855   26.8879  C     
9    C         0.4601  -24.2802   26.8430  C     
10   N        -0.2116  -23.6677   27.8702  N     
11   C        -3.0001  -26.5479   31.9326  C     
12   F        -3.0919  -27.9004   31.7085  F     
13   F        -2.4067  -26.3655   33.1614  F     
14   F        -4.2854  -26.0633   31.9893  F     
15   C        -1.3487  -22.1966   30.1524  C     
16   C        -1.9246  -21.3257   29.1991  C     
17   C        -1.9277  -19.9196   29.3394  C     
18   C        -1.2001  -19.3671   30.4255  C     
19   C        -0.5826  -20.2048   31.3721  C     
20   C        -0.6720  -21.6005   31.2541  C     
21   N         1.0813  -23.5138   25.8729  N     
22   C         1.2681  -22.0795   26.0192  C     
23   C         2.7879  -21.7538   26.0293  C     
24   N         3.4743  -22.3155   24.8217  N     
25   C         3.1845  -23.7702   24.6377  C     
26   C         1.6611  -24.0437   24.6499  C     
27   C         4.9351  -22.0148   24.8020  C     
28   N        -2.6111  -19.1293   28.4594  N     
29   O        -2.6595  -17.9340   28.5606  O     
30   O        -3.3155  -19.6279   27.4698  O     
31   H        -2.5334  -23.9384   31.7850  H     
32   H        -1.5786  -27.4900   29.7447  H     
33   H         0.9722  -26.2428   26.2534  H     
34   H        -2.3796  -21.7459   28.3844  H     
35   H        -1.1508  -18.3549   30.5513  H     
36   H        -0.0954  -19.7932   32.1741  H     
37   H        -0.2576  -22.1808   31.9922  H     
38   H         0.7907  -21.5538   25.1855  H     
39   H         0.8245  -21.6709   26.9320  H     
40   H         2.9134  -20.6668   26.0414  H     
41   H         3.2352  -22.1552   26.9470  H     
42   H         3.0651  -21.8338   24.0173  H     
43   H         3.5888  -24.1049   23.6788  H     
44   H         3.6531  -24.3578   25.4356  H     
45   H         1.4867  -25.1044   24.4863  H     
46   H         1.2024  -23.5324   23.7989  H     
47   H         5.4486  -22.4948   25.6477  H     
48   H         5.0979  -20.9329   24.8548  H     
49   H         5.3758  -22.3772   23.8656  H     
@<TRIPOS>BOND
     1    1    2 2
     2    1    4 1
     3    2    3 1
     4    2   11 1
     5    3    6 2
     6    4    5 2
     7    4   15 1
     8    5    6 1
     9    5   10 1
    10    6    7 1
    11    7    8 2
    12    8    9 1
    13    9   10 2
    14    9   21 1
    15   11   12 1
    16   11   13 1
    17   11   14 1
    18   15   16 2
    19   15   20 1
    20   16   17 1
    21   17   18 2
    22   17   28 am
    23   18   19 1
    24   19   20 2
    25   21   22 1
    26   21   26 1
    27   22   23 1
    28   23   24 1
    29   24   25 1
    30   24   27 1
    31   25   26 1
    32   28   29 2
    33   28   30 1
    34    1   31 1
    35    3   32 1
    36    8   33 1
    37   16   34 1
    38   18   35 1
    39   19   36 1
    40   20   37 1
    41   22   38 1
    42   22   39 1
    43   23   40 1
    44   23   41 1
    45   24   42 1
    46   25   43 1
    47   25   44 1
    48   26   45 1
    49   26   46 1
    50   27   47 1
    51   27   48 1
    52   27   49 1
@<TRIPOS>PROPERTY_DATA
  Total_Score	| 6.9014
  Crash		| -0.7711
  Polar		| 1.1424
  FragIndex	| 1
  FragRMSD	| 0.191

