@<TRIPOS>MOLECULE
BindingDB_50265922
 51 55 0 0 0
SMALL
NO_CHARGES


@<TRIPOS>ATOM
1    C        -2.1438  -24.3467   30.9608  C     
2    C        -2.2362  -25.7563   30.8570  C     
3    C        -1.5924  -26.3913   29.7695  C     
4    C        -1.4394  -23.5613   30.0142  C     
5    C        -0.8240  -24.2277   28.9261  C     
6    C        -0.8930  -25.6360   28.8133  C     
7    N        -0.2511  -26.2352   27.7792  N     
8    C         0.4182  -25.5686   26.8520  C     
9    C         0.4962  -24.1643   26.8833  C     
10   N        -0.1226  -23.5757   27.9488  N     
11   N         1.1083  -23.3709   25.9375  N     
12   C         1.5476  -23.8397   24.6337  C     
13   C         3.0651  -23.5795   24.4612  C     
14   N         3.3736  -22.1328   24.6737  N     
15   C         2.8680  -21.6432   25.9922  C     
16   C         1.3575  -21.9541   26.1627  C     
17   C         4.8138  -21.8180   24.4613  C     
18   C        -2.9939  -26.5168   31.8913  C     
19   F        -3.0331  -27.8749   31.6898  F     
20   F        -2.4265  -26.3182   33.1256  F     
21   F        -4.2985  -26.0872   31.9355  F     
22   C        -1.3571  -22.1466   30.1874  C     
23   C        -0.9224  -21.5992   31.4257  C     
24   C        -0.8726  -20.2065   31.6427  C     
25   C        -1.7150  -21.2565   29.1414  C     
26   C        -1.6494  -19.8705   29.3653  C     
27   C        -1.2500  -19.3552   30.5937  C     
28   N        -1.3286  -18.0211   30.4978  N     
29   C        -1.7385  -17.7206   29.2823  C     
30   N        -1.9327  -18.8200   28.5842  N     
31   O        -1.9366  -16.5885   28.8709  O     
32   H        -2.6126  -23.8825   31.7447  H     
33   H        -1.6226  -27.4082   29.6667  H     
34   H         0.9000  -26.1058   26.1781  H     
35   H         1.3529  -24.8919   24.4338  H     
36   H         1.0036  -23.2877   23.8604  H     
37   H         3.6199  -24.2024   25.1708  H     
38   H         3.3533  -23.8759   23.4487  H     
39   H         2.8574  -21.6179   23.9564  H     
40   H         3.4243  -22.1094   26.8123  H     
41   H         3.0067  -20.5603   26.0623  H     
42   H         0.7843  -21.3677   25.4382  H     
43   H         1.0648  -21.6016   27.1547  H     
44   H         5.4448  -22.3315   25.1916  H     
45   H         4.9822  -20.7424   24.5480  H     
46   H         5.1239  -22.1192   23.4582  H     
47   H        -0.6350  -22.2182   32.1849  H     
48   H        -0.5636  -19.8256   32.5391  H     
49   H        -2.0414  -21.6056   28.2366  H     
50   H        -1.1535  -17.3860   31.2128  H     
51   H        -2.2554  -18.8625   27.6691  H     
@<TRIPOS>BOND
     1    1    2 2
     2    1    4 1
     3    2    3 1
     4    2   18 1
     5    3    6 2
     6    4    5 2
     7    4   22 1
     8    5    6 1
     9    5   10 1
    10    6    7 1
    11    7    8 2
    12    8    9 1
    13    9   10 2
    14    9   11 1
    15   11   12 1
    16   11   16 1
    17   12   13 1
    18   13   14 1
    19   14   15 1
    20   14   17 1
    21   15   16 1
    22   18   19 1
    23   18   20 1
    24   18   21 1
    25   22   23 2
    26   22   25 1
    27   23   24 1
    28   24   27 2
    29   25   26 2
    30   26   27 1
    31   26   30 1
    32   27   28 1
    33   28   29 1
    34   29   30 1
    35   29   31 2
    36    1   32 1
    37    3   33 1
    38    8   34 1
    39   12   35 1
    40   12   36 1
    41   13   37 1
    42   13   38 1
    43   14   39 1
    44   15   40 1
    45   15   41 1
    46   16   42 1
    47   16   43 1
    48   17   44 1
    49   17   45 1
    50   17   46 1
    51   23   47 1
    52   24   48 1
    53   25   49 1
    54   28   50 1
    55   30   51 1
@<TRIPOS>PROPERTY_DATA
  Total_Score	| 7.7490
  Crash		| -0.6158
  Polar		| 1.4861
  FragIndex	| 1
  FragRMSD	| 0.168

