@<TRIPOS>MOLECULE
BindingDB_50265839
 48 51 0 0 0
SMALL
NO_CHARGES


@<TRIPOS>ATOM
1    C        -2.1593  -24.3683   30.8248  C     
2    C        -2.2192  -25.7852   30.7966  C     
3    C        -1.5126  -26.4589   29.7770  C     
4    C        -1.3826  -23.6089   29.9094  C     
5    C        -0.7069  -24.3226   28.8856  C     
6    C        -0.7723  -25.7381   28.8238  C     
7    N        -0.0992  -26.3835   27.8354  N     
8    C         0.5988  -25.7568   26.9069  C     
9    C         0.7130  -24.3547   26.9016  C     
10   N         0.0602  -23.7313   27.9208  N     
11   C        -2.9914  -26.5077   31.8497  C     
12   F        -3.0439  -27.8716   31.6824  F     
13   F        -2.4177  -26.2668   33.0766  F     
14   F        -4.2955  -26.0661   31.8785  F     
15   C        -1.2755  -22.1816   30.0661  C     
16   C        -1.5284  -21.2630   29.0076  C     
17   C        -1.3610  -19.8781   29.1791  C     
18   C        -1.0054  -19.3515   30.4433  C     
19   C        -0.7959  -20.2344   31.5223  C     
20   C        -0.9117  -21.6229   31.3339  C     
21   N         1.3900  -23.5993   25.9672  N     
22   C         1.6248  -22.1703   26.1465  C     
23   C         3.1519  -21.8821   26.1121  C     
24   N         3.8365  -22.4593   24.9129  N     
25   C         3.4642  -23.8956   24.6979  C     
26   C         1.9288  -24.1231   24.7248  C     
27   C         3.7246  -21.6150   23.6887  C     
28   O        -0.8725  -18.0120   30.6000  O     
29   H        -2.6976  -23.8840   31.5456  H     
30   H        -1.5198  -27.4841   29.7218  H     
31   H         1.0745  -26.3246   26.2551  H     
32   H        -1.8636  -21.5929   28.0996  H     
33   H        -1.5487  -19.2421   28.3969  H     
34   H        -0.5323  -19.8650   32.4493  H     
35   H        -0.6997  -22.2353   32.1284  H     
36   H         1.1276  -21.6183   25.3431  H     
37   H         1.2390  -21.7680   27.0859  H     
38   H         3.3205  -20.8065   26.1749  H     
39   H         3.6045  -22.3241   27.0011  H     
40   H         4.8345  -22.4675   25.1396  H     
41   H         3.8658  -24.2638   23.7486  H     
42   H         3.9250  -24.4947   25.4944  H     
43   H         1.7420  -25.1797   24.5552  H     
44   H         1.4592  -23.6050   23.8830  H     
45   H         2.6831  -21.4910   23.3805  H     
46   H         4.2883  -22.0604   22.8689  H     
47   H         4.1596  -20.6321   23.8778  H     
48   H        -1.1379  -17.8326   31.5324  H     
@<TRIPOS>BOND
     1    1    2 2
     2    1    4 1
     3    2    3 1
     4    2   11 1
     5    3    6 2
     6    4    5 2
     7    4   15 1
     8    5    6 1
     9    5   10 1
    10    6    7 1
    11    7    8 2
    12    8    9 1
    13    9   10 2
    14    9   21 1
    15   11   12 1
    16   11   13 1
    17   11   14 1
    18   15   16 2
    19   15   20 1
    20   16   17 1
    21   17   18 2
    22   18   19 1
    23   18   28 1
    24   19   20 2
    25   21   22 1
    26   21   26 1
    27   22   23 1
    28   23   24 1
    29   24   25 1
    30   24   27 1
    31   25   26 1
    32    1   29 1
    33    3   30 1
    34    8   31 1
    35   16   32 1
    36   17   33 1
    37   19   34 1
    38   20   35 1
    39   22   36 1
    40   22   37 1
    41   23   38 1
    42   23   39 1
    43   24   40 1
    44   25   41 1
    45   25   42 1
    46   26   43 1
    47   26   44 1
    48   27   45 1
    49   27   46 1
    50   27   47 1
    51   28   48 1
@<TRIPOS>PROPERTY_DATA
  Total_Score	| 7.1661
  Crash		| -0.6830
  Polar		| 1.1851
  FragIndex	| 1
  FragRMSD	| 0.333

