@<TRIPOS>MOLECULE
BindingDB_50265923
 52 56 0 0 0
SMALL
NO_CHARGES


@<TRIPOS>ATOM
1    C        -2.1562  -24.3884   31.0320  C     
2    C        -2.2474  -25.7983   30.9166  C     
3    C        -1.6135  -26.4247   29.8171  C     
4    C        -1.4818  -23.6021   30.0695  C     
5    C        -0.8757  -24.2536   28.9709  C     
6    C        -0.9277  -25.6618   28.8554  C     
7    N        -0.2832  -26.2471   27.8160  N     
8    C         0.3791  -25.5680   26.8927  C     
9    C         0.4501  -24.1638   26.9360  C     
10   N        -0.1803  -23.5860   27.9995  N     
11   N         1.0906  -23.3589   26.0163  N     
12   C         1.5841  -23.8180   24.7305  C     
13   C         3.1173  -23.6106   24.6642  C     
14   N         3.4647  -22.1778   24.9065  N     
15   C         2.8783  -21.6678   26.1837  C     
16   C         1.3549  -21.9496   26.2670  C     
17   C         4.9297  -21.9192   24.8093  C     
18   C        -2.9982  -26.5634   31.9498  C     
19   F        -3.0278  -27.9237   31.7492  F     
20   F        -2.4393  -26.3508   33.1866  F     
21   F        -4.3060  -26.1417   31.9838  F     
22   C        -1.4177  -22.1909   30.2284  C     
23   C        -0.7424  -21.6194   31.3357  C     
24   C        -0.6812  -20.2198   31.5131  C     
25   C        -2.0313  -21.3336   29.2860  C     
26   C        -1.9511  -19.9404   29.4632  C     
27   C        -1.2982  -19.3927   30.5625  C     
28   N        -1.3993  -18.0610   30.4873  N     
29   C        -2.0550  -17.7227   29.3973  C     
30   C        -2.5025  -18.8655   28.6366  C     
31   O        -2.2874  -16.5634   29.0871  O     
32   H        -2.5989  -23.9265   31.8309  H     
33   H        -1.6394  -27.4429   29.7094  H     
34   H         0.8672  -26.0943   26.2179  H     
35   H         1.3582  -24.8595   24.5002  H     
36   H         1.1062  -23.2330   23.9394  H     
37   H         3.5952  -24.2541   25.4079  H     
38   H         3.4645  -23.9167   23.6746  H     
39   H         3.0266  -21.6398   24.1527  H     
40   H         3.3769  -22.1301   27.0396  H     
41   H         3.0330  -20.5872   26.2518  H     
42   H         0.8387  -21.3487   25.5148  H     
43   H         1.0106  -21.5935   27.2421  H     
44   H         5.4792  -22.4626   25.5822  H     
45   H         5.1350  -20.8525   24.9201  H     
46   H         5.3052  -22.2266   23.8316  H     
47   H        -0.2859  -22.2216   32.0215  H     
48   H        -0.1996  -19.8169   32.3194  H     
49   H        -2.5452  -21.7071   28.4859  H     
50   H        -1.0882  -17.4334   31.1602  H     
51   H        -2.0857  -18.8829   27.6262  H     
52   H        -3.5927  -18.9135   28.6095  H     
@<TRIPOS>BOND
     1    1    2 2
     2    1    4 1
     3    2    3 1
     4    2   18 1
     5    3    6 2
     6    4    5 2
     7    4   22 1
     8    5    6 1
     9    5   10 1
    10    6    7 1
    11    7    8 2
    12    8    9 1
    13    9   10 2
    14    9   11 1
    15   11   12 1
    16   11   16 1
    17   12   13 1
    18   13   14 1
    19   14   15 1
    20   14   17 1
    21   15   16 1
    22   18   19 1
    23   18   20 1
    24   18   21 1
    25   22   23 2
    26   22   25 1
    27   23   24 1
    28   24   27 2
    29   25   26 2
    30   26   27 1
    31   26   30 1
    32   27   28 1
    33   28   29 1
    34   29   30 1
    35   29   31 2
    36    1   32 1
    37    3   33 1
    38    8   34 1
    39   12   35 1
    40   12   36 1
    41   13   37 1
    42   13   38 1
    43   14   39 1
    44   15   40 1
    45   15   41 1
    46   16   42 1
    47   16   43 1
    48   17   44 1
    49   17   45 1
    50   17   46 1
    51   23   47 1
    52   24   48 1
    53   25   49 1
    54   28   50 1
    55   30   51 1
    56   30   52 1
@<TRIPOS>PROPERTY_DATA
  Total_Score	| 7.6114
  Crash		| -0.8109
  Polar		| 1.4106
  FragIndex	| 1
  FragRMSD	| 0.240

