@<TRIPOS>MOLECULE
BindingDB_50266257
 37 39 0 0 0
SMALL
NO_CHARGES


@<TRIPOS>ATOM
1    C        -2.1993  -24.4230   30.9850  C     
2    C        -2.2706  -25.8320   30.8580  C     
3    C        -1.6151  -26.4426   29.7641  C     
4    C        -1.5151  -23.6336   30.0332  C     
5    C        -0.8761  -24.2679   28.9393  C     
6    C        -0.9185  -25.6767   28.8177  C     
7    N        -0.2536  -26.2551   27.7831  N     
8    C         0.4333  -25.5690   26.8784  C     
9    C         0.5015  -24.1701   26.9337  C     
10   N        -0.1677  -23.5897   27.9806  N     
11   C        -3.0195  -26.6164   31.8803  C     
12   F        -3.0257  -27.9736   31.6657  F     
13   F        -2.4728  -26.4119   33.1234  F     
14   F        -4.3340  -26.2206   31.9121  F     
15   C        -1.4708  -22.2329   30.2051  C     
16   C        -0.6436  -21.6638   31.1968  C     
17   C        -0.6317  -20.2735   31.4027  C     
18   C        -1.4374  -19.4370   30.6131  C     
19   C        -2.2645  -19.9961   29.6215  C     
20   C        -2.2828  -21.3893   29.4194  C     
21   N         1.1829  -23.3867   26.0268  N     
22   C         1.8618  -23.9556   24.8801  C     
23   C         1.2231  -21.9541   26.2265  C     
24   H        -2.6540  -23.9708   31.7797  H     
25   H        -1.6307  -27.4622   29.6531  H     
26   H         0.9014  -26.0852   26.1776  H     
27   H        -0.0464  -22.2554   31.7742  H     
28   H        -0.0398  -19.8709   32.1289  H     
29   H        -1.4294  -18.4230   30.7600  H     
30   H        -2.8615  -19.3913   29.0522  H     
31   H        -2.9040  -21.7775   28.7050  H     
32   H         2.6331  -24.6479   25.2090  H     
33   H         2.3492  -23.2107   24.2577  H     
34   H         1.1490  -24.4855   24.2507  H     
35   H         0.2073  -21.5454   26.2153  H     
36   H         1.7951  -21.4127   25.4651  H     
37   H         1.6844  -21.7261   27.1935  H     
@<TRIPOS>BOND
     1    1    2 2
     2    1    4 1
     3    2    3 1
     4    2   11 1
     5    3    6 2
     6    4    5 2
     7    4   15 1
     8    5    6 1
     9    5   10 1
    10    6    7 1
    11    7    8 2
    12    8    9 1
    13    9   10 2
    14    9   21 1
    15   11   12 1
    16   11   13 1
    17   11   14 1
    18   15   16 2
    19   15   20 1
    20   16   17 1
    21   17   18 2
    22   18   19 1
    23   19   20 2
    24   21   22 1
    25   21   23 1
    26    1   24 1
    27    3   25 1
    28    8   26 1
    29   16   27 1
    30   17   28 1
    31   18   29 1
    32   19   30 1
    33   20   31 1
    34   22   32 1
    35   22   33 1
    36   22   34 1
    37   23   35 1
    38   23   36 1
    39   23   37 1
@<TRIPOS>PROPERTY_DATA
  Total_Score	| 6.8362
  Crash		| -0.6866
  Polar		| 1.1590
  FragIndex	| 1
  FragRMSD	| 0.316

