@<TRIPOS>MOLECULE
BindingDB_50266329
 55 58 0 0 0
SMALL
NO_CHARGES


@<TRIPOS>ATOM
1    C        -2.1731  -24.3246   30.9279  C     
2    C        -2.2956  -25.7330   30.8646  C     
3    C        -1.6640  -26.4118   29.7950  C     
4    C        -1.4441  -23.5951   29.9603  C     
5    C        -0.8294  -24.2967   28.8991  C     
6    C        -0.9271  -25.7042   28.8288  C     
7    N        -0.2584  -26.3459   27.8444  N     
8    C         0.4585  -25.7292   26.9196  C     
9    C         0.5452  -24.3205   26.8911  C     
10   N        -0.0925  -23.6887   27.9192  N     
11   C        -3.0618  -26.4391   31.9278  C     
12   F        -3.1277  -27.8007   31.7689  F     
13   F        -2.4920  -26.2068   33.1521  F     
14   F        -4.3600  -25.9813   31.9656  F     
15   C        -1.3093  -22.1825   30.0915  C     
16   C        -1.6215  -21.3154   29.0205  C     
17   C        -1.4243  -19.9194   29.1189  C     
18   C        -0.8793  -19.3679   30.3124  C     
19   C        -0.6211  -20.2336   31.3976  C     
20   C        -0.8310  -21.6136   31.2916  C     
21   N         1.1979  -23.5682   25.9376  N     
22   C         1.3753  -22.1235   26.0813  C     
23   C         2.8810  -21.7604   25.9883  C     
24   N         3.4838  -22.3047   24.7332  N     
25   C         3.2525  -23.7750   24.5963  C     
26   C         1.7414  -24.1012   24.6986  C     
27   C         4.9166  -21.9329   24.5692  C     
28   O        -1.6536  -19.1306   28.0229  O     
29   C        -2.9881  -19.2244   27.4688  C     
30   O        -0.4742  -18.0725   30.5487  O     
31   C        -1.2618  -16.9420   30.1663  C     
32   H        -2.6149  -23.8178   31.7022  H     
33   H        -1.7219  -27.4297   29.7182  H     
34   H         0.9580  -26.3051   26.2867  H     
35   H        -1.9869  -21.7053   28.1474  H     
36   H        -0.2439  -19.8528   32.2730  H     
37   H        -0.5957  -22.2050   32.0887  H     
38   H         0.8374  -21.6045   25.2790  H     
39   H         1.0049  -21.7113   27.0238  H     
40   H         2.9793  -20.6711   26.0033  H     
41   H         3.4032  -22.1592   26.8655  H     
42   H         2.9824  -21.8666   23.9579  H     
43   H         3.6125  -24.1213   23.6247  H     
44   H         3.7881  -24.3268   25.3767  H     
45   H         1.6184  -25.1744   24.5771  H     
46   H         1.2142  -23.6446   23.8525  H     
47   H         5.5357  -22.3481   25.3660  H     
48   H         5.0182  -20.8458   24.5745  H     
49   H         5.2956  -22.2920   23.6084  H     
50   H        -3.1611  -20.2028   27.0131  H     
51   H        -3.0724  -18.4672   26.6849  H     
52   H        -3.7516  -19.0259   28.2271  H     
53   H        -1.3976  -16.9340   29.0775  H     
54   H        -0.7287  -16.0428   30.4544  H     
55   H        -2.2295  -16.9695   30.6698  H     
@<TRIPOS>BOND
     1    1    2 2
     2    1    4 1
     3    2    3 1
     4    2   11 1
     5    3    6 2
     6    4    5 2
     7    4   15 1
     8    5    6 1
     9    5   10 1
    10    6    7 1
    11    7    8 2
    12    8    9 1
    13    9   10 2
    14    9   21 1
    15   11   12 1
    16   11   13 1
    17   11   14 1
    18   15   16 2
    19   15   20 1
    20   16   17 1
    21   17   18 2
    22   17   28 1
    23   18   19 1
    24   18   30 1
    25   19   20 2
    26   21   22 1
    27   21   26 1
    28   22   23 1
    29   23   24 1
    30   24   25 1
    31   24   27 1
    32   25   26 1
    33   28   29 1
    34   30   31 1
    35    1   32 1
    36    3   33 1
    37    8   34 1
    38   16   35 1
    39   19   36 1
    40   20   37 1
    41   22   38 1
    42   22   39 1
    43   23   40 1
    44   23   41 1
    45   24   42 1
    46   25   43 1
    47   25   44 1
    48   26   45 1
    49   26   46 1
    50   27   47 1
    51   27   48 1
    52   27   49 1
    53   29   50 1
    54   29   51 1
    55   29   52 1
    56   31   53 1
    57   31   54 1
    58   31   55 1
@<TRIPOS>PROPERTY_DATA
  Total_Score	| 7.3727
  Crash		| -0.9070
  Polar		| 1.3565
  FragIndex	| 1
  FragRMSD	| 0.128

