@<TRIPOS>MOLECULE
BindingDB_50266328
 45 48 0 0 0
SMALL
NO_CHARGES


@<TRIPOS>ATOM
1    C        -2.2269  -24.4157   30.6925  C     
2    C        -2.3430  -25.8167   30.5593  C     
3    C        -1.6326  -26.4853   29.5422  C     
4    C        -1.4252  -23.6553   29.8033  C     
5    C        -0.7424  -24.3408   28.7660  C     
6    C        -0.8327  -25.7484   28.6528  C     
7    N        -0.1146  -26.3669   27.6836  N     
8    C         0.6516  -25.7234   26.8177  C     
9    C         0.7536  -24.3199   26.8414  C     
10   N         0.0523  -23.7143   27.8446  N     
11   N         1.4700  -23.5458   25.9517  N     
12   C         1.6508  -22.1116   26.1404  C     
13   C         3.1658  -21.7711   26.2150  C     
14   N         3.9547  -22.3227   25.0683  N     
15   C         3.6481  -23.7702   24.8357  C     
16   C         2.1237  -24.0555   24.7573  C     
17   C         3.8916  -21.4874   23.8334  C     
18   C        -1.2859  -22.2487   29.9976  C     
19   C        -0.8031  -21.7466   31.2288  C     
20   C        -0.6423  -20.3650   31.4362  C     
21   C        -0.9573  -19.4577   30.4094  C     
22   C        -1.4321  -19.9369   29.1765  C     
23   C        -1.5962  -21.3200   28.9718  C     
24   C        -3.1106  -26.4891   31.3663  C     
25   N        -3.7963  -27.0781   32.0735  N     
26   H        -2.7397  -23.9359   31.4402  H     
27   H        -1.6908  -27.5041   29.4410  H     
28   H         1.1662  -26.2810   26.1873  H     
29   H         1.1964  -21.5763   25.3011  H     
30   H         1.1859  -21.7163   27.0461  H     
31   H         3.2909  -20.6861   26.2886  H     
32   H         3.5733  -22.1942   27.1384  H     
33   H         4.9345  -22.2881   25.3619  H     
34   H         4.1344  -24.1310   23.9236  H     
35   H         4.0671  -24.3486   25.6663  H     
36   H         1.9889  -25.1191   24.5759  H     
37   H         1.7024  -23.5567   23.8799  H     
38   H         2.8849  -21.4555   23.4139  H     
39   H         4.5714  -21.8840   23.0770  H     
40   H         4.2090  -20.4656   24.0515  H     
41   H        -0.5509  -22.3862   31.9869  H     
42   H        -0.2834  -20.0223   32.3305  H     
43   H        -0.8339  -18.4534   30.5570  H     
44   H        -1.6566  -19.2790   28.4240  H     
45   H        -1.9548  -21.6401   28.0700  H     
@<TRIPOS>BOND
     1    1    2 2
     2    1    4 1
     3    2    3 1
     4    2   24 1
     5    3    6 2
     6    4    5 2
     7    4   18 1
     8    5    6 1
     9    5   10 1
    10    6    7 1
    11    7    8 2
    12    8    9 1
    13    9   10 2
    14    9   11 1
    15   11   12 1
    16   11   16 1
    17   12   13 1
    18   13   14 1
    19   14   15 1
    20   14   17 1
    21   15   16 1
    22   18   19 2
    23   18   23 1
    24   19   20 1
    25   20   21 2
    26   21   22 1
    27   22   23 2
    28   24   25 3
    29    1   26 1
    30    3   27 1
    31    8   28 1
    32   12   29 1
    33   12   30 1
    34   13   31 1
    35   13   32 1
    36   14   33 1
    37   15   34 1
    38   15   35 1
    39   16   36 1
    40   16   37 1
    41   17   38 1
    42   17   39 1
    43   17   40 1
    44   19   41 1
    45   20   42 1
    46   21   43 1
    47   22   44 1
    48   23   45 1
@<TRIPOS>PROPERTY_DATA
  Total_Score	| 5.9455
  Crash		| -0.6138
  Polar		| 1.1250
  FragIndex	| 1
  FragRMSD	| 0.667

