@<TRIPOS>MOLECULE
BindingDB_50266287
 48 51 0 0 0
SMALL
NO_CHARGES


@<TRIPOS>ATOM
1    C        -2.1390  -24.3489   30.9599  C     
2    C        -2.2430  -25.7569   30.8554  C     
3    C        -1.5896  -26.3981   29.7783  C     
4    C        -1.4064  -23.5786   30.0254  C     
5    C        -0.7485  -24.2442   28.9630  C     
6    C        -0.8538  -25.6515   28.8421  C     
7    N        -0.2350  -26.2658   27.8038  N     
8    C         0.4488  -25.6146   26.8777  C     
9    C         0.5726  -24.2131   26.9201  C     
10   N        -0.0301  -23.6029   27.9860  N     
11   N         1.2274  -23.4553   25.9730  N     
12   C         1.6538  -22.0899   26.2364  C     
13   C         3.1842  -21.9613   26.0006  C     
14   N         3.5618  -22.4856   24.6927  N     
15   C         3.1084  -23.8463   24.4450  C     
16   C         1.5756  -23.9312   24.6443  C     
17   C         4.2682  -21.7587   23.8013  C     
18   C        -3.0245  -26.5104   31.8754  C     
19   F        -3.1269  -27.8606   31.6325  F     
20   F        -2.4327  -26.3597   33.1063  F     
21   F        -4.3098  -26.0264   31.9450  F     
22   C        -1.3792  -22.1693   30.1822  C     
23   C        -2.0825  -21.3432   29.2657  C     
24   C        -2.1324  -19.9490   29.4556  C     
25   C        -1.4948  -19.3641   30.5698  C     
26   C        -0.7993  -20.1749   31.4870  C     
27   C        -0.7355  -21.5683   31.2928  C     
28   C         4.6726  -22.2238   22.4823  C     
29   O         4.6296  -20.6209   24.0767  O     
30   H        -2.6115  -23.8747   31.7347  H     
31   H        -1.6402  -27.4139   29.6667  H     
32   H         0.9111  -26.1627   26.1965  H     
33   H         1.1288  -21.4096   25.5586  H     
34   H         1.4452  -21.7544   27.2558  H     
35   H         3.4552  -20.9141   26.1497  H     
36   H         3.7085  -22.5330   26.7711  H     
37   H         3.3358  -24.2225   23.4477  H     
38   H         3.5969  -24.5207   25.1547  H     
39   H         1.2455  -24.9444   24.4221  H     
40   H         1.0871  -23.2929   23.9006  H     
41   H        -2.5633  -21.7536   28.4578  H     
42   H        -2.6492  -19.3609   28.7912  H     
43   H        -1.5541  -18.3542   30.7220  H     
44   H        -0.3694  -19.7506   32.3105  H     
45   H        -0.2618  -22.1412   31.9978  H     
46   H         5.2984  -23.1126   22.5792  H     
47   H         5.2453  -21.4723   21.9341  H     
48   H         3.7913  -22.4659   21.8853  H     
@<TRIPOS>BOND
     1    1    2 2
     2    1    4 1
     3    2    3 1
     4    2   18 1
     5    3    6 2
     6    4    5 2
     7    4   22 1
     8    5    6 1
     9    5   10 1
    10    6    7 1
    11    7    8 2
    12    8    9 1
    13    9   10 2
    14    9   11 1
    15   11   12 1
    16   11   16 1
    17   12   13 1
    18   13   14 1
    19   14   15 1
    20   14   17 am
    21   15   16 1
    22   17   28 1
    23   17   29 2
    24   18   19 1
    25   18   20 1
    26   18   21 1
    27   22   23 2
    28   22   27 1
    29   23   24 1
    30   24   25 2
    31   25   26 1
    32   26   27 2
    33    1   30 1
    34    3   31 1
    35    8   32 1
    36   12   33 1
    37   12   34 1
    38   13   35 1
    39   13   36 1
    40   15   37 1
    41   15   38 1
    42   16   39 1
    43   16   40 1
    44   23   41 1
    45   24   42 1
    46   25   43 1
    47   26   44 1
    48   27   45 1
    49   28   46 1
    50   28   47 1
    51   28   48 1
@<TRIPOS>PROPERTY_DATA
  Total_Score	| 6.9924
  Crash		| -0.6558
  Polar		| 1.1650
  FragIndex	| 1
  FragRMSD	| 0.303

