@<TRIPOS>MOLECULE
BindingDB_50266330
 47 50 0 0 0
SMALL
NO_CHARGES


@<TRIPOS>ATOM
1    C        -2.1603  -24.2428   30.8296  C     
2    C        -2.2752  -25.6616   30.7767  C     
3    C        -1.6247  -26.3386   29.7208  C     
4    C        -1.4109  -23.5037   29.8803  C     
5    C        -0.7593  -24.2200   28.8394  C     
6    C        -0.8839  -25.6321   28.7668  C     
7    N        -0.2033  -26.2866   27.7848  N     
8    C         0.5409  -25.6690   26.8853  C     
9    C         0.6931  -24.2709   26.8742  C     
10   N         0.0294  -23.6248   27.9098  N     
11   C        -3.0161  -26.3789   31.8524  C     
12   F        -3.1016  -27.7397   31.6712  F     
13   F        -2.3990  -26.1743   33.0639  F     
14   F        -4.3063  -25.9138   31.9336  F     
15   C        -1.2151  -22.0945   30.0733  C     
16   C        -0.8763  -21.6505   31.3805  C     
17   C        -0.6892  -20.2916   31.6741  C     
18   C        -0.8023  -19.3404   30.6478  C     
19   C        -1.1144  -19.7416   29.3337  C     
20   C        -1.3548  -21.1129   29.0434  C     
21   N         1.4157  -23.5225   25.9758  N     
22   C         1.6007  -22.0868   26.1250  C     
23   C         3.1132  -21.7321   26.1865  C     
24   N         3.8937  -22.3079   25.0482  N     
25   C         3.6052  -23.7664   24.8640  C     
26   C         2.0871  -24.0759   24.8001  C     
27   C         3.7981  -21.5063   23.7916  C     
28   Cl       -1.9275  -21.4857   27.4863  Cl    
29   Cl       -1.2011  -18.5393   28.1373  Cl    
30   H        -2.6137  -23.7566   31.6077  H     
31   H        -1.6565  -27.3639   29.6629  H     
32   H         1.0218  -26.2538   26.2431  H     
33   H        -0.7685  -22.3149   32.1447  H     
34   H        -0.4498  -19.9980   32.6266  H     
35   H        -0.6490  -18.3574   30.8638  H     
36   H         1.1427  -21.5742   25.2718  H     
37   H         1.1381  -21.6620   27.0245  H     
38   H         3.2328  -20.6473   26.2329  H     
39   H         3.5291  -22.1334   27.1154  H     
40   H         4.8770  -22.2533   25.3241  H     
41   H         4.0911  -24.1498   23.9599  H     
42   H         4.0361  -24.3145   25.7087  H     
43   H         1.9815  -25.1461   24.6719  H     
44   H         1.6508  -23.6286   23.9029  H     
45   H         2.7808  -21.4823   23.4009  H     
46   H         4.4557  -21.9225   23.0270  H     
47   H         4.1220  -20.4814   23.9775  H     
@<TRIPOS>BOND
     1    1    2 2
     2    1    4 1
     3    2    3 1
     4    2   11 1
     5    3    6 2
     6    4    5 2
     7    4   15 1
     8    5    6 1
     9    5   10 1
    10    6    7 1
    11    7    8 2
    12    8    9 1
    13    9   10 2
    14    9   21 1
    15   11   12 1
    16   11   13 1
    17   11   14 1
    18   15   16 2
    19   15   20 1
    20   16   17 1
    21   17   18 2
    22   18   19 1
    23   19   20 2
    24   19   29 1
    25   20   28 1
    26   21   22 1
    27   21   26 1
    28   22   23 1
    29   23   24 1
    30   24   25 1
    31   24   27 1
    32   25   26 1
    33    1   30 1
    34    3   31 1
    35    8   32 1
    36   16   33 1
    37   17   34 1
    38   18   35 1
    39   22   36 1
    40   22   37 1
    41   23   38 1
    42   23   39 1
    43   24   40 1
    44   25   41 1
    45   25   42 1
    46   26   43 1
    47   26   44 1
    48   27   45 1
    49   27   46 1
    50   27   47 1
@<TRIPOS>PROPERTY_DATA
  Total_Score	| 6.1297
  Crash		| -1.5886
  Polar		| 1.1617
  FragIndex	| 1
  FragRMSD	| 0.358

