@<TRIPOS>MOLECULE
BindingDB_50265866
 51 55 0 0 0
SMALL
NO_CHARGES


@<TRIPOS>ATOM
1    C        -2.1360  -24.3932   30.9423  C     
2    C        -2.2416  -25.8037   30.8547  C     
3    C        -1.5901  -26.4559   29.7811  C     
4    C        -1.4339  -23.6331   29.9763  C     
5    C        -0.8143  -24.3166   28.9005  C     
6    C        -0.8763  -25.7242   28.8203  C     
7    N        -0.2045  -26.3465   27.8147  N     
8    C         0.4938  -25.6973   26.8951  C     
9    C         0.5679  -24.2920   26.9057  C     
10   N        -0.0986  -23.6848   27.9315  N     
11   N         1.2558  -23.5188   25.9955  N     
12   C         1.8149  -24.0138   24.7495  C     
13   C         3.3511  -23.8109   24.7583  C     
14   N         3.7420  -22.3892   25.0014  N     
15   C         3.0448  -21.8186   26.1928  C     
16   C         1.5149  -22.1081   26.2364  C     
17   C         3.6591  -21.5220   23.7925  C     
18   C        -3.0096  -26.5479   31.8913  C     
19   F        -3.1184  -27.8947   31.6483  F     
20   F        -2.3983  -26.3911   33.1082  F     
21   F        -4.2893  -26.0612   31.9784  F     
22   C        -1.3772  -22.2267   30.1256  C     
23   C        -0.6421  -21.6372   31.1880  C     
24   C        -0.6383  -20.2382   31.3820  C     
25   C        -2.1308  -21.3941   29.2606  C     
26   C        -2.0932  -20.0020   29.4513  C     
27   C        -1.3556  -19.4283   30.4859  C     
28   C        -1.5256  -18.0816   30.3739  C     
29   C        -2.3218  -17.8551   29.3302  C     
30   N        -2.6774  -19.0021   28.7786  N     
31   H        -2.5937  -23.9063   31.7239  H     
32   H        -1.6100  -27.4767   29.7000  H     
33   H         0.9979  -26.2517   26.2488  H     
34   H         1.5983  -25.0618   24.5398  H     
35   H         1.3844  -23.4489   23.9205  H     
36   H         3.7682  -24.4246   25.5648  H     
37   H         3.7774  -24.1871   23.8253  H     
38   H         4.7316  -22.4124   25.2395  H     
39   H         3.5092  -22.2494   27.0804  H     
40   H         3.2099  -20.7323   26.2574  H     
41   H         1.0010  -21.5019   25.4850  H     
42   H         1.1646  -21.7535   27.2071  H     
43   H         2.6255  -21.3851   23.4571  H     
44   H         4.2402  -21.9487   22.9713  H     
45   H         4.0825  -20.5376   24.0138  H     
46   H        -0.1167  -22.2286   31.8353  H     
47   H        -0.1287  -19.8222   32.1658  H     
48   H        -2.7139  -21.7877   28.5164  H     
49   H        -1.1084  -17.3898   30.9502  H     
50   H        -2.6028  -16.9617   29.0001  H     
51   H        -3.2529  -19.1046   28.0012  H     
@<TRIPOS>BOND
     1    1    2 2
     2    1    4 1
     3    2    3 1
     4    2   18 1
     5    3    6 2
     6    4    5 2
     7    4   22 1
     8    5    6 1
     9    5   10 1
    10    6    7 1
    11    7    8 2
    12    8    9 1
    13    9   10 2
    14    9   11 1
    15   11   12 1
    16   11   16 1
    17   12   13 1
    18   13   14 1
    19   14   15 1
    20   14   17 1
    21   15   16 1
    22   18   19 1
    23   18   20 1
    24   18   21 1
    25   22   23 2
    26   22   25 1
    27   23   24 1
    28   24   27 2
    29   25   26 2
    30   26   27 1
    31   26   30 1
    32   27   28 1
    33   28   29 2
    34   29   30 1
    35    1   31 1
    36    3   32 1
    37    8   33 1
    38   12   34 1
    39   12   35 1
    40   13   36 1
    41   13   37 1
    42   14   38 1
    43   15   39 1
    44   15   40 1
    45   16   41 1
    46   16   42 1
    47   17   43 1
    48   17   44 1
    49   17   45 1
    50   23   46 1
    51   24   47 1
    52   25   48 1
    53   28   49 1
    54   29   50 1
    55   30   51 1
@<TRIPOS>PROPERTY_DATA
  Total_Score	| 7.8426
  Crash		| -0.7100
  Polar		| 1.1458
  FragIndex	| 1
  FragRMSD	| 0.379

