@<TRIPOS>MOLECULE
BindingDB_50265838
 48 51 0 0 0
SMALL
NO_CHARGES


@<TRIPOS>ATOM
1    C        -2.1729  -24.3393   30.9459  C     
2    C        -2.2639  -25.7505   30.8685  C     
3    C        -1.6055  -26.4063   29.8007  C     
4    C        -1.4670  -23.5809   29.9825  C     
5    C        -0.8358  -24.2591   28.9163  C     
6    C        -0.8938  -25.6698   28.8373  C     
7    N        -0.2206  -26.2859   27.8334  N     
8    C         0.4653  -25.6337   26.9077  C     
9    C         0.5262  -24.2278   26.9066  C     
10   N        -0.1241  -23.6169   27.9412  N     
11   C        -3.0273  -26.4894   31.9144  C     
12   F        -3.0704  -27.8513   31.7356  F     
13   F        -2.4670  -26.2620   33.1478  F     
14   F        -4.3310  -26.0575   31.9423  F     
15   C        -1.3652  -22.1763   30.1433  C     
16   C        -0.7890  -21.6503   31.3223  C     
17   C        -0.7478  -20.2629   31.5421  C     
18   C        -1.2726  -19.3841   30.5768  C     
19   C        -1.8070  -19.8917   29.3742  C     
20   C        -1.8411  -21.2839   29.1550  C     
21   N         1.1559  -23.4551   25.9559  N     
22   C         1.4213  -22.0382   26.1680  C     
23   C         2.9361  -21.7462   25.9998  C     
24   N         3.4442  -22.2673   24.6931  N     
25   C         3.1186  -23.7152   24.4967  C     
26   C         1.5963  -23.9509   24.6614  C     
27   C         4.8905  -21.9761   24.4881  C     
28   O        -2.3116  -19.0473   28.4381  O     
29   H        -2.6320  -23.8547   31.7235  H     
30   H        -1.6295  -27.4249   29.7211  H     
31   H         0.9764  -26.1805   26.2631  H     
32   H        -0.4016  -22.2798   32.0285  H     
33   H        -0.3452  -19.8946   32.4078  H     
34   H        -1.2497  -18.3759   30.7442  H     
35   H        -2.2473  -21.6422   28.2868  H     
36   H         0.8570  -21.4519   25.4371  H     
37   H         1.1318  -21.6755   27.1566  H     
38   H         3.0844  -20.6623   26.0491  H     
39   H         3.4843  -22.2025   26.8322  H     
40   H         2.9407  -21.7556   23.9631  H     
41   H         3.4091  -24.0290   23.4891  H     
42   H         3.6602  -24.3372   25.2193  H     
43   H         1.3853  -25.0036   24.4758  H     
44   H         1.0653  -23.4002   23.8777  H     
45   H         5.5089  -22.4952   25.2255  H     
46   H         5.0771  -20.9022   24.5677  H     
47   H         5.2002  -22.2895   23.4897  H     
48   H        -2.8953  -18.4344   28.9318  H     
@<TRIPOS>BOND
     1    1    2 2
     2    1    4 1
     3    2    3 1
     4    2   11 1
     5    3    6 2
     6    4    5 2
     7    4   15 1
     8    5    6 1
     9    5   10 1
    10    6    7 1
    11    7    8 2
    12    8    9 1
    13    9   10 2
    14    9   21 1
    15   11   12 1
    16   11   13 1
    17   11   14 1
    18   15   16 2
    19   15   20 1
    20   16   17 1
    21   17   18 2
    22   18   19 1
    23   19   20 2
    24   19   28 1
    25   21   22 1
    26   21   26 1
    27   22   23 1
    28   23   24 1
    29   24   25 1
    30   24   27 1
    31   25   26 1
    32    1   29 1
    33    3   30 1
    34    8   31 1
    35   16   32 1
    36   17   33 1
    37   18   34 1
    38   20   35 1
    39   22   36 1
    40   22   37 1
    41   23   38 1
    42   23   39 1
    43   24   40 1
    44   25   41 1
    45   25   42 1
    46   26   43 1
    47   26   44 1
    48   27   45 1
    49   27   46 1
    50   27   47 1
    51   28   48 1
@<TRIPOS>PROPERTY_DATA
  Total_Score	| 7.1809
  Crash		| -0.5511
  Polar		| 1.1594
  FragIndex	| 1
  FragRMSD	| 0.181

