@<TRIPOS>MOLECULE
BindingDB_7096
 43 46 0 0 0
SMALL
NO_CHARGES


@<TRIPOS>ATOM
1    C       -12.7846  205.6574  110.3659  C     
2    C       -12.1129  206.0818  111.5044  C     
3    C       -10.8582  206.5275  111.0923  C     
4    N       -11.9354  205.8479  109.3424  N     
5    N       -10.8126  206.3490  109.7486  N     
6    N        -9.7898  206.9730  111.8285  N     
7    C        -9.7472  207.1860  113.1495  C     
8    O       -10.8085  207.2718  113.7984  O     
9    C        -8.5268  207.1966  113.9702  C     
10   C        -8.6524  206.4130  115.2562  C     
11   C        -8.9893  205.0262  117.7274  C     
12   C        -7.9785  205.9953  117.5936  C     
13   C        -7.8143  206.6771  116.3654  C     
14   C        -9.6708  205.4382  115.4158  C     
15   C        -9.8368  204.7500  116.6380  C     
16   C       -14.1275  205.0841  110.2205  C     
17   C       -14.4373  203.8347  111.0720  C     
18   C       -15.1934  205.1458  111.3315  C     
19   C        -7.1996  206.8420  113.3599  C     
20   C        -6.0153  207.3352  113.9713  C     
21   C        -4.7348  206.9347  113.5355  C     
22   C        -4.6118  206.0512  112.4511  C     
23   C        -5.7642  205.5598  111.8180  C     
24   C        -7.0382  205.9117  112.3054  C     
25   H       -12.4741  206.0259  112.4496  H     
26   H       -12.1495  205.6413  108.4147  H     
27   H        -8.9626  207.0772  111.3311  H     
28   H        -8.4714  208.2565  114.2510  H     
29   H        -9.1129  204.5396  118.6168  H     
30   H        -7.3757  206.2161  118.3891  H     
31   H        -7.0902  207.3802  116.2989  H     
32   H       -10.3376  205.2903  114.6565  H     
33   H       -10.5921  204.0773  116.7484  H     
34   H       -14.5356  205.0375  109.2103  H     
35   H       -14.9835  203.0519  110.5489  H     
36   H       -13.7237  203.5571  111.8524  H     
37   H       -14.9263  205.6734  112.2484  H     
38   H       -16.2307  205.1530  110.9942  H     
39   H        -6.0686  207.9954  114.7411  H     
40   H        -3.8992  207.2882  114.0060  H     
41   H        -3.6865  205.7631  112.1288  H     
42   H        -5.6713  204.9293  111.0268  H     
43   H        -7.8488  205.4734  111.8851  H     
@<TRIPOS>BOND
     1    1    2 2
     2    1    4 1
     3    1   16 1
     4    2    3 1
     5    3    5 2
     6    3    6 1
     7    4    5 1
     8    6    7 am
     9    7    8 2
    10    7    9 1
    11    9   10 1
    12    9   19 1
    13   10   13 1
    14   10   14 2
    15   11   12 1
    16   11   15 2
    17   12   13 2
    18   14   15 1
    19   16   17 1
    20   16   18 1
    21   17   18 1
    22   19   20 2
    23   19   24 1
    24   20   21 1
    25   21   22 2
    26   22   23 1
    27   23   24 2
    28    2   25 1
    29    4   26 1
    30    6   27 1
    31    9   28 1
    32   11   29 1
    33   12   30 1
    34   13   31 1
    35   14   32 1
    36   15   33 1
    37   16   34 1
    38   17   35 1
    39   17   36 1
    40   18   37 1
    41   18   38 1
    42   20   39 1
    43   21   40 1
    44   22   41 1
    45   23   42 1
    46   24   43 1
@<TRIPOS>PROPERTY_DATA
  Total_Score	| 4.7915
  Crash		| -2.8371
  Polar		| 2.3668
  FragIndex	| 1
  FragRMSD	| 0.888

