@<TRIPOS>MOLECULE
BindingDB_7099
 36 38 0 0 0
SMALL
NO_CHARGES


@<TRIPOS>ATOM
1    C       -12.9608  205.7233  110.3563  C     
2    C       -12.1506  205.9621  111.4500  C     
3    C       -10.9172  206.3902  110.9454  C     
4    N       -12.2284  206.0117  109.2723  N     
5    N       -11.0334  206.4044  109.6067  N     
6    N        -9.7787  206.7435  111.5889  N     
7    C        -9.5058  206.6638  112.8842  C     
8    O       -10.3459  206.2354  113.6720  O     
9    C        -8.2675  207.1867  113.4534  C     
10   C        -7.0003  206.4535  113.1578  C     
11   C        -4.5529  205.0197  112.7259  C     
12   C        -5.0310  205.2389  114.0327  C     
13   C        -6.2281  205.9539  114.2426  C     
14   C        -6.4981  206.2196  111.8436  C     
15   C        -5.3018  205.5008  111.6255  C     
16   C       -14.3487  205.2168  110.3126  C     
17   C       -14.5940  204.0109  111.2446  C     
18   C       -15.3518  205.3231  111.4729  C     
19   C        -8.1160  208.6867  113.1281  C     
20   H       -12.4282  205.8477  112.4225  H     
21   H       -12.5477  205.9374  108.3600  H     
22   H        -9.0536  207.0375  111.0144  H     
23   H        -8.3856  207.1378  114.5441  H     
24   H        -3.6760  204.5249  112.5582  H     
25   H        -4.4987  204.8685  114.8263  H     
26   H        -6.5395  206.0913  115.1991  H     
27   H        -6.9851  206.5802  111.0193  H     
28   H        -4.9666  205.3384  110.6690  H     
29   H       -14.7770  205.0534  109.3272  H     
30   H       -15.2077  203.1956  110.8533  H     
31   H       -13.8433  203.7868  112.0036  H     
32   H       -15.0405  205.9136  112.3352  H     
33   H       -16.3931  205.3445  111.1571  H     
34   H        -7.8703  208.8439  112.0636  H     
35   H        -7.3209  209.1243  113.7362  H     
36   H        -9.0426  209.2155  113.3617  H     
@<TRIPOS>BOND
     1    1    2 2
     2    1    4 1
     3    1   16 1
     4    2    3 1
     5    3    5 2
     6    3    6 1
     7    4    5 1
     8    6    7 am
     9    7    8 2
    10    7    9 1
    11    9   10 1
    12    9   19 1
    13   10   13 1
    14   10   14 2
    15   11   12 1
    16   11   15 2
    17   12   13 2
    18   14   15 1
    19   16   17 1
    20   16   18 1
    21   17   18 1
    22    2   20 1
    23    4   21 1
    24    6   22 1
    25    9   23 1
    26   11   24 1
    27   12   25 1
    28   13   26 1
    29   14   27 1
    30   15   28 1
    31   16   29 1
    32   17   30 1
    33   17   31 1
    34   18   32 1
    35   18   33 1
    36   19   34 1
    37   19   35 1
    38   19   36 1
@<TRIPOS>PROPERTY_DATA
  Total_Score	| 6.1913
  Crash		| -1.3434
  Polar		| 3.0401
  FragIndex	| 1
  FragRMSD	| 0.549

