@<TRIPOS>MOLECULE
BindingDB_7153
 33 35 0 0 0
SMALL
NO_CHARGES


@<TRIPOS>ATOM
1    C       -12.8541  205.5655  110.4607  C     
2    C       -12.0386  206.0861  111.4594  C     
3    C       -10.8809  206.5304  110.8239  C     
4    N       -12.1775  205.7200  109.3090  N     
5    N       -11.0265  206.2813  109.5102  N     
6    N        -9.7485  207.1247  111.2717  N     
7    C        -9.3676  207.3901  112.5114  C     
8    O       -10.0379  207.0567  113.4847  O     
9    C       -14.2222  205.0166  110.5099  C     
10   C       -14.4857  203.8739  111.5015  C     
11   C       -15.1615  205.2331  111.7101  C     
12   C        -8.0907  208.0416  112.7529  C     
13   C        -6.9898  207.0460  112.8431  C     
14   C        -4.9387  205.0841  113.0058  C     
15   C        -5.4753  205.6521  114.1828  C     
16   C        -6.4791  206.6365  114.1010  C     
17   C        -6.4657  206.4499  111.6637  C     
18   C        -5.4426  205.4849  111.7474  C     
19   H       -12.2463  206.1486  112.4549  H     
20   H       -12.5124  205.4540  108.4408  H     
21   H        -9.1194  207.4037  110.5789  H     
22   H       -14.7213  204.8591  109.5517  H     
23   H       -15.1784  203.0901  111.1821  H     
24   H       -13.7196  203.6425  112.2441  H     
25   H       -14.7821  205.8373  112.5351  H     
26   H       -16.2206  205.2998  111.4509  H     
27   H        -7.8675  208.7514  111.9540  H     
28   H        -8.1515  208.6355  113.6728  H     
29   H        -4.2014  204.3786  113.0646  H     
30   H        -5.1164  205.3518  115.0925  H     
31   H        -6.8528  207.0374  114.9756  H     
32   H        -6.8215  206.7170  110.7386  H     
33   H        -5.0738  205.0600  110.8911  H     
@<TRIPOS>BOND
     1    1    2 2
     2    1    4 1
     3    1    9 1
     4    2    3 1
     5    3    5 2
     6    3    6 1
     7    4    5 1
     8    6    7 am
     9    7    8 2
    10    7   12 1
    11    9   10 1
    12    9   11 1
    13   10   11 1
    14   12   13 1
    15   13   16 1
    16   13   17 2
    17   14   15 1
    18   14   18 2
    19   15   16 2
    20   17   18 1
    21    2   19 1
    22    4   20 1
    23    6   21 1
    24    9   22 1
    25   10   23 1
    26   10   24 1
    27   11   25 1
    28   11   26 1
    29   12   27 1
    30   12   28 1
    31   14   29 1
    32   15   30 1
    33   16   31 1
    34   17   32 1
    35   18   33 1
@<TRIPOS>PROPERTY_DATA
  Total_Score	| 7.4401
  Crash		| -0.2819
  Polar		| 3.2762
  FragIndex	| 1
  FragRMSD	| 0.228

