@<TRIPOS>MOLECULE
BindingDB_7159
 43 46 0 0 0
SMALL
NO_CHARGES


@<TRIPOS>ATOM
1    C       -12.8340  205.2111  110.5455  C     
2    C       -11.9277  205.7006  111.4765  C     
3    C       -10.9631  206.4003  110.7555  C     
4    N       -12.4004  205.6286  109.3457  N     
5    N       -11.3093  206.3200  109.4590  N     
6    N        -9.8537  207.0668  111.1589  N     
7    C        -9.3821  207.2431  112.3860  C     
8    O        -9.9265  206.7563  113.3713  O     
9    C       -14.0194  204.3553  110.7384  C     
10   C       -14.6152  204.1785  112.1525  C     
11   C       -15.3542  205.0258  111.1036  C     
12   C        -8.1798  208.0284  112.5971  C     
13   C        -7.0002  207.1556  112.8127  C     
14   C        -4.7322  205.4955  113.2191  C     
15   C        -5.5886  205.8033  114.2969  C     
16   C        -6.7135  206.6277  114.0934  C     
17   C        -6.1446  206.8283  111.7341  C     
18   C        -5.0234  206.0008  111.9342  C     
19   C        -3.5881  204.6946  113.4263  C     
20   C        -3.5870  203.3379  113.0452  C     
21   C        -2.4350  205.2501  114.0267  C     
22   C        -1.2957  204.4547  114.2423  C     
23   C        -1.3100  203.0940  113.8848  C     
24   C        -2.4559  202.5344  113.2906  C     
25   F        -2.4812  201.2675  112.9907  F     
26   H       -11.9552  205.5549  112.4885  H     
27   H       -12.8330  205.4320  108.5050  H     
28   H        -9.3422  207.4687  110.4418  H     
29   H       -14.1016  203.4548  110.1276  H     
30   H       -15.1068  203.2265  112.3719  H     
31   H       -14.2039  204.7693  112.9756  H     
32   H       -15.3472  206.0985  111.2974  H     
33   H       -16.2491  204.5635  110.6888  H     
34   H        -8.0001  208.6906  111.7473  H     
35   H        -8.3121  208.6847  113.4593  H     
36   H        -5.4071  205.4280  115.2340  H     
37   H        -7.3190  206.8420  114.8882  H     
38   H        -6.3340  207.1912  110.7967  H     
39   H        -4.4162  205.7851  111.1372  H     
40   H        -4.4146  202.9209  112.6076  H     
41   H        -2.4133  206.2366  114.3009  H     
42   H        -0.4597  204.8578  114.6670  H     
43   H        -0.4890  202.5125  114.0640  H     
@<TRIPOS>BOND
     1    1    2 2
     2    1    4 1
     3    1    9 1
     4    2    3 1
     5    3    5 2
     6    3    6 1
     7    4    5 1
     8    6    7 am
     9    7    8 2
    10    7   12 1
    11    9   10 1
    12    9   11 1
    13   10   11 1
    14   12   13 1
    15   13   16 1
    16   13   17 2
    17   14   15 1
    18   14   18 2
    19   14   19 1
    20   15   16 2
    21   17   18 1
    22   19   20 1
    23   19   21 2
    24   20   24 2
    25   21   22 1
    26   22   23 2
    27   23   24 1
    28   24   25 1
    29    2   26 1
    30    4   27 1
    31    6   28 1
    32    9   29 1
    33   10   30 1
    34   10   31 1
    35   11   32 1
    36   11   33 1
    37   12   34 1
    38   12   35 1
    39   15   36 1
    40   16   37 1
    41   17   38 1
    42   18   39 1
    43   20   40 1
    44   21   41 1
    45   22   42 1
    46   23   43 1
@<TRIPOS>PROPERTY_DATA
  Total_Score	| 7.6465
  Crash		| -0.8528
  Polar		| 3.3751
  FragIndex	| 1
  FragRMSD	| 0.792

