@<TRIPOS>MOLECULE
BindingDB_7108
 39 42 0 0 0
SMALL
NO_CHARGES


@<TRIPOS>ATOM
1    C       -12.7728  205.5714  110.4742  C     
2    C       -11.9099  206.0492  111.4517  C     
3    C       -10.7448  206.4300  110.7912  C     
4    N       -12.1171  205.6795  109.3098  N     
5    N       -10.9336  206.1846  109.4783  N     
6    N        -9.5811  206.9817  111.2259  N     
7    C        -9.2123  207.3068  112.4615  C     
8    O        -9.9284  207.0974  113.4346  O     
9    C        -7.9194  207.9374  112.6743  C     
10   C        -6.8509  206.9189  112.8707  C     
11   C        -6.1872  206.3396  111.7633  C     
12   C        -6.5056  206.4830  114.1727  C     
13   C        -5.5378  205.4813  114.3672  C     
14   C       -14.1438  205.0533  110.5928  C     
15   C       -14.3260  203.8558  111.5423  C     
16   C       -14.9711  205.2043  111.8830  C     
17   C        -5.2104  205.3343  111.9421  C     
18   C        -3.6367  203.7636  111.0713  C     
19   C        -4.5484  204.7354  110.8603  C     
20   C        -4.8843  204.9008  113.2626  C     
21   C        -3.9276  203.8906  113.4156  C     
22   C        -3.3335  203.3418  112.3363  C     
23   H       -12.1041  206.1112  112.4514  H     
24   H       -12.4879  205.4307  108.4439  H     
25   H        -8.9315  207.1795  110.5314  H     
26   H        -7.6713  208.5762  111.8231  H     
27   H        -7.9644  208.6103  113.5359  H     
28   H        -6.4314  206.6456  110.8157  H     
29   H        -6.9702  206.8845  114.9914  H     
30   H        -5.3187  205.1795  115.3191  H     
31   H       -14.7217  204.9424  109.6714  H     
32   H       -15.0333  203.0841  111.2324  H     
33   H       -13.5028  203.5775  112.2008  H     
34   H       -14.5022  205.7703  112.6924  H     
35   H       -16.0556  205.2561  111.7367  H     
36   H        -3.1834  203.3418  110.2943  H     
37   H        -4.7461  205.0212  109.9292  H     
38   H        -3.6851  203.5598  114.3225  H     
39   H        -2.6565  202.6221  112.4611  H     
@<TRIPOS>BOND
     1    1    2 2
     2    1    4 1
     3    1   14 1
     4    2    3 1
     5    3    5 2
     6    3    6 1
     7    4    5 1
     8    6    7 am
     9    7    8 2
    10    7    9 1
    11    9   10 1
    12   10   11 1
    13   10   12 2
    14   11   17 2
    15   12   13 1
    16   13   20 2
    17   14   15 1
    18   14   16 1
    19   15   16 1
    20   17   19 1
    21   17   20 1
    22   18   19 2
    23   18   22 1
    24   20   21 1
    25   21   22 2
    26    2   23 1
    27    4   24 1
    28    6   25 1
    29    9   26 1
    30    9   27 1
    31   11   28 1
    32   12   29 1
    33   13   30 1
    34   14   31 1
    35   15   32 1
    36   15   33 1
    37   16   34 1
    38   16   35 1
    39   18   36 1
    40   19   37 1
    41   21   38 1
    42   22   39 1
@<TRIPOS>PROPERTY_DATA
  Total_Score	| 8.9995
  Crash		| -0.4286
  Polar		| 3.2000
  FragIndex	| 1
  FragRMSD	| 0.068

