@<TRIPOS>MOLECULE
BindingDB_7097
 32 34 0 0 0
SMALL
NO_CHARGES


@<TRIPOS>ATOM
1    C       -12.8470  205.5988  110.4264  C     
2    C       -12.0041  206.0560  111.4320  C     
3    C       -10.8118  206.4177  110.8095  C     
4    N       -12.1539  205.6989  109.2830  N     
5    N       -10.9697  206.1798  109.4949  N     
6    N        -9.6563  206.9315  111.2959  N     
7    C        -9.3348  207.2272  112.5495  C     
8    O       -10.1006  207.0259  113.4843  O     
9    C        -8.1200  207.7617  112.8225  C     
10   C        -7.0034  206.9403  112.8138  C     
11   C        -4.7752  205.1884  112.7884  C     
12   C        -5.2433  205.7554  111.5905  C     
13   C        -6.3409  206.6361  111.6015  C     
14   C        -6.5029  206.3861  114.0170  C     
15   C        -5.4015  205.5106  114.0031  C     
16   C       -14.2369  205.1060  110.4982  C     
17   C       -14.4586  203.8904  111.4154  C     
18   C       -15.1007  205.2391  111.7635  C     
19   O        -8.0882  208.7483  113.5489  O     
20   H       -12.2266  206.1166  112.4256  H     
21   H       -12.5006  205.4575  108.4090  H     
22   H        -8.9816  207.1210  110.6280  H     
23   H        -3.9756  204.5516  112.7769  H     
24   H        -4.7768  205.5354  110.7072  H     
25   H        -6.6356  207.0659  110.7186  H     
26   H        -6.9533  206.5976  114.9126  H     
27   H        -5.0593  205.1054  114.8782  H     
28   H       -14.7873  205.0193  109.5588  H     
29   H       -15.1588  203.1322  111.0601  H     
30   H       -13.6458  203.5914  112.0814  H     
31   H       -14.6651  205.7711  112.6103  H     
32   H       -16.1767  205.3081  111.5903  H     
@<TRIPOS>BOND
     1    1    2 2
     2    1    4 1
     3    1   16 1
     4    2    3 1
     5    3    5 2
     6    3    6 1
     7    4    5 1
     8    6    7 am
     9    7    8 2
    10    7    9 1
    11    9   10 1
    12    9   19 2
    13   10   13 1
    14   10   14 2
    15   11   12 1
    16   11   15 2
    17   12   13 2
    18   14   15 1
    19   16   17 1
    20   16   18 1
    21   17   18 1
    22    2   20 1
    23    4   21 1
    24    6   22 1
    25   11   23 1
    26   12   24 1
    27   13   25 1
    28   14   26 1
    29   15   27 1
    30   16   28 1
    31   17   29 1
    32   17   30 1
    33   18   31 1
    34   18   32 1
@<TRIPOS>PROPERTY_DATA
  Total_Score	| 6.7854
  Crash		| -0.2656
  Polar		| 3.2419
  FragIndex	| 1
  FragRMSD	| 0.282

