@<TRIPOS>MOLECULE
BindingDB_7158
 43 46 0 0 0
SMALL
NO_CHARGES


@<TRIPOS>ATOM
1    C       -12.8362  205.5807  110.4242  C     
2    C       -11.9834  206.0437  111.4171  C     
3    C       -10.8263  206.4645  110.7613  C     
4    N       -12.1816  205.7211  109.2615  N     
5    N       -11.0080  206.2400  109.4487  N     
6    N        -9.6883  207.0355  111.2242  N     
7    C        -9.3721  207.3914  112.4658  C     
8    O       -10.1353  207.2300  113.4114  O     
9    C       -14.1879  205.0015  110.5451  C     
10   C       -14.2247  203.7646  111.4663  C     
11   C       -15.0243  205.0180  111.8355  C     
12   C        -8.1179  208.0780  112.6932  C     
13   C        -6.9983  207.1166  112.8771  C     
14   C        -4.8663  205.2838  113.2563  C     
15   C        -5.6371  205.7125  114.3576  C     
16   C        -6.6890  206.6266  114.1671  C     
17   C        -6.2336  206.6660  111.7765  C     
18   C        -5.1787  205.7551  111.9619  C     
19   C        -3.7409  204.4625  113.4631  C     
20   C        -3.6730  203.1639  112.9097  C     
21   C        -2.6841  204.9183  114.2865  C     
22   C        -1.5866  204.0819  114.5708  C     
23   C        -1.5401  202.7846  114.0282  C     
24   C        -2.5720  202.3324  113.1863  C     
25   H       -12.1766  206.0691  112.4249  H     
26   H       -12.5458  205.4752  108.4010  H     
27   H        -9.0245  207.2436  110.5475  H     
28   H       -14.7459  204.8509  109.6191  H     
29   H       -14.8068  202.9183  111.0958  H     
30   H       -13.3526  203.5745  112.0991  H     
31   H       -14.6388  205.5918  112.6808  H     
32   H       -16.1039  204.9336  111.6980  H     
33   H        -7.9147  208.7399  111.8451  H     
34   H        -8.1882  208.7345  113.5713  H     
35   H        -5.4279  205.3838  115.3027  H     
36   H        -7.2230  206.9334  114.9814  H     
37   H        -6.4281  207.0079  110.8337  H     
38   H        -4.6349  205.4438  111.1533  H     
39   H        -4.4235  202.8171  112.3084  H     
40   H        -2.7122  205.8547  114.7042  H     
41   H        -0.8333  204.4123  115.1746  H     
42   H        -0.7536  202.1721  114.2541  H     
43   H        -2.5352  201.3859  112.7906  H     
@<TRIPOS>BOND
     1    1    2 2
     2    1    4 1
     3    1    9 1
     4    2    3 1
     5    3    5 2
     6    3    6 1
     7    4    5 1
     8    6    7 am
     9    7    8 2
    10    7   12 1
    11    9   10 1
    12    9   11 1
    13   10   11 1
    14   12   13 1
    15   13   16 1
    16   13   17 2
    17   14   15 1
    18   14   18 2
    19   14   19 1
    20   15   16 2
    21   17   18 1
    22   19   20 1
    23   19   21 2
    24   20   24 2
    25   21   22 1
    26   22   23 2
    27   23   24 1
    28    2   25 1
    29    4   26 1
    30    6   27 1
    31    9   28 1
    32   10   29 1
    33   10   30 1
    34   11   31 1
    35   11   32 1
    36   12   33 1
    37   12   34 1
    38   15   35 1
    39   16   36 1
    40   17   37 1
    41   18   38 1
    42   20   39 1
    43   21   40 1
    44   22   41 1
    45   23   42 1
    46   24   43 1
@<TRIPOS>PROPERTY_DATA
  Total_Score	| 7.7935
  Crash		| -0.7624
  Polar		| 3.2576
  FragIndex	| 1
  FragRMSD	| 0.665

