@<TRIPOS>MOLECULE
BindingDB_7154
 37 39 0 0 0
SMALL
NO_CHARGES


@<TRIPOS>ATOM
1    C       -12.8560  205.5832  110.4885  C     
2    C       -12.0201  206.0712  111.4869  C     
3    C       -10.8532  206.4833  110.8517  C     
4    N       -12.1812  205.7146  109.3370  N     
5    N       -11.0125  206.2409  109.5383  N     
6    N        -9.7181  207.0565  111.3254  N     
7    C        -9.3972  207.3996  112.5674  C     
8    O       -10.1675  207.2258  113.5082  O     
9    C       -14.2298  205.0516  110.5648  C     
10   C       -14.4562  203.8945  111.5551  C     
11   C       -15.1167  205.2546  111.8049  C     
12   C        -8.1058  208.0098  112.8393  C     
13   C        -7.0171  206.9953  112.9141  C     
14   C        -4.9171  205.0412  113.0527  C     
15   C        -5.4677  205.6165  114.2261  C     
16   C        -6.4956  206.5771  114.1578  C     
17   C        -6.4682  206.4347  111.7384  C     
18   C        -5.4371  205.4774  111.8063  C     
19   C        -3.8984  204.0832  113.1343  C     
20   O        -3.3917  203.7757  114.2057  O     
21   N        -3.4206  203.4374  112.0934  N     
22   H       -12.2344  206.1242  112.4806  H     
23   H       -12.5336  205.4751  108.4636  H     
24   H        -9.0464  207.2599  110.6509  H     
25   H       -14.7616  204.8936  109.6231  H     
26   H       -15.1524  203.1096  111.2460  H     
27   H       -13.6584  203.6463  112.2565  H     
28   H       -14.6975  205.8367  112.6305  H     
29   H       -16.1894  205.3047  111.6083  H     
30   H        -7.8698  208.7434  112.0653  H     
31   H        -8.1520  208.5738  113.7769  H     
32   H        -5.1288  205.3426  115.1513  H     
33   H        -6.8632  206.9647  115.0297  H     
34   H        -6.8120  206.7258  110.8198  H     
35   H        -5.0721  205.1122  110.9260  H     
36   H        -2.7155  202.7795  112.2140  H     
37   H        -3.7727  203.6031  111.2055  H     
@<TRIPOS>BOND
     1    1    2 2
     2    1    4 1
     3    1    9 1
     4    2    3 1
     5    3    5 2
     6    3    6 1
     7    4    5 1
     8    6    7 am
     9    7    8 2
    10    7   12 1
    11    9   10 1
    12    9   11 1
    13   10   11 1
    14   12   13 1
    15   13   16 1
    16   13   17 2
    17   14   15 1
    18   14   18 2
    19   14   19 1
    20   15   16 2
    21   17   18 1
    22   19   20 2
    23   19   21 am
    24    2   22 1
    25    4   23 1
    26    6   24 1
    27    9   25 1
    28   10   26 1
    29   10   27 1
    30   11   28 1
    31   11   29 1
    32   12   30 1
    33   12   31 1
    34   15   32 1
    35   16   33 1
    36   17   34 1
    37   18   35 1
    38   21   36 1
    39   21   37 1
@<TRIPOS>PROPERTY_DATA
  Total_Score	| 7.5606
  Crash		| -0.2832
  Polar		| 3.2896
  FragIndex	| 1
  FragRMSD	| 0.228

