@<TRIPOS>MOLECULE
BindingDB_7165
 39 42 0 0 0
SMALL
NO_CHARGES


@<TRIPOS>ATOM
1    C       -12.7973  205.6193  110.4317  C     
2    C       -11.8611  205.9993  111.3925  C     
3    C       -10.7044  206.3497  110.7038  C     
4    N       -12.1851  205.7657  109.2491  N     
5    N       -10.9723  206.2010  109.3931  N     
6    N        -9.4897  206.7864  111.1162  N     
7    C        -9.0526  207.0334  112.3456  C     
8    O        -9.7906  206.8902  113.3160  O     
9    C       -14.2086  205.1894  110.5564  C     
10   C       -14.5011  204.0189  111.5125  C     
11   C       -15.0385  205.4213  111.8323  C     
12   C        -7.7071  207.5741  112.5556  C     
13   C        -6.7603  206.5864  113.1843  C     
14   C        -6.9097  206.3969  114.5868  C     
15   C        -6.1624  205.4487  115.2909  C     
16   C        -5.1999  204.6850  114.6277  C     
17   C        -5.7505  205.8189  112.5086  C     
18   C        -3.7257  204.2273  111.2427  C     
19   C        -4.4502  205.1697  110.5035  C     
20   C        -5.4471  205.9458  111.1245  C     
21   C        -4.9832  204.8606  113.2448  C     
22   C        -3.9909  204.0726  112.6100  C     
23   H       -12.0140  206.0014  112.4054  H     
24   H       -12.6006  205.5874  108.3889  H     
25   H        -8.8622  206.9914  110.4088  H     
26   H       -14.7946  205.1218  109.6342  H     
27   H       -15.2638  203.3077  111.1975  H     
28   H       -13.7065  203.6864  112.1862  H     
29   H       -14.5495  205.9318  112.6643  H     
30   H       -16.1105  205.5504  111.6840  H     
31   H        -7.3326  207.9624  111.6217  H     
32   H        -7.7915  208.4520  113.2026  H     
33   H        -7.5926  206.9494  115.1172  H     
34   H        -6.3243  205.3125  116.2925  H     
35   H        -4.6503  204.0139  115.1707  H     
36   H        -3.0050  203.6601  110.7883  H     
37   H        -4.2419  205.2887  109.5066  H     
38   H        -5.9269  206.6034  110.5272  H     
39   H        -3.4473  203.3855  113.1398  H     
@<TRIPOS>BOND
     1    1    2 2
     2    1    4 1
     3    1    9 1
     4    2    3 1
     5    3    5 2
     6    3    6 1
     7    4    5 1
     8    6    7 am
     9    7    8 2
    10    7   12 1
    11    9   10 1
    12    9   11 1
    13   10   11 1
    14   12   13 1
    15   13   14 2
    16   13   17 1
    17   14   15 1
    18   15   16 2
    19   16   21 1
    20   17   20 1
    21   17   21 2
    22   18   19 1
    23   18   22 2
    24   19   20 2
    25   21   22 1
    26    2   23 1
    27    4   24 1
    28    6   25 1
    29    9   26 1
    30   10   27 1
    31   10   28 1
    32   11   29 1
    33   11   30 1
    34   12   31 1
    35   12   32 1
    36   14   33 1
    37   15   34 1
    38   16   35 1
    39   18   36 1
    40   19   37 1
    41   20   38 1
    42   22   39 1
@<TRIPOS>PROPERTY_DATA
  Total_Score	| 7.6569
  Crash		| -1.1443
  Polar		| 3.1651
  FragIndex	| 1
  FragRMSD	| 0.956

