@<TRIPOS>MOLECULE
BindingDB_7098
 36 38 0 0 0
SMALL
NO_CHARGES


@<TRIPOS>ATOM
1    C       -12.7772  205.6319  110.4146  C     
2    C       -11.9393  206.0621  111.4352  C     
3    C       -10.7380  206.4236  110.8307  C     
4    N       -12.0781  205.7641  109.2754  N     
5    N       -10.8918  206.2398  109.5083  N     
6    N        -9.5635  206.8869  111.3311  N     
7    C        -9.1737  207.0060  112.6028  C     
8    O        -9.8670  206.5506  113.5108  O     
9    C        -7.8945  207.6372  112.9346  C     
10   C        -6.7562  206.6479  113.0266  C     
11   C        -4.4735  204.9191  113.1045  C     
12   C        -4.9866  205.3697  111.8745  C     
13   C        -6.1019  206.2292  111.8347  C     
14   C        -6.2212  206.1873  114.2638  C     
15   C        -5.0905  205.3438  114.3004  C     
16   C       -14.1516  205.0917  110.4643  C     
17   C       -14.2569  203.7971  111.2920  C     
18   C       -15.0208  205.0485  111.7339  C     
19   C        -8.1013  208.5564  114.1724  C     
20   H       -12.1723  206.1082  112.4255  H     
21   H       -12.4098  205.5144  108.4011  H     
22   H        -8.9214  207.1664  110.6669  H     
23   H        -7.6138  208.3047  112.1105  H     
24   H        -3.6390  204.3222  113.1360  H     
25   H        -4.5240  205.0820  111.0032  H     
26   H        -6.4309  206.5532  110.9214  H     
27   H        -6.6374  206.4893  115.1535  H     
28   H        -4.7050  205.0359  115.2028  H     
29   H       -14.6965  205.0188  109.5218  H     
30   H       -14.8813  203.0001  110.8816  H     
31   H       -13.4175  203.5331  111.9331  H     
32   H       -14.6298  205.5542  112.6186  H     
33   H       -16.0997  204.9939  111.5777  H     
34   H        -8.9130  209.2879  113.9684  H     
35   H        -7.1750  209.0785  114.4106  H     
36   H        -8.3823  207.9576  115.0412  H     
@<TRIPOS>BOND
     1    1    2 2
     2    1    4 1
     3    1   16 1
     4    2    3 1
     5    3    5 2
     6    3    6 1
     7    4    5 1
     8    6    7 am
     9    7    8 2
    10    7    9 1
    11    9   10 1
    12    9   19 1
    13   10   13 1
    14   10   14 2
    15   11   12 1
    16   11   15 2
    17   12   13 2
    18   14   15 1
    19   16   17 1
    20   16   18 1
    21   17   18 1
    22    2   20 1
    23    4   21 1
    24    6   22 1
    25    9   23 1
    26   11   24 1
    27   12   25 1
    28   13   26 1
    29   14   27 1
    30   15   28 1
    31   16   29 1
    32   17   30 1
    33   17   31 1
    34   18   32 1
    35   18   33 1
    36   19   34 1
    37   19   35 1
    38   19   36 1
@<TRIPOS>PROPERTY_DATA
  Total_Score	| 7.6376
  Crash		| -0.7352
  Polar		| 3.3335
  FragIndex	| 1
  FragRMSD	| 0.273

