@<TRIPOS>MOLECULE
BindingDB_50411967
 31 32 0 0 0
SMALL
NO_CHARGES


@<TRIPOS>ATOM
1    C        37.1103   54.1433   44.7787  C     
2    C        35.6668   54.1448   45.3099  C     
3    C        35.4845   55.6011   45.8118  C     
4    O        36.1774   56.3492   44.7955  O     
5    C        37.3039   55.6085   44.3090  C     
6    N        34.1565   56.1628   46.0716  N     
7    C        33.1177   55.4672   46.5943  C     
8    N        31.9706   56.0836   46.8850  N     
9    C        31.8104   57.3917   46.6977  C     
10   C        32.8295   58.1382   46.2034  C     
11   C        33.9891   57.5195   45.9145  C     
12   O        33.1500   54.2779   46.8764  O     
13   O        30.7585   57.9202   47.0243  O     
14   C        37.3468   55.7801   42.7715  C     
15   O        38.6121   55.2898   42.2833  O     
16   P        38.5755   54.3769   41.0250  P     
17   O        39.9202   53.6356   40.9123  O     
18   O        38.3754   55.1371   39.8200  O     
19   O        37.4564   53.3252   41.1146  O     
20   O        38.0336   53.8115   45.8177  O     
21   F        34.8123   53.8373   44.2763  F     
22   H        37.2409   53.4146   43.9722  H     
23   H        35.5374   53.4135   46.1110  H     
24   H        36.0474   55.7094   46.7468  H     
25   H        38.2137   56.0376   44.7401  H     
26   H        31.2396   55.5691   47.2654  H     
27   H        32.7337   59.1213   46.0798  H     
28   H        34.7358   58.0916   45.5908  H     
29   H        36.4614   55.2852   42.3514  H     
30   H        37.2831   56.8421   42.5219  H     
31   H        37.9009   52.8535   45.9866  H     
@<TRIPOS>BOND
     1    1    2 1
     2    1    5 1
     3    1   20 1
     4    2    3 1
     5    2   21 1
     6    3    4 1
     7    3    6 1
     8    4    5 1
     9    5   14 1
    10    6    7 1
    11    6   11 1
    12    7    8 1
    13    7   12 2
    14    8    9 1
    15    9   10 1
    16    9   13 2
    17   10   11 2
    18   14   15 1
    19   15   16 1
    20   16   17 1
    21   16   18 2
    22   16   19 1
    23    1   22 1
    24    2   23 1
    25    3   24 1
    26    5   25 1
    27    8   26 1
    28   10   27 1
    29   11   28 1
    30   14   29 1
    31   14   30 1
    32   20   31 1
@<TRIPOS>PROPERTY_DATA
  Total_Score	| 11.6397
  Crash		| -0.5991
  Polar		| 10.9239
  FragIndex	| 1
  FragRMSD	| 0.200

