@<TRIPOS>MOLECULE
BindingDB_50028108
 31 32 0 0 0
SMALL
NO_CHARGES


@<TRIPOS>ATOM
1    N        34.0344   56.1617   45.7641  N     
2    C        33.0540   55.5057   46.4279  C     
3    C        35.1926   55.4340   45.2585  C     
4    N        31.9747   56.1576   46.8551  N     
5    P        38.5313   54.3611   41.1413  P     
6    C        33.8949   57.5105   45.5801  C     
7    O        36.2266   56.2190   44.6268  O     
8    C        35.9224   54.6379   46.3638  C     
9    C        32.7973   58.1646   46.0010  C     
10   C        31.8239   57.4604   46.6384  C     
11   C        37.4668   55.4967   44.7086  C     
12   C        37.4240   54.7919   46.0781  C     
13   C        37.6559   54.5234   43.5286  C     
14   O        33.0998   54.3097   46.6917  O     
15   O        38.4323   55.1498   42.4798  O     
16   O        38.2146   55.3004   39.9773  O     
17   O        39.9611   53.8251   40.9328  O     
18   O        37.5774   53.2894   41.0379  O     
19   O        30.8040   58.0047   47.0284  O     
20   O        38.0504   55.5886   47.0920  O     
21   H        34.8364   54.7358   44.5057  H     
22   H        31.2774   55.6725   47.3332  H     
23   H        34.6060   58.0384   45.1323  H     
24   H        35.6661   55.0241   47.3560  H     
25   H        35.6345   53.5763   46.3115  H     
26   H        32.6983   59.1428   45.8439  H     
27   H        38.3003   56.2039   44.6910  H     
28   H        37.9296   53.8108   46.0828  H     
29   H        38.1755   53.6288   43.8788  H     
30   H        36.6732   54.2155   43.1429  H     
31   H        37.9126   55.0988   47.9346  H     
@<TRIPOS>BOND
     1    1    2 1
     2    1    3 1
     3    1    6 1
     4    2    4 1
     5    2   14 2
     6    3    7 1
     7    3    8 1
     8    4   10 1
     9    5   15 1
    10    5   16 1
    11    5   17 1
    12    5   18 2
    13    6    9 2
    14    7   11 1
    15    8   12 1
    16    9   10 1
    17   10   19 2
    18   11   12 1
    19   11   13 1
    20   12   20 1
    21   13   15 1
    22    3   21 1
    23    4   22 1
    24    6   23 1
    25    8   24 1
    26    8   25 1
    27    9   26 1
    28   11   27 1
    29   12   28 1
    30   13   29 1
    31   13   30 1
    32   20   31 1
@<TRIPOS>PROPERTY_DATA
  Total_Score	| 9.9063
  Crash		| -1.4177
  Polar		| 10.2792
  FragIndex	| 1
  FragRMSD	| 1.154

