@<TRIPOS>MOLECULE
BindingDB_50411966
 31 32 0 0 0
SMALL
NO_CHARGES


@<TRIPOS>ATOM
1    C        37.2031   54.0893   44.8606  C     
2    C        35.7115   54.1382   45.2522  C     
3    C        35.5946   55.5300   45.9218  C     
4    O        36.5382   56.3708   45.2181  O     
5    C        37.4871   55.5670   44.4853  C     
6    N        34.2522   56.1183   45.9997  N     
7    C        33.2149   55.4250   46.5376  C     
8    N        32.0397   56.0407   46.7308  N     
9    C        31.8474   57.3217   46.3982  C     
10   C        32.8464   58.0219   45.7981  C     
11   C        34.0236   57.4107   45.5910  C     
12   O        33.2964   54.2666   46.9234  O     
13   O        30.7646   57.8456   46.6196  O     
14   C        37.3559   55.8836   42.9582  C     
15   O        38.5463   55.4352   42.2841  O     
16   P        38.4762   54.3876   41.1430  P     
17   O        38.2697   55.1495   39.8203  O     
18   O        37.3830   53.4320   41.1915  O     
19   O        39.8138   53.6516   40.9676  O     
20   O        38.0443   53.7108   45.9592  O     
21   F        34.9216   54.0472   44.1234  F     
22   F        35.3862   53.0713   46.0544  F     
23   H        37.3845   53.3922   44.0256  H     
24   H        35.9835   55.4557   46.9410  H     
25   H        38.4969   55.8591   44.8050  H     
26   H        31.3080   55.5424   47.1354  H     
27   H        32.7035   58.9521   45.4933  H     
28   H        34.7367   57.9365   45.1361  H     
29   H        36.4083   55.4946   42.5601  H     
30   H        37.3374   56.9825   42.8530  H     
31   H        37.7499   52.8089   46.1909  H     
@<TRIPOS>BOND
     1    1    2 1
     2    1    5 1
     3    1   20 1
     4    2    3 1
     5    2   21 1
     6    2   22 1
     7    3    4 1
     8    3    6 1
     9    4    5 1
    10    5   14 1
    11    6    7 1
    12    6   11 1
    13    7    8 1
    14    7   12 2
    15    8    9 1
    16    9   10 1
    17    9   13 2
    18   10   11 2
    19   14   15 1
    20   15   16 1
    21   16   17 1
    22   16   18 2
    23   16   19 1
    24    1   23 1
    25    3   24 1
    26    5   25 1
    27    8   26 1
    28   10   27 1
    29   11   28 1
    30   14   29 1
    31   14   30 1
    32   20   31 1
@<TRIPOS>PROPERTY_DATA
  Total_Score	| 11.6276
  Crash		| -0.7917
  Polar		| 11.1859
  FragIndex	| 1
  FragRMSD	| 0.851

