@<TRIPOS>MOLECULE
BindingDB_50023647
 41 43 0 0 0
SMALL
NO_CHARGES


@<TRIPOS>ATOM
1    N        34.1518   56.1521   45.7466  N     
2    C        33.2496   55.4014   46.4071  C     
3    N        32.1653   55.9592   46.9319  N     
4    C        32.9668   58.1221   46.4657  C     
5    C        35.2012   55.6369   44.8637  C     
6    C        31.9872   57.2728   46.9422  C     
7    C        33.9947   57.5171   45.8160  C     
8    P        38.5653   54.3294   41.1142  P     
9    O        36.4486   56.3269   45.0872  O     
10   C        35.5937   54.1284   44.7026  C     
11   C        37.4922   55.5895   44.4348  C     
12   C        37.1309   54.1339   44.7816  C     
13   C        37.5984   55.8998   42.9124  C     
14   O        33.3440   54.2015   46.5980  O     
15   C        32.9554   59.5150   46.7045  C     
16   O        38.7563   55.2411   42.3613  O     
17   O        37.3877   53.3460   41.2217  O     
18   O        38.3508   55.1641   39.8442  O     
19   O        30.9490   57.6544   47.4588  O     
20   O        39.7703   53.5716   40.9064  O     
21   O        37.5756   53.8526   46.1100  O     
22   C        34.1685   60.2364   46.8798  C     
23   C        31.7429   60.2457   46.8185  C     
24   C        31.7403   61.6174   47.1288  C     
25   C        34.1703   61.6166   47.1542  C     
26   C        32.9539   62.3069   47.2785  C     
27   H        31.4753   55.3873   47.3083  H     
28   H        34.8790   55.9566   43.8661  H     
29   H        34.6747   58.0988   45.3769  H     
30   H        35.1809   53.4261   45.4247  H     
31   H        35.2852   53.7693   43.7147  H     
32   H        38.4435   55.8600   44.8991  H     
33   H        37.5811   53.4121   44.0949  H     
34   H        36.6589   55.6531   42.4075  H     
35   H        37.7514   56.9741   42.7944  H     
36   H        37.4971   52.8838   46.2211  H     
37   H        35.0724   59.7589   46.8327  H     
38   H        30.8396   59.7937   46.6585  H     
39   H        30.8536   62.1194   47.2186  H     
40   H        35.0549   62.1164   47.2737  H     
41   H        32.9523   63.3082   47.4720  H     
@<TRIPOS>BOND
     1    1    2 1
     2    1    5 1
     3    1    7 1
     4    2    3 1
     5    2   14 2
     6    3    6 1
     7    4    6 1
     8    4    7 2
     9    4   15 1
    10    5    9 1
    11    5   10 1
    12    6   19 2
    13    8   16 1
    14    8   17 1
    15    8   18 1
    16    8   20 2
    17    9   11 1
    18   10   12 1
    19   11   12 1
    20   11   13 1
    21   12   21 1
    22   13   16 1
    23   15   22 1
    24   15   23 2
    25   22   25 2
    26   23   24 1
    27   24   26 2
    28   25   26 1
    29    3   27 1
    30    5   28 1
    31    7   29 1
    32   10   30 1
    33   10   31 1
    34   11   32 1
    35   12   33 1
    36   13   34 1
    37   13   35 1
    38   21   36 1
    39   22   37 1
    40   23   38 1
    41   24   39 1
    42   25   40 1
    43   26   41 1
@<TRIPOS>PROPERTY_DATA
  Total_Score	| 10.9621
  Crash		| -2.7623
  Polar		| 10.2381
  FragIndex	| 1
  FragRMSD	| 0.884

