@<TRIPOS>MOLECULE
BindingDB_50022238
 31 32 0 0 0
SMALL
NO_CHARGES


@<TRIPOS>ATOM
1    N        34.2196   56.1341   46.0840  N     
2    C        33.1677   55.4385   46.5751  C     
3    N        31.9955   56.0468   46.7843  N     
4    C        35.5494   55.5281   46.0071  C     
5    C        34.0316   57.4639   45.8134  C     
6    C        32.8596   58.0894   46.0633  C     
7    C        31.8450   57.3492   46.5837  C     
8    O        36.5283   56.3597   45.3508  O     
9    P        38.3820   54.5482   41.1375  P     
10   C        35.6575   54.1499   45.3163  C     
11   C        37.4102   55.5754   44.5335  C     
12   C        37.1332   54.1003   44.8882  C     
13   C        37.1914   55.9058   43.0320  C     
14   O        33.2017   54.2614   46.8845  O     
15   O        38.4170   55.6044   42.2996  O     
16   O        38.2847   55.2033   39.8429  O     
17   O        30.7742   57.8809   46.8704  O     
18   F        32.7474   59.3443   45.8592  F     
19   O        39.7820   53.8808   41.1374  O     
20   O        37.3595   53.3910   41.1563  O     
21   O        37.9797   53.7129   45.9702  O     
22   H        31.2521   55.5363   47.1500  H     
23   H        35.9081   55.4193   47.0354  H     
24   H        34.7711   58.0077   45.4353  H     
25   H        35.4190   53.3263   45.9892  H     
26   H        35.0033   54.1065   44.4426  H     
27   H        38.4426   55.8410   44.7889  H     
28   H        37.2814   53.4019   44.0504  H     
29   H        36.2526   55.4272   42.6867  H     
30   H        37.0444   56.9901   42.9409  H     
31   H        37.6991   52.8056   46.2137  H     
@<TRIPOS>BOND
     1    1    2 1
     2    4    1 1
     3    1    5 1
     4    2    3 1
     5    2   14 2
     6    3    7 1
     7    4    8 1
     8    4   10 1
     9    5    6 2
    10    6    7 1
    11    6   18 1
    12    7   17 2
    13    8   11 1
    14    9   15 1
    15    9   16 2
    16    9   19 1
    17    9   20 1
    18   10   12 1
    19   11   12 1
    20   11   13 1
    21   12   21 1
    22   13   15 1
    23    3   22 1
    24    4   23 1
    25    5   24 1
    26   10   25 1
    27   10   26 1
    28   11   27 1
    29   12   28 1
    30   13   29 1
    31   13   30 1
    32   21   31 1
@<TRIPOS>PROPERTY_DATA
  Total_Score	| 11.8713
  Crash		| -0.3690
  Polar		| 11.1635
  FragIndex	| 1
  FragRMSD	| 0.378

