@<TRIPOS>MOLECULE
BindingDB_50137405
 50 52 0 0 0
SMALL
NO_CHARGES


@<TRIPOS>ATOM
1    C        15.9900   30.2710   17.6213  C     
2    O        15.0421   31.3462   17.7020  O     
3    C        16.3365   29.6767   19.0384  C     
4    C        16.3814   31.7273   17.3552  C     
5    C        17.6739   28.8807   19.1366  C     
6    O        17.9800   27.9841   18.0607  O     
7    C        15.1600   28.8308   19.6471  C     
8    C        18.8413   29.1275   18.1886  C     
9    C        15.3637   29.9136   22.7065  C     
10   C        15.4648   28.0351   20.9701  C     
11   O        15.1463   28.6663   22.2225  O     
12   C        16.4327   32.4588   15.9911  C     
13   C        17.6908   32.1789   15.3115  C     
14   C        18.0100   28.3304   20.5419  C     
15   O        15.9307   30.8743   21.9570  O     
16   C        16.8766   27.3809   21.0015  C     
17   C        18.7328   33.0205   15.1083  C     
18   C        15.7218   29.3331   16.4073  C     
19   N        14.9736   30.2236   23.9490  N     
20   O        14.0297   29.7182   19.7961  O     
21   C        18.7271   34.4093   15.5783  C     
22   C        19.9069   32.5025   14.4007  C     
23   C        12.7478   29.1500   20.1188  C     
24   H        16.5010   30.5192   19.7057  H     
25   H        16.8658   32.2543   18.1789  H     
26   H        14.9151   28.0761   18.8974  H     
27   H        18.7237   29.8224   17.3588  H     
28   H        19.8455   28.8241   18.4841  H     
29   H        14.7661   27.1947   20.9725  H     
30   H        15.6090   32.1571   15.3404  H     
31   H        16.2883   33.5222   16.1828  H     
32   H        17.7777   31.2464   14.9730  H     
33   H        18.9593   27.7821   20.5467  H     
34   H        18.0996   29.1768   21.2333  H     
35   H        17.1012   27.0252   22.0112  H     
36   H        16.8806   26.5040   20.3430  H     
37   H        15.3977   29.8775   15.5238  H     
38   H        14.9408   28.6121   16.6398  H     
39   H        16.6306   28.7939   16.1458  H     
40   H        15.1083   31.1255   24.2809  H     
41   H        14.5734   29.5575   24.5301  H     
42   H        17.9182   34.9606   15.0956  H     
43   H        19.6593   34.9375   15.3574  H     
44   H        18.5863   34.4385   16.6639  H     
45   H        20.3007   31.6264   14.9193  H     
46   H        20.7234   33.2267   14.3317  H     
47   H        19.6283   32.2196   13.3834  H     
48   H        12.5083   28.2794   19.4964  H     
49   H        11.9954   29.9252   19.9375  H     
50   H        12.6962   28.8720   21.1782  H     
@<TRIPOS>BOND
     1    1    2 1
     2    1    3 1
     3    1    4 1
     4    1   18 1
     5    4    2 1
     6    3    5 1
     7    3    7 1
     8    4   12 1
     9    5    6 1
    10    5    8 1
    11    5   14 1
    12    6    8 1
    13    7   10 1
    14    7   20 1
    15    9   11 1
    16    9   15 2
    17    9   19 am
    18   10   11 1
    19   10   16 1
    20   12   13 1
    21   13   17 2
    22   14   16 1
    23   17   21 1
    24   17   22 1
    25   20   23 1
    26    3   24 1
    27    4   25 1
    28    7   26 1
    29    8   27 1
    30    8   28 1
    31   10   29 1
    32   12   30 1
    33   12   31 1
    34   13   32 1
    35   14   33 1
    36   14   34 1
    37   16   35 1
    38   16   36 1
    39   18   37 1
    40   18   38 1
    41   18   39 1
    42   19   40 1
    43   19   41 1
    44   21   42 1
    45   21   43 1
    46   21   44 1
    47   22   45 1
    48   22   46 1
    49   22   47 1
    50   23   48 1
    51   23   49 1
    52   23   50 1
@<TRIPOS>PROPERTY_DATA
  Total_Score	| 6.4784
  Crash		| -0.7392
  Polar		| 0.7987
  FragIndex	| 1
  FragRMSD	| 0.774

