@<TRIPOS>MOLECULE
BindingDB_50137403
 52 54 0 0 0
SMALL
NO_CHARGES


@<TRIPOS>ATOM
1    C        16.2244   30.3142   17.3079  C     
2    O        15.3128   31.4253   17.3096  O     
3    C        16.4963   29.7056   18.7339  C     
4    C        16.6918   31.7498   17.0672  C     
5    C        17.8017   28.8575   18.8513  C     
6    O        18.1161   27.9968   17.7447  O     
7    C        15.0534   29.2340   22.9295  C     
8    N        14.9771   30.2856   23.7786  N     
9    C        15.2721   28.9002   19.2949  C     
10   C        19.0087   29.1012   17.9548  C     
11   C        15.2777   31.5521   23.5460  C     
12   C        15.5590   28.2553   20.6828  C     
13   O        15.5947   29.2835   21.6909  O     
14   C        16.9734   32.3378   15.6549  C     
15   C        17.7753   33.5526   15.7345  C     
16   C        18.0921   28.2278   20.2413  C     
17   O        14.5537   28.0605   23.3898  O     
18   O        15.0960   32.3298   24.4645  O     
19   C        16.8645   27.4157   20.7143  C     
20   C        19.0499   33.7408   15.3256  C     
21   C        16.0406   29.3876   16.0675  C     
22   Cl       15.7978   32.2014   22.1084  Cl    
23   O        14.1585   29.8261   19.3673  O     
24   C        19.6872   35.0236   15.6389  C     
25   C        19.8094   32.7037   14.6248  C     
26   C        12.9338   29.3665   19.9621  C     
27   H        16.6486   30.5376   19.4240  H     
28   H        17.1407   32.2524   17.9270  H     
29   H        14.6233   30.0859   24.6587  H     
30   H        15.0364   28.0962   18.5954  H     
31   H        18.9455   29.8720   17.1864  H     
32   H        19.9913   28.7989   18.3227  H     
33   H        14.7498   27.5432   20.8950  H     
34   H        17.4553   31.5636   15.0543  H     
35   H        16.0295   32.5829   15.1604  H     
36   H        17.3205   34.3199   16.1958  H     
37   H        18.9715   27.5673   20.2004  H     
38   H        18.3065   29.0329   20.9501  H     
39   H        17.0573   27.0628   21.7284  H     
40   H        16.7516   26.5399   20.0649  H     
41   H        15.4686   28.4902   16.3246  H     
42   H        17.0167   29.0733   15.6788  H     
43   H        15.5087   29.8976   15.2537  H     
44   H        19.1197   35.8401   15.1862  H     
45   H        20.7150   35.0940   15.2796  H     
46   H        19.7105   35.1755   16.7221  H     
47   H        19.8875   31.8053   15.2423  H     
48   H        20.8251   33.0171   14.3752  H     
49   H        19.3092   32.4482   13.6882  H     
50   H        12.5679   28.4650   19.4604  H     
51   H        12.1852   30.1609   19.8563  H     
52   H        13.0486   29.1664   21.0301  H     
@<TRIPOS>BOND
     1    1    2 1
     2    1    3 1
     3    1    4 1
     4    1   21 1
     5    4    2 1
     6    3    5 1
     7    3    9 1
     8    4   14 1
     9    5    6 1
    10    5   10 1
    11    5   16 1
    12    6   10 1
    13    7    8 am
    14    7   13 1
    15    7   17 2
    16    8   11 am
    17    9   12 1
    18    9   23 1
    19   11   18 2
    20   11   22 1
    21   12   13 1
    22   12   19 1
    23   14   15 1
    24   15   20 2
    25   16   19 1
    26   20   24 1
    27   20   25 1
    28   23   26 1
    29    3   27 1
    30    4   28 1
    31    8   29 1
    32    9   30 1
    33   10   31 1
    34   10   32 1
    35   12   33 1
    36   14   34 1
    37   14   35 1
    38   15   36 1
    39   16   37 1
    40   16   38 1
    41   19   39 1
    42   19   40 1
    43   21   41 1
    44   21   42 1
    45   21   43 1
    46   24   44 1
    47   24   45 1
    48   24   46 1
    49   25   47 1
    50   25   48 1
    51   25   49 1
    52   26   50 1
    53   26   51 1
    54   26   52 1
@<TRIPOS>PROPERTY_DATA
  Total_Score	| 5.9708
  Crash		| -1.0999
  Polar		| 0.8392
  FragIndex	| 1
  FragRMSD	| 0.740

