@<TRIPOS>MOLECULE
BindingDB_1786
 31 32 0 0 0
SMALL
NO_CHARGES


@<TRIPOS>ATOM
1    C         0.2484  -34.2829   26.6444  C     
2    C         0.0343  -35.2026   25.5952  C     
3    C         1.4889  -33.6218   26.7893  C     
4    C         1.0785  -35.4668   24.6863  C     
5    C         2.5199  -33.8928   25.8603  C     
6    C         2.3157  -34.8130   24.8173  C     
7    S        -1.5315  -35.9413   25.3636  S     
8    C        -2.3724  -35.0929   24.0757  C     
9    C        -2.1346  -35.3143   22.6902  C     
10   C        -2.8958  -34.6053   21.7223  C     
11   C        -3.8526  -33.6581   22.1362  C     
12   C        -3.3113  -34.1027   24.4598  C     
13   C        -4.0415  -33.3889   23.4984  C     
14   C        -1.2218  -36.1548   22.2868  C     
15   N        -0.4176  -36.8923   21.9319  N     
16   N        -2.7550  -34.7811   20.3891  N     
17   O        -1.3419  -37.4874   25.0382  O     
18   O        -2.3735  -35.8780   26.7132  O     
19   C         1.6845  -32.6587   27.9011  C     
20   H        -0.5157  -34.0654   27.2898  H     
21   H         0.9466  -36.1248   23.9168  H     
22   H         3.4268  -33.4263   25.9405  H     
23   H         3.0651  -35.0022   24.1484  H     
24   H        -4.4030  -33.1400   21.4481  H     
25   H        -3.4731  -33.8868   25.4440  H     
26   H        -4.7159  -32.6745   23.7870  H     
27   H        -3.3079  -34.2697   19.7774  H     
28   H        -2.0809  -35.3814   20.0305  H     
29   H         0.8360  -31.9762   27.9706  H     
30   H         2.5802  -32.0619   27.7464  H     
31   H         1.7858  -33.1954   28.8412  H     
@<TRIPOS>BOND
     1    1    2 1
     2    1    3 2
     3    2    4 2
     4    2    7 1
     5    3    5 1
     6    3   19 1
     7    4    6 1
     8    5    6 2
     9    7    8 1
    10    7   17 2
    11    7   18 2
    12    8    9 2
    13    8   12 1
    14    9   10 1
    15    9   14 1
    16   10   11 2
    17   10   16 1
    18   11   13 1
    19   12   13 2
    20   14   15 3
    21    1   20 1
    22    4   21 1
    23    5   22 1
    24    6   23 1
    25   11   24 1
    26   12   25 1
    27   13   26 1
    28   16   27 1
    29   16   28 1
    30   19   29 1
    31   19   30 1
    32   19   31 1
@<TRIPOS>PROPERTY_DATA
  Total_Score	| 5.8003
  Crash		| -0.7375
  Polar		| 0.2479
  FragIndex	| 1
  FragRMSD	| 0.165

