@<TRIPOS>MOLECULE
BindingDB_1785
 31 32 0 0 0
SMALL
NO_CHARGES


@<TRIPOS>ATOM
1    C         1.2761  -35.5153   25.5428  C     
2    C        -0.0410  -35.0280   25.8046  C     
3    C         2.3911  -34.6904   25.8517  C     
4    C        -0.1941  -33.7524   26.4050  C     
5    C         2.2228  -33.4303   26.4551  C     
6    C         0.9304  -32.9684   26.7333  C     
7    S        -1.5305  -35.8753   25.4276  S     
8    C        -2.4091  -35.0897   24.1215  C     
9    C        -2.1734  -35.3544   22.7378  C     
10   C        -2.9302  -34.6695   21.7401  C     
11   C        -3.9119  -33.7401   22.1230  C     
12   C        -3.3828  -34.1231   24.4645  C     
13   C        -4.1330  -33.4603   23.4796  C     
14   C        -1.2986  -36.2232   22.3509  C     
15   N        -0.5156  -37.0135   21.9863  N     
16   N        -2.7544  -34.8537   20.4156  N     
17   O        -1.3883  -37.4407   25.1425  O     
18   O        -2.4175  -35.8132   26.7436  O     
19   C         1.5508  -36.8728   24.9999  C     
20   H         3.3459  -35.0193   25.6798  H     
21   H        -1.1252  -33.3859   26.6175  H     
22   H         3.0416  -32.8582   26.6908  H     
23   H         0.8030  -32.0541   27.1750  H     
24   H        -4.4657  -33.2497   21.4182  H     
25   H        -3.5653  -33.8885   25.4467  H     
26   H        -4.8545  -32.7848   23.7446  H     
27   H        -3.3014  -34.3540   19.7893  H     
28   H        -2.0786  -35.4594   20.0764  H     
29   H         1.1839  -37.6356   25.6901  H     
30   H         2.6119  -37.0442   24.8374  H     
31   H         1.0698  -36.9903   24.0330  H     
@<TRIPOS>BOND
     1    1    2 1
     2    1    3 2
     3    1   19 1
     4    2    4 2
     5    2    7 1
     6    3    5 1
     7    4    6 1
     8    5    6 2
     9    7    8 1
    10    7   17 2
    11    7   18 2
    12    8    9 2
    13    8   12 1
    14    9   10 1
    15    9   14 1
    16   10   11 2
    17   10   16 1
    18   11   13 1
    19   12   13 2
    20   14   15 3
    21    3   20 1
    22    4   21 1
    23    5   22 1
    24    6   23 1
    25   11   24 1
    26   12   25 1
    27   13   26 1
    28   16   27 1
    29   16   28 1
    30   19   29 1
    31   19   30 1
    32   19   31 1
@<TRIPOS>PROPERTY_DATA
  Total_Score	| 5.4177
  Crash		| -0.8635
  Polar		| 0.2005
  FragIndex	| 1
  FragRMSD	| 0.545

