@<TRIPOS>MOLECULE
BindingDB_1769
 33 34 0 0 0
SMALL
NO_CHARGES


@<TRIPOS>ATOM
1    C         0.4439  -33.8002   26.4144  C     
2    C        -0.0914  -34.9321   25.7536  C     
3    C         1.8029  -33.4408   26.2608  C     
4    C         0.7768  -35.7154   24.9666  C     
5    C         2.6241  -34.1997   25.4054  C     
6    C         2.1148  -35.3282   24.7431  C     
7    S        -1.7896  -35.2815   26.0042  S     
8    C        -2.4288  -34.7544   24.4433  C     
9    C        -2.1049  -35.2517   23.1426  C     
10   C        -2.6919  -34.6613   21.9907  C     
11   C        -3.6418  -33.6341   22.1328  C     
12   C        -3.3815  -33.7120   24.5460  C     
13   C        -3.9911  -33.1653   23.4040  C     
14   C        -1.3121  -36.2697   22.9544  C     
15   N        -0.6190  -37.1744   22.7646  N     
16   N        -2.3822  -35.0324   20.7272  N     
17   O        -1.7984  -36.8702   25.8517  O     
18   C         2.3508  -32.2756   26.9867  C     
19   C         2.9563  -36.0979   23.8007  C     
20   H        -0.1627  -33.2358   27.0194  H     
21   H         0.4537  -36.5794   24.5526  H     
22   H         3.6037  -33.9336   25.2690  H     
23   H        -4.0870  -33.2210   21.3091  H     
24   H        -3.6550  -33.3355   25.4569  H     
25   H        -4.6884  -32.4212   23.4964  H     
26   H        -2.8025  -34.5877   19.9727  H     
27   H        -1.7149  -35.7172   20.5680  H     
28   H         1.7947  -31.3767   26.7141  H     
29   H         3.4044  -32.1058   26.7594  H     
30   H         2.2591  -32.4356   28.0626  H     
31   H         3.0261  -37.1364   24.1283  H     
32   H         3.9706  -35.6946   23.7162  H     
33   H         2.5037  -36.0754   22.8060  H     
@<TRIPOS>BOND
     1    1    2 1
     2    1    3 2
     3    2    4 2
     4    2    7 1
     5    3    5 1
     6    3   18 1
     7    4    6 1
     8    5    6 2
     9    6   19 1
    10    7    8 1
    11    7   17 2
    12    8    9 2
    13    8   12 1
    14    9   10 1
    15    9   14 1
    16   10   11 2
    17   10   16 1
    18   11   13 1
    19   12   13 2
    20   14   15 3
    21    1   20 1
    22    4   21 1
    23    5   22 1
    24   11   23 1
    25   12   24 1
    26   13   25 1
    27   16   26 1
    28   16   27 1
    29   18   28 1
    30   18   29 1
    31   18   30 1
    32   19   31 1
    33   19   32 1
    34   19   33 1
@<TRIPOS>PROPERTY_DATA
  Total_Score	| 5.9796
  Crash		| -0.9197
  Polar		| 0.0080
  FragIndex	| 1
  FragRMSD	| 0.690

