@<TRIPOS>MOLECULE
BindingDB_1802
 34 35 0 0 0
SMALL
NO_CHARGES


@<TRIPOS>ATOM
1    C         1.1735  -35.6013   24.9080  C     
2    C         0.0519  -35.2063   25.6701  C     
3    C         2.4312  -34.9842   25.0893  C     
4    C         0.1930  -34.1764   26.6182  C     
5    C         2.5463  -33.9445   26.0356  C     
6    C         1.4377  -33.5373   26.8131  C     
7    S        -1.4996  -35.9602   25.4155  S     
8    C        -2.3368  -35.1305   24.1162  C     
9    C        -2.0867  -35.3762   22.7352  C     
10   C        -2.7971  -34.6426   21.7485  C     
11   C        -3.7543  -33.6878   22.1393  C     
12   C        -3.2815  -34.1441   24.4780  C     
13   C        -3.9940  -33.4360   23.4975  C     
14   C        -1.2177  -36.2798   22.3607  C     
15   N        -0.4657  -37.0913   22.0533  N     
16   N        -2.5946  -34.8028   20.4241  N     
17   O        -1.2981  -37.5087   25.0989  O     
18   C         1.5574  -32.4621   27.8228  C     
19   C         3.6201  -35.4005   24.3066  C     
20   O        -2.3615  -35.9153   26.7512  O     
21   H         1.0719  -36.3206   24.1909  H     
22   H        -0.6165  -33.8794   27.1688  H     
23   H         3.4528  -33.4865   26.1649  H     
24   H        -4.2800  -33.1642   21.4360  H     
25   H        -3.4670  -33.9290   25.4611  H     
26   H        -4.6854  -32.7339   23.7693  H     
27   H        -3.1013  -34.2731   19.7902  H     
28   H        -1.9174  -35.4147   20.1001  H     
29   H         0.8995  -31.6286   27.5598  H     
30   H         2.5776  -32.0841   27.8859  H     
31   H         1.2706  -32.8427   28.8056  H     
32   H         3.4094  -36.2654   23.6733  H     
33   H         4.4342  -35.6652   24.9828  H     
34   H         3.9529  -34.5807   23.6667  H     
@<TRIPOS>BOND
     1    1    2 1
     2    1    3 2
     3    2    4 2
     4    2    7 1
     5    3    5 1
     6    3   19 1
     7    4    6 1
     8    5    6 2
     9    6   18 1
    10    7    8 1
    11    7   17 2
    12    7   20 2
    13    8    9 2
    14    8   12 1
    15    9   10 1
    16    9   14 1
    17   10   11 2
    18   10   16 1
    19   11   13 1
    20   12   13 2
    21   14   15 3
    22    1   21 1
    23    4   22 1
    24    5   23 1
    25   11   24 1
    26   12   25 1
    27   13   26 1
    28   16   27 1
    29   16   28 1
    30   18   29 1
    31   18   30 1
    32   18   31 1
    33   19   32 1
    34   19   33 1
    35   19   34 1
@<TRIPOS>PROPERTY_DATA
  Total_Score	| 6.3288
  Crash		| -0.8846
  Polar		| 0.1534
  FragIndex	| 1
  FragRMSD	| 0.045

