@<TRIPOS>MOLECULE
BindingDB_1797
 29 30 0 0 0
SMALL
NO_CHARGES


@<TRIPOS>ATOM
1    C         1.2065  -35.5805   25.1143  C     
2    C         0.0138  -35.1222   25.7165  C     
3    C         2.4257  -34.8978   25.3316  C     
4    C         0.0517  -33.9866   26.5572  C     
5    C         2.4450  -33.7534   26.1581  C     
6    C         1.2626  -33.3067   26.7752  C     
7    S        -1.5136  -35.9144   25.4192  S     
8    C        -2.3702  -35.0911   24.1249  C     
9    C        -2.1330  -35.3369   22.7392  C     
10   C        -2.8816  -34.6314   21.7610  C     
11   C        -3.8489  -33.6881   22.1565  C     
12   C        -3.3303  -34.1189   24.4906  C     
13   C        -4.0718  -33.4280   23.5163  C     
14   C        -1.2339  -36.2051   22.3481  C     
15   N        -0.4490  -36.9696   22.0003  N     
16   N        -2.7033  -34.8169   20.4364  N     
17   O        -1.2892  -37.4492   25.0679  O     
18   O        -2.3621  -35.8923   26.7633  O     
19   C         3.5270  -35.3052   24.7708  C     
20   N         4.5029  -35.6474   24.2701  N     
21   H         1.1883  -36.4079   24.5114  H     
22   H        -0.8010  -33.6368   27.0034  H     
23   H         3.3147  -33.2418   26.3250  H     
24   H         1.2825  -32.4804   27.3782  H     
25   H        -4.3932  -33.1756   21.4555  H     
26   H        -3.5056  -33.9008   25.4729  H     
27   H        -4.7710  -32.7392   23.7977  H     
28   H        -3.2258  -34.3015   19.8036  H     
29   H        -2.0372  -35.4399   20.1074  H     
@<TRIPOS>BOND
     1    1    2 1
     2    1    3 2
     3    2    4 2
     4    2    7 1
     5    3    5 1
     6    3   19 1
     7    4    6 1
     8    5    6 2
     9    7    8 1
    10    7   17 2
    11    7   18 2
    12    8    9 2
    13    8   12 1
    14    9   10 1
    15    9   14 1
    16   10   11 2
    17   10   16 1
    18   11   13 1
    19   12   13 2
    20   14   15 3
    21   19   20 3
    22    1   21 1
    23    4   22 1
    24    5   23 1
    25    6   24 1
    26   11   25 1
    27   12   26 1
    28   13   27 1
    29   16   28 1
    30   16   29 1
@<TRIPOS>PROPERTY_DATA
  Total_Score	| 4.8509
  Crash		| -0.6807
  Polar		| 0.1727
  FragIndex	| 1
  FragRMSD	| 0.132

