@<TRIPOS>MOLECULE
BindingDB_1760
 30 31 0 0 0
SMALL
NO_CHARGES


@<TRIPOS>ATOM
1    C         0.1675  -34.1567   26.7258  C     
2    C        -0.1340  -35.0499   25.6695  C     
3    C         1.4473  -33.5663   26.8473  C     
4    C         0.8785  -35.3552   24.7337  C     
5    C         2.4243  -33.8523   25.8738  C     
6    C         2.1428  -34.7476   24.8258  C     
7    S        -1.7427  -35.7563   25.6532  S     
8    C        -2.3916  -35.0377   24.1744  C     
9    C        -2.1108  -35.3876   22.8139  C     
10   C        -2.7538  -34.6957   21.7497  C     
11   C        -3.7082  -33.7011   22.0297  C     
12   C        -3.3480  -34.0231   24.4089  C     
13   C        -4.0059  -33.3679   23.3574  C     
14   C        -1.2961  -36.3516   22.5017  C     
15   N        -0.5815  -37.2189   22.2449  N     
16   N        -2.5028  -34.9447   20.4484  N     
17   O        -1.3944  -37.2536   25.2510  O     
18   C         1.7468  -32.6872   28.0018  C     
19   H        -0.5407  -33.9409   27.4263  H     
20   H         0.7040  -36.0303   23.9962  H     
21   H         3.3575  -33.4365   25.9341  H     
22   H         2.8735  -34.9701   24.1426  H     
23   H        -4.1972  -33.2187   21.2721  H     
24   H        -3.5916  -33.7476   25.3669  H     
25   H        -4.7094  -32.6502   23.5494  H     
26   H        -2.9630  -34.4353   19.7653  H     
27   H        -1.8355  -35.5955   20.1870  H     
28   H         1.0597  -31.8399   28.0072  H     
29   H         2.7678  -32.2997   27.9684  H     
30   H         1.6295  -33.2466   28.9326  H     
@<TRIPOS>BOND
     1    1    2 1
     2    1    3 2
     3    2    4 2
     4    2    7 1
     5    3    5 1
     6    3   18 1
     7    4    6 1
     8    5    6 2
     9    7    8 1
    10    7   17 2
    11    8    9 2
    12    8   12 1
    13    9   10 1
    14    9   14 1
    15   10   11 2
    16   10   16 1
    17   11   13 1
    18   12   13 2
    19   14   15 3
    20    1   19 1
    21    4   20 1
    22    5   21 1
    23    6   22 1
    24   11   23 1
    25   12   24 1
    26   13   25 1
    27   16   26 1
    28   16   27 1
    29   18   28 1
    30   18   29 1
    31   18   30 1
@<TRIPOS>PROPERTY_DATA
  Total_Score	| 5.0484
  Crash		| -0.7944
  Polar		| 0.0569
  FragIndex	| 1
  FragRMSD	| 0.264

