@<TRIPOS>MOLECULE
BindingDB_1796
 29 30 0 0 0
SMALL
NO_CHARGES


@<TRIPOS>ATOM
1    C         0.2044  -33.8529   26.5359  C     
2    C         0.0200  -35.0111   25.7222  C     
3    C         1.4929  -33.2812   26.6599  C     
4    C         1.1403  -35.5575   25.0574  C     
5    C         2.5879  -33.8366   25.9764  C     
6    C         2.4130  -34.9779   25.1791  C     
7    S        -1.5365  -35.7765   25.4673  S     
8    C        -2.3919  -35.0062   24.1410  C     
9    C        -2.1444  -35.3029   22.7685  C     
10   C        -2.8810  -34.6277   21.7589  C     
11   C        -3.8505  -33.6676   22.1154  C     
12   C        -3.3618  -34.0304   24.4679  C     
13   C        -4.0870  -33.3678   23.4641  C     
14   C        -1.2525  -36.1957   22.4185  C     
15   N        -0.4749  -36.9824   22.1056  N     
16   N        -2.6936  -34.8592   20.4434  N     
17   O        -1.3464  -37.3307   25.1552  O     
18   O        -2.4014  -35.7594   26.7978  O     
19   C        -0.7751  -33.2715   27.1758  C     
20   N        -1.6349  -32.7587   27.7422  N     
21   H         1.6554  -32.4500   27.2386  H     
22   H         1.0408  -36.3863   24.4635  H     
23   H         3.5165  -33.4175   26.0612  H     
24   H         3.2070  -35.3854   24.6791  H     
25   H        -4.3881  -33.1807   21.3952  H     
26   H        -3.5541  -33.7875   25.4419  H     
27   H        -4.7876  -32.6668   23.7147  H     
28   H        -3.2121  -34.3712   19.7852  H     
29   H        -2.0292  -35.4984   20.1457  H     
@<TRIPOS>BOND
     1    1    2 1
     2    1    3 2
     3    1   19 1
     4    2    4 2
     5    2    7 1
     6    3    5 1
     7    4    6 1
     8    5    6 2
     9    7    8 1
    10    7   17 2
    11    7   18 2
    12    8    9 2
    13    8   12 1
    14    9   10 1
    15    9   14 1
    16   10   11 2
    17   10   16 1
    18   11   13 1
    19   12   13 2
    20   14   15 3
    21   19   20 3
    22    3   21 1
    23    4   22 1
    24    5   23 1
    25    6   24 1
    26   11   25 1
    27   12   26 1
    28   13   27 1
    29   16   28 1
    30   16   29 1
@<TRIPOS>PROPERTY_DATA
  Total_Score	| 4.7494
  Crash		| -0.7876
  Polar		| 0.1224
  FragIndex	| 1
  FragRMSD	| 0.152

