@<TRIPOS>MOLECULE
BindingDB_1781
 28 29 0 0 0
SMALL
NO_CHARGES


@<TRIPOS>ATOM
1    C         1.2309  -35.6471   25.3541  C     
2    C         0.0045  -35.0432   25.7167  C     
3    C         2.4489  -34.9828   25.5777  C     
4    C         0.0178  -33.7541   26.2930  C     
5    C         2.4561  -33.7066   26.1634  C     
6    C         1.2399  -33.0886   26.5166  C     
7    S        -1.5107  -35.8561   25.4238  S     
8    C        -2.3941  -35.0506   24.1404  C     
9    C        -2.1521  -35.3048   22.7580  C     
10   C        -2.9163  -34.6199   21.7769  C     
11   C        -3.8846  -33.6756   22.1731  C     
12   C        -3.3629  -34.0862   24.5085  C     
13   C        -4.1036  -33.4024   23.5320  C     
14   C        -1.2311  -36.1553   22.3736  C     
15   N        -0.4248  -36.9026   22.0402  N     
16   N        -2.7614  -34.8264   20.4514  N     
17   O        -1.2960  -37.3928   25.0684  O     
18   O        -2.3372  -35.8410   26.7813  O     
19   H         1.2603  -36.5792   24.9198  H     
20   H         3.3254  -35.4425   25.3272  H     
21   H        -0.8525  -33.2956   26.5410  H     
22   H         3.3477  -33.2382   26.3399  H     
23   H         1.2531  -32.1597   26.9418  H     
24   H        -4.4347  -33.1766   21.4693  H     
25   H        -3.5398  -33.8685   25.4917  H     
26   H        -4.8057  -32.7135   23.8078  H     
27   H        -3.3019  -34.3245   19.8279  H     
28   H        -2.0935  -35.4439   20.1190  H     
@<TRIPOS>BOND
     1    1    2 1
     2    1    3 2
     3    2    4 2
     4    2    7 1
     5    3    5 1
     6    4    6 1
     7    5    6 2
     8    7    8 1
     9    7   17 2
    10    7   18 2
    11    8    9 2
    12    8   12 1
    13    9   10 1
    14    9   14 1
    15   10   11 2
    16   10   16 1
    17   11   13 1
    18   12   13 2
    19   14   15 3
    20    1   19 1
    21    3   20 1
    22    4   21 1
    23    5   22 1
    24    6   23 1
    25   11   24 1
    26   12   25 1
    27   13   26 1
    28   16   27 1
    29   16   28 1
@<TRIPOS>PROPERTY_DATA
  Total_Score	| 4.1789
  Crash		| -0.6572
  Polar		| 0.1815
  FragIndex	| 1
  FragRMSD	| 0.257

