@<TRIPOS>MOLECULE
BindingDB_1787
 31 32 0 0 0
SMALL
NO_CHARGES


@<TRIPOS>ATOM
1    C        -0.2063  -33.5240   26.3500  C     
2    C        -0.1184  -34.7573   25.6743  C     
3    C         0.9451  -32.7502   26.5854  C     
4    C         1.1451  -35.1936   25.2194  C     
5    C         2.2101  -33.1868   26.1381  C     
6    C         2.2964  -34.4181   25.4511  C     
7    S        -1.5525  -35.7036   25.3828  S     
8    C        -2.4696  -34.9976   24.0627  C     
9    C        -2.2265  -35.2904   22.6891  C     
10   C        -3.0148  -34.6679   21.6835  C     
11   C        -4.0203  -33.7529   22.0506  C     
12   C        -3.4845  -34.0692   24.3969  C     
13   C        -4.2595  -33.4552   23.3992  C     
14   C        -1.2897  -36.1282   22.3265  C     
15   N        -0.4754  -36.8678   22.0001  N     
16   N        -2.8508  -34.8974   20.3628  N     
17   O        -1.1315  -37.2080   25.0856  O     
18   O        -2.4437  -35.7671   26.7002  O     
19   C         3.4048  -32.3546   26.3950  C     
20   H        -1.1114  -33.1688   26.6644  H     
21   H         0.8541  -31.8590   27.0790  H     
22   H         1.2463  -36.0749   24.7145  H     
23   H         3.1991  -34.7604   25.1134  H     
24   H        -4.5835  -33.2941   21.3326  H     
25   H        -3.6770  -33.8308   25.3738  H     
26   H        -5.0036  -32.8000   23.6562  H     
27   H        -3.4123  -34.4298   19.7252  H     
28   H        -2.1499  -35.4869   20.0370  H     
29   H         3.3031  -31.3769   25.9214  H     
30   H         4.3053  -32.8404   26.0193  H     
31   H         3.5195  -32.2009   27.4664  H     
@<TRIPOS>BOND
     1    1    2 1
     2    1    3 2
     3    2    4 2
     4    2    7 1
     5    3    5 1
     6    4    6 1
     7    5    6 2
     8    5   19 1
     9    7    8 1
    10    7   17 2
    11    7   18 2
    12    8    9 2
    13    8   12 1
    14    9   10 1
    15    9   14 1
    16   10   11 2
    17   10   16 1
    18   11   13 1
    19   12   13 2
    20   14   15 3
    21    1   20 1
    22    3   21 1
    23    4   22 1
    24    6   23 1
    25   11   24 1
    26   12   25 1
    27   13   26 1
    28   16   27 1
    29   16   28 1
    30   19   29 1
    31   19   30 1
    32   19   31 1
@<TRIPOS>PROPERTY_DATA
  Total_Score	| 5.6449
  Crash		| -0.9347
  Polar		| 0.2087
  FragIndex	| 1
  FragRMSD	| 0.460

