@<TRIPOS>MOLECULE
BindingDB_1799
 31 32 0 0 0
SMALL
NO_CHARGES


@<TRIPOS>ATOM
1    C         0.6139  -34.3117   26.1105  C     
2    C         0.1796  -35.4750   25.4341  C     
3    C         1.9811  -33.9274   26.1157  C     
4    C         1.1381  -36.2790   24.7713  C     
5    C         2.9175  -34.7541   25.4381  C     
6    C         2.4946  -35.9185   24.7725  C     
7    S        -1.5148  -35.9019   25.3779  S     
8    C        -2.3511  -35.0460   24.0907  C     
9    C        -2.1314  -35.3044   22.7060  C     
10   C        -2.8874  -34.5972   21.7308  C     
11   C        -3.8309  -33.6334   22.1325  C     
12   C        -3.2991  -34.0661   24.4647  C     
13   C        -4.0344  -33.3650   23.4947  C     
14   C        -1.2395  -36.1712   22.3014  C     
15   N        -0.4604  -36.9247   21.9281  N     
16   N        -2.7537  -34.8033   20.4038  N     
17   O        -1.6521  -37.4683   25.1358  O     
18   O        -2.1739  -35.6238   26.7981  O     
19   C         2.4037  -32.6850   26.8271  C     
20   F         3.7399  -32.3751   26.7118  F     
21   F         1.7069  -31.5985   26.3491  F     
22   F         2.1309  -32.8091   28.1711  F     
23   H        -0.0795  -33.7242   26.5916  H     
24   H         0.8610  -37.1305   24.2742  H     
25   H         3.9132  -34.5220   25.4253  H     
26   H         3.1741  -36.5100   24.2856  H     
27   H        -4.3743  -33.1191   21.4360  H     
28   H        -3.4797  -33.8543   25.4492  H     
29   H        -4.7245  -32.6628   23.7770  H     
30   H        -3.2947  -34.2917   19.7816  H     
31   H        -2.1192  -35.4543   20.0630  H     
@<TRIPOS>BOND
     1    1    2 1
     2    1    3 2
     3    2    4 2
     4    2    7 1
     5    3    5 1
     6    3   19 1
     7    4    6 1
     8    5    6 2
     9    7    8 1
    10    7   17 2
    11    7   18 2
    12    8    9 2
    13    8   12 1
    14    9   10 1
    15    9   14 1
    16   10   11 2
    17   10   16 1
    18   11   13 1
    19   12   13 2
    20   14   15 3
    21   19   20 1
    22   19   21 1
    23   19   22 1
    24    1   23 1
    25    4   24 1
    26    5   25 1
    27    6   26 1
    28   11   27 1
    29   12   28 1
    30   13   29 1
    31   16   30 1
    32   16   31 1
@<TRIPOS>PROPERTY_DATA
  Total_Score	| 6.0271
  Crash		| -0.8016
  Polar		| 0.1971
  FragIndex	| 1
  FragRMSD	| 1.495

