@<TRIPOS>MOLECULE
BindingDB_1759
 30 31 0 0 0
SMALL
NO_CHARGES


@<TRIPOS>ATOM
1    C         1.0475  -35.5171   25.6595  C     
2    C        -0.2445  -34.9595   25.9170  C     
3    C         2.1947  -34.7177   25.9076  C     
4    C        -0.3229  -33.6605   26.4788  C     
5    C         2.0907  -33.4158   26.4337  C     
6    C         0.8239  -32.8908   26.7179  C     
7    S        -1.8126  -35.7570   25.7959  S     
8    C        -2.4245  -35.0164   24.3174  C     
9    C        -2.1169  -35.3877   22.9692  C     
10   C        -2.7445  -34.7121   21.8881  C     
11   C        -3.6536  -33.6659   22.1432  C     
12   C        -3.3359  -33.9512   24.5320  C     
13   C        -3.9393  -33.2797   23.4601  C     
14   C        -1.3011  -36.3656   22.6788  C     
15   N        -0.6091  -37.2412   22.3863  N     
16   N        -2.5268  -35.0217   20.5892  N     
17   O        -1.4887  -37.2112   25.2354  O     
18   C         1.2573  -36.9172   25.2079  C     
19   H         3.1361  -35.0831   25.7439  H     
20   H        -1.2264  -33.2605   26.7478  H     
21   H         2.9323  -32.8632   26.6256  H     
22   H         0.7334  -31.9519   27.1223  H     
23   H        -4.1114  -33.1776   21.3731  H     
24   H        -3.5801  -33.6602   25.4811  H     
25   H        -4.6039  -32.5232   23.6346  H     
26   H        -2.9847  -34.5301   19.8902  H     
27   H        -1.9146  -35.7339   20.3484  H     
28   H         0.8528  -37.6146   25.9391  H     
29   H         2.3183  -37.1511   25.0763  H     
30   H         0.7766  -37.0886   24.2485  H     
@<TRIPOS>BOND
     1    1    2 1
     2    1    3 2
     3    1   18 1
     4    2    4 2
     5    2    7 1
     6    3    5 1
     7    4    6 1
     8    5    6 2
     9    7    8 1
    10    7   17 2
    11    8    9 2
    12    8   12 1
    13    9   10 1
    14    9   14 1
    15   10   11 2
    16   10   16 1
    17   11   13 1
    18   12   13 2
    19   14   15 3
    20    3   19 1
    21    4   20 1
    22    5   21 1
    23    6   22 1
    24   11   23 1
    25   12   24 1
    26   13   25 1
    27   16   26 1
    28   16   27 1
    29   18   28 1
    30   18   29 1
    31   18   30 1
@<TRIPOS>PROPERTY_DATA
  Total_Score	| 4.6391
  Crash		| -1.0585
  Polar		| 0.0256
  FragIndex	| 1
  FragRMSD	| 0.828

