@<TRIPOS>MOLECULE
BindingDB_1798
 29 30 0 0 0
SMALL
NO_CHARGES


@<TRIPOS>ATOM
1    C         1.1977  -35.5416   25.3204  C     
2    C        -0.0619  -35.0595   25.7363  C     
3    C         2.3644  -34.7870   25.5500  C     
4    C        -0.1380  -33.8128   26.3931  C     
5    C         2.2710  -33.5367   26.1950  C     
6    C         1.0182  -33.0530   26.6186  C     
7    S        -1.5329  -35.9390   25.4210  S     
8    C        -2.4274  -35.1263   24.1446  C     
9    C        -2.2102  -35.3590   22.7549  C     
10   C        -2.9980  -34.6742   21.7926  C     
11   C        -3.9688  -33.7439   22.2133  C     
12   C        -3.3850  -34.1624   24.5322  C     
13   C        -4.1500  -33.4748   23.5773  C     
14   C        -1.2922  -36.2011   22.3542  C     
15   N        -0.4885  -36.9444   22.0035  N     
16   N        -2.8628  -34.8564   20.4605  N     
17   O        -1.2318  -37.4676   25.0946  O     
18   O        -2.3916  -35.9409   26.7607  O     
19   C         3.3328  -32.8078   26.3959  C     
20   N         4.2551  -32.1480   26.5712  N     
21   H         1.2839  -36.4377   24.8431  H     
22   H         3.2732  -35.1583   25.2440  H     
23   H        -1.0384  -33.4486   26.7007  H     
24   H         0.9351  -32.1462   27.0919  H     
25   H        -4.5401  -33.2474   21.5320  H     
26   H        -3.5387  -33.9428   25.5201  H     
27   H        -4.8509  -32.7920   23.8762  H     
28   H        -3.4351  -34.3684   19.8501  H     
29   H        -2.1993  -35.4724   20.1077  H     
@<TRIPOS>BOND
     1    1    2 1
     2    1    3 2
     3    2    4 2
     4    2    7 1
     5    3    5 1
     6    4    6 1
     7    5    6 2
     8    5   19 1
     9    7    8 1
    10    7   17 2
    11    7   18 2
    12    8    9 2
    13    8   12 1
    14    9   10 1
    15    9   14 1
    16   10   11 2
    17   10   16 1
    18   11   13 1
    19   12   13 2
    20   14   15 3
    21   19   20 3
    22    1   21 1
    23    3   22 1
    24    4   23 1
    25    6   24 1
    26   11   25 1
    27   12   26 1
    28   13   27 1
    29   16   28 1
    30   16   29 1
@<TRIPOS>PROPERTY_DATA
  Total_Score	| 4.5876
  Crash		| -1.1460
  Polar		| 0.2127
  FragIndex	| 1
  FragRMSD	| 0.296

