@<TRIPOS>MOLECULE
BindingDB_1766
 28 29 0 0 0
SMALL
NO_CHARGES


@<TRIPOS>ATOM
1    C         1.0467  -35.4492   24.9957  C     
2    C        -0.0803  -35.0179   25.7347  C     
3    C         2.2565  -34.7204   25.0330  C     
4    C         0.0479  -33.8823   26.5638  C     
5    C         2.3580  -33.5783   25.8573  C     
6    C         1.2579  -33.1698   26.6312  C     
7    S        -1.6319  -35.8254   25.7095  S     
8    C        -2.3244  -35.0933   24.2612  C     
9    C        -2.0402  -35.4061   22.8979  C     
10   C        -2.6933  -34.6968   21.8531  C     
11   C        -3.6384  -33.6982   22.1633  C     
12   C        -3.2786  -34.0867   24.5365  C     
13   C        -3.9331  -33.3992   23.5007  C     
14   C        -1.1990  -36.3471   22.5591  C     
15   N        -0.4699  -37.1692   22.2248  N     
16   N        -2.4566  -34.9290   20.5443  N     
17   O        -1.2410  -37.2649   25.1571  O     
18   C         3.2694  -35.0857   24.2980  C     
19   N         4.1536  -35.4053   23.6384  N     
20   H         0.9865  -36.2892   24.4163  H     
21   H        -0.7418  -33.5616   27.1252  H     
22   H         3.2223  -33.0298   25.9070  H     
23   H         1.3316  -32.3502   27.2421  H     
24   H        -4.1254  -33.1927   21.4174  H     
25   H        -3.5214  -33.8379   25.4980  H     
26   H        -4.6284  -32.6789   23.7168  H     
27   H        -2.9272  -34.4205   19.8635  H     
28   H        -1.8124  -35.6057   20.2757  H     
@<TRIPOS>BOND
     1    1    2 1
     2    1    3 2
     3    2    4 2
     4    2    7 1
     5    3    5 1
     6    3   18 1
     7    4    6 1
     8    5    6 2
     9    7    8 1
    10    7   17 2
    11    8    9 2
    12    8   12 1
    13    9   10 1
    14    9   14 1
    15   10   11 2
    16   10   16 1
    17   11   13 1
    18   12   13 2
    19   14   15 3
    20   18   19 3
    21    1   20 1
    22    4   21 1
    23    5   22 1
    24    6   23 1
    25   11   24 1
    26   12   25 1
    27   13   26 1
    28   16   27 1
    29   16   28 1
@<TRIPOS>PROPERTY_DATA
  Total_Score	| 4.0655
  Crash		| -0.6159
  Polar		| 0.0455
  FragIndex	| 1
  FragRMSD	| 0.264

