@<TRIPOS>MOLECULE
BindingDB_1765
 28 29 0 0 0
SMALL
NO_CHARGES


@<TRIPOS>ATOM
1    C        -0.0741  -33.6813   26.6614  C     
2    C        -0.1336  -34.8885   25.9067  C     
3    C         1.1622  -33.0261   26.8758  C     
4    C         1.0918  -35.4334   25.4493  C     
5    C         2.3530  -33.5723   26.3808  C     
6    C         2.3171  -34.7819   25.6746  C     
7    S        -1.6555  -35.7595   25.6904  S     
8    C        -2.3420  -35.0113   24.2498  C     
9    C        -2.0781  -35.3399   22.8832  C     
10   C        -2.7715  -34.6600   21.8425  C     
11   C        -3.7147  -33.6626   22.1587  C     
12   C        -3.3011  -34.0062   24.5275  C     
13   C        -3.9815  -33.3380   23.4963  C     
14   C        -1.2316  -36.2779   22.5455  C     
15   N        -0.4994  -37.1019   22.2214  N     
16   N        -2.5866  -34.9286   20.5320  N     
17   O        -1.1995  -37.1511   25.0637  O     
18   C        -1.1129  -33.1446   27.2433  C     
19   N        -2.0013  -32.6589   27.7847  N     
20   H         1.2196  -32.1547   27.4155  H     
21   H         1.1202  -36.3268   24.9555  H     
22   H         3.2449  -33.0993   26.5468  H     
23   H         3.1846  -35.1915   25.3224  H     
24   H        -4.2168  -33.1674   21.4164  H     
25   H        -3.5246  -33.7468   25.4929  H     
26   H        -4.6692  -32.6135   23.7188  H     
27   H        -3.0920  -34.4419   19.8614  H     
28   H        -1.9519  -35.6075   20.2530  H     
@<TRIPOS>BOND
     1    1    2 1
     2    1    3 2
     3    1   18 1
     4    2    4 2
     5    2    7 1
     6    3    5 1
     7    4    6 1
     8    5    6 2
     9    7    8 1
    10    7   17 2
    11    8    9 2
    12    8   12 1
    13    9   10 1
    14    9   14 1
    15   10   11 2
    16   10   16 1
    17   11   13 1
    18   12   13 2
    19   14   15 3
    20   18   19 3
    21    3   20 1
    22    4   21 1
    23    5   22 1
    24    6   23 1
    25   11   24 1
    26   12   25 1
    27   13   26 1
    28   16   27 1
    29   16   28 1
@<TRIPOS>PROPERTY_DATA
  Total_Score	| 4.3388
  Crash		| -0.9469
  Polar		| 0.0627
  FragIndex	| 1
  FragRMSD	| 0.588

