@<TRIPOS>MOLECULE
BindingDB_16244
 30 32 0 0 0
SMALL
NO_CHARGES


@<TRIPOS>ATOM
1    C       -22.2111    6.0811  -12.0616  C     
2    C       -22.8645    5.3018  -11.1642  C     
3    C       -23.0335    5.6815   -9.8705  C     
4    C       -22.5973    6.8753   -9.4381  C     
5    C       -21.6079    7.3098  -11.6450  C     
6    C       -21.8839    7.7220  -10.2937  C     
7    C       -21.4124    8.9572   -9.7933  C     
8    C       -20.6265    9.7918  -10.5945  C     
9    C       -20.3036    9.3660  -11.8868  C     
10   C       -20.7526    8.1533  -12.4349  C     
11   C       -20.2019    8.0201  -13.7131  C     
12   S       -19.2153   10.1849  -12.9295  S     
13   O       -17.7898   10.1048  -12.2286  O     
14   O       -19.7815   11.6180  -13.3172  O     
15   N       -19.4441    9.0321  -14.1310  N     
16   C       -18.9175    9.2373  -15.4586  C     
17   C       -17.4855    8.9027  -15.5559  C     
18   O       -16.6735    8.9949  -14.4801  O     
19   O       -16.9131    8.6998  -16.7614  O     
20   N       -22.3196    5.7270  -13.3020  N     
21   O       -23.0191    6.3221  -14.0219  O     
22   O       -21.7271    4.6948  -13.7482  O     
23   O       -20.3060    7.0232  -14.4095  O     
24   H       -23.3003    4.4535  -11.4555  H     
25   H       -23.5225    5.0829   -9.2441  H     
26   H       -22.7631    7.1311   -8.4905  H     
27   H       -21.6162    9.2499   -8.8336  H     
28   H       -20.2632   10.6742  -10.2271  H     
29   H       -19.4684    8.6406  -16.1918  H     
30   H       -19.0552   10.2825  -15.7494  H     
@<TRIPOS>BOND
     1    1    2 2
     2    1    5 1
     3    1   20 am
     4    2    3 1
     5    3    4 2
     6    4    6 1
     7    5    6 1
     8    5   10 2
     9    6    7 2
    10    7    8 1
    11    8    9 2
    12    9   10 1
    13    9   12 1
    14   10   11 1
    15   11   15 1
    16   11   23 2
    17   12   13 2
    18   12   14 2
    19   12   15 1
    20   15   16 1
    21   16   17 1
    22   17   18 2
    23   17   19 1
    24   20   21 2
    25   20   22 1
    26    2   24 1
    27    3   25 1
    28    4   26 1
    29    7   27 1
    30    8   28 1
    31   16   29 1
    32   16   30 1
@<TRIPOS>PROPERTY_DATA
  Total_Score	| 6.0669
  Crash		| -0.6559
  Polar		| 5.3855
  FragIndex	| 1
  FragRMSD	| 0.151

