@<TRIPOS>MOLECULE
BindingDB_16245
 30 32 0 0 0
SMALL
NO_CHARGES


@<TRIPOS>ATOM
1    C       -22.0078    5.9589  -11.9883  C     
2    C       -22.7616    5.1912  -11.1791  C     
3    C       -23.1747    5.6405   -9.9622  C     
4    C       -22.8286    6.8647   -9.5017  C     
5    C       -21.5960    7.2455  -11.5976  C     
6    C       -22.0023    7.7002  -10.2963  C     
7    C       -21.5551    8.9647   -9.8316  C     
8    C       -20.7245    9.7741  -10.6208  C     
9    C       -20.3575    9.3207  -11.8925  C     
10   C       -20.7853    8.0924  -12.4116  C     
11   C       -20.3057    7.9389  -13.7090  C     
12   S       -19.2983   10.1215  -12.9799  S     
13   O       -17.8127   10.0477  -12.4174  O     
14   O       -19.8549   11.5267  -13.4713  O     
15   N       -19.5522    8.9429  -14.1522  N     
16   C       -18.9961    9.0851  -15.4698  C     
17   C       -17.5849    8.6765  -15.5007  C     
18   O       -16.8270    8.8255  -14.3911  O     
19   O       -16.9422    8.6973  -16.6861  O     
20   O       -20.5937    6.9963  -14.4340  O     
21   N       -23.2941    7.2466   -8.3507  N     
22   O       -24.2463    7.9198   -8.2890  O     
23   O       -22.7693    6.8355   -7.2710  O     
24   H       -21.7293    5.5727  -12.8560  H     
25   H       -23.0245    4.2783  -11.4756  H     
26   H       -23.7568    5.0461   -9.4139  H     
27   H       -21.8153    9.3059   -8.9035  H     
28   H       -20.3902   10.6750  -10.2715  H     
29   H       -19.5777    8.4887  -16.1792  H     
30   H       -19.0451   10.1231  -15.8114  H     
@<TRIPOS>BOND
     1    1    2 2
     2    1    5 1
     3    2    3 1
     4    3    4 2
     5    4    6 1
     6    4   21 am
     7    5    6 1
     8    5   10 2
     9    6    7 2
    10    7    8 1
    11    8    9 2
    12    9   10 1
    13    9   12 1
    14   10   11 1
    15   11   15 1
    16   11   20 2
    17   12   13 2
    18   12   14 2
    19   12   15 1
    20   15   16 1
    21   16   17 1
    22   17   18 2
    23   17   19 1
    24   21   22 2
    25   21   23 1
    26    1   24 1
    27    2   25 1
    28    3   26 1
    29    7   27 1
    30    8   28 1
    31   16   29 1
    32   16   30 1
@<TRIPOS>PROPERTY_DATA
  Total_Score	| 6.0417
  Crash		| -0.5203
  Polar		| 4.8104
  FragIndex	| 1
  FragRMSD	| 0.108

