@<TRIPOS>MOLECULE
BindingDB_16248
 28 30 0 0 0
SMALL
NO_CHARGES


@<TRIPOS>ATOM
1    C       -22.0574    5.9880  -12.1769  C     
2    C       -22.8422    5.2252  -11.3857  C     
3    C       -23.1895    5.6358  -10.1336  C     
4    C       -22.7555    6.8157   -9.6488  C     
5    C       -21.5647    7.2370  -11.7419  C     
6    C       -21.9309    7.6461  -10.4218  C     
7    C       -21.4561    8.8663   -9.8963  C     
8    C       -20.5969    9.7087  -10.6333  C     
9    C       -20.2449    9.2866  -11.9434  C     
10   C       -20.7121    8.0840  -12.5096  C     
11   C       -20.2000    7.9047  -13.7908  C     
12   S       -19.1336   10.0376  -13.0430  S     
13   O       -17.6743    9.9551  -12.4147  O     
14   O       -19.6775   11.4429  -13.5478  O     
15   N       -19.3678    8.8508  -14.1999  N     
16   C       -18.7017    8.8892  -15.4702  C     
17   O       -20.4873    6.9666  -14.5232  O     
18   C       -20.1216   10.9128  -10.0318  C     
19   O       -20.2566   11.1504   -8.7027  O     
20   O       -19.5322   11.9115  -10.7353  O     
21   H       -21.8376    5.6340  -13.0753  H     
22   H       -23.1770    4.3507  -11.7171  H     
23   H       -23.7733    5.0599   -9.5741  H     
24   H       -23.0268    7.0831   -8.7291  H     
25   H       -21.7397    9.1372   -8.9496  H     
26   H       -18.0355    8.0282  -15.5633  H     
27   H       -18.1047    9.7951  -15.5931  H     
28   H       -19.4363    8.8589  -16.2790  H     
@<TRIPOS>BOND
     1    1    2 2
     2    1    5 1
     3    2    3 1
     4    3    4 2
     5    4    6 1
     6    5    6 1
     7    5   10 2
     8    6    7 2
     9    7    8 1
    10    8    9 2
    11    8   18 1
    12    9   10 1
    13    9   12 1
    14   10   11 1
    15   11   15 1
    16   11   17 2
    17   12   13 2
    18   12   14 2
    19   12   15 1
    20   15   16 1
    21   18   19 2
    22   18   20 1
    23    1   21 1
    24    2   22 1
    25    3   23 1
    26    4   24 1
    27    7   25 1
    28   16   26 1
    29   16   27 1
    30   16   28 1
@<TRIPOS>PROPERTY_DATA
  Total_Score	| 2.8535
  Crash		| -0.1303
  Polar		| 0.8913
  FragIndex	| 1
  FragRMSD	| 0.648

