@<TRIPOS>MOLECULE
BindingDB_16246
 30 32 0 0 0
SMALL
NO_CHARGES


@<TRIPOS>ATOM
1    C       -22.1342    5.9481  -11.9024  C     
2    C       -23.0379    5.3139  -11.1131  C     
3    C       -23.4822    5.8610   -9.9492  C     
4    C       -23.0258    7.0504   -9.5252  C     
5    C       -21.6682    7.2454  -11.5647  C     
6    C       -22.1080    7.7792  -10.3038  C     
7    C       -21.6538    9.0329   -9.8220  C     
8    C       -20.7477    9.7852  -10.5771  C     
9    C       -20.3348    9.2791  -11.8136  C     
10   C       -20.7894    8.0606  -12.3505  C     
11   C       -20.2912    7.9421  -13.6469  C     
12   S       -19.1626   10.0337  -12.8320  S     
13   O       -17.7751    9.8516  -12.0926  O     
14   O       -19.6329   11.5033  -13.2201  O     
15   N       -19.4535    8.9020  -14.0382  N     
16   C       -18.9695    9.1215  -15.3814  C     
17   C       -17.5283    8.8221  -15.5483  C     
18   O       -16.6797    8.9578  -14.4978  O     
19   O       -16.9884    8.7220  -16.7869  O     
20   O       -20.7054    7.1064  -14.4384  O     
21   N       -21.6560    5.2447  -12.8701  N     
22   H       -23.3456    4.3926  -11.3373  H     
23   H       -24.1283    5.3605   -9.3898  H     
24   H       -23.3553    7.4083   -8.6564  H     
25   H       -21.9796    9.4023   -8.9285  H     
26   H       -20.4137   10.6846  -10.2302  H     
27   H       -19.5123    8.4972  -16.1157  H     
28   H       -19.1535   10.1643  -15.6796  H     
29   H       -20.7918    5.4329  -13.1790  H     
30   H       -22.0561    4.4312  -13.1094  H     
@<TRIPOS>BOND
     1    1    2 2
     2    1    5 1
     3    1   21 1
     4    2    3 1
     5    3    4 2
     6    4    6 1
     7    5    6 1
     8    5   10 2
     9    6    7 2
    10    7    8 1
    11    8    9 2
    12    9   10 1
    13    9   12 1
    14   10   11 1
    15   11   15 1
    16   11   20 2
    17   12   13 2
    18   12   14 2
    19   12   15 1
    20   15   16 1
    21   16   17 1
    22   17   18 2
    23   17   19 1
    24    2   22 1
    25    3   23 1
    26    4   24 1
    27    7   25 1
    28    8   26 1
    29   16   27 1
    30   16   28 1
    31   21   29 1
    32   21   30 1
@<TRIPOS>PROPERTY_DATA
  Total_Score	| 5.8187
  Crash		| -0.5537
  Polar		| 4.8495
  FragIndex	| 1
  FragRMSD	| 0.221

