@<TRIPOS>MOLECULE
BindingDB_16247
 30 32 0 0 0
SMALL
NO_CHARGES


@<TRIPOS>ATOM
1    C       -22.0196    5.9563  -12.0483  C     
2    C       -22.7200    5.1538  -11.2245  C     
3    C       -23.0027    5.5312   -9.9475  C     
4    C       -22.6198    6.7323   -9.4632  C     
5    C       -21.5651    7.2208  -11.6288  C     
6    C       -21.8951    7.6253  -10.2886  C     
7    C       -21.4559    8.8911   -9.8194  C     
8    C       -20.6878    9.7380  -10.6308  C     
9    C       -20.3587    9.3157  -11.9240  C     
10   C       -20.7876    8.0910  -12.4529  C     
11   C       -20.3347    7.9611  -13.7627  C     
12   S       -19.3224   10.1360  -13.0201  S     
13   O       -17.8288   10.0809  -12.4724  O     
14   O       -19.9054   11.5384  -13.4961  O     
15   N       -19.5808    8.9668  -14.1996  N     
16   C       -19.0059    9.1090  -15.5104  C     
17   C       -17.5891    8.7205  -15.5216  C     
18   O       -16.9274    8.6923  -16.6961  O     
19   O       -16.8430    8.8414  -14.3985  O     
20   O       -20.6038    7.0129  -14.4882  O     
21   N       -22.8943    6.9907   -8.2267  N     
22   H       -21.8320    5.6195  -12.9594  H     
23   H       -23.0183    4.2582  -11.5412  H     
24   H       -23.4996    4.8895   -9.3674  H     
25   H       -21.6748    9.2063   -8.8714  H     
26   H       -20.3648   10.6400  -10.2778  H     
27   H       -19.5664    8.4990  -16.2237  H     
28   H       -19.0647   10.1436  -15.8601  H     
29   H       -22.5642    7.7632   -7.8158  H     
30   H       -23.3732    6.3701   -7.7150  H     
@<TRIPOS>BOND
     1    1    2 2
     2    1    5 1
     3    2    3 1
     4    3    4 2
     5    4    6 1
     6    4   21 1
     7    5    6 1
     8    5   10 2
     9    6    7 2
    10    7    8 1
    11    8    9 2
    12    9   10 1
    13    9   12 1
    14   10   11 1
    15   11   15 1
    16   11   20 2
    17   12   13 2
    18   12   14 2
    19   12   15 1
    20   15   16 1
    21   16   17 1
    22   17   18 2
    23   17   19 1
    24    1   22 1
    25    2   23 1
    26    3   24 1
    27    7   25 1
    28    8   26 1
    29   16   27 1
    30   16   28 1
    31   21   29 1
    32   21   30 1
@<TRIPOS>PROPERTY_DATA
  Total_Score	| 6.4589
  Crash		| -0.5788
  Polar		| 4.6836
  FragIndex	| 1
  FragRMSD	| 0.739

