@<TRIPOS>MOLECULE
BindingDB_16242
 36 38 0 0 0
SMALL
NO_CHARGES


@<TRIPOS>ATOM
1    C       -21.8072    6.0279  -11.8911  C     
2    C       -22.5235    5.2303  -11.0733  C     
3    C       -22.9648    5.6752   -9.8625  C     
4    C       -22.6954    6.9261   -9.4432  C     
5    C       -21.4839    7.3510  -11.5242  C     
6    C       -21.9513    7.8004  -10.2489  C     
7    C       -21.6519    9.1047   -9.7988  C     
8    C       -20.8527    9.9850  -10.5615  C     
9    C       -20.3814    9.5155  -11.8099  C     
10   C       -20.7129    8.2469  -12.3210  C     
11   C       -20.2099    8.0862  -13.6100  C     
12   S       -19.3642   10.3378  -12.9339  S     
13   O       -17.8763   10.3689  -12.3730  O     
14   O       -19.9873   11.6981  -13.4692  O     
15   N       -19.5223    9.1205  -14.0808  N     
16   O       -20.4260    7.1074  -14.3114  O     
17   C       -18.9519    9.2511  -15.3954  C     
18   C       -17.5851    8.7106  -15.4517  C     
19   O       -16.9647    8.6843  -16.6493  O     
20   O       -16.7814    8.8787  -14.3794  O     
21   C       -20.5702   11.2771  -10.0515  C     
22   O       -19.3582   11.8478  -10.2404  O     
23   O       -21.5293   11.9110   -9.3215  O     
24   C       -21.6313   13.1485   -8.6018  C     
25   C       -20.3856   13.7196   -8.0642  C     
26   O       -19.9974   13.4594   -6.7964  O     
27   O       -19.7100   14.6607   -8.7576  O     
28   H       -21.4949    5.6413  -12.7465  H     
29   H       -22.7259    4.2967  -11.3512  H     
30   H       -23.4880    5.0636   -9.2784  H     
31   H       -23.0245    7.2169   -8.5506  H     
32   H       -21.9963    9.4035   -8.8808  H     
33   H       -19.5844    8.7340  -16.1226  H     
34   H       -18.9071   10.3000  -15.7012  H     
35   H       -22.0906   13.8839   -9.2641  H     
36   H       -22.3228   12.9735   -7.7757  H     
@<TRIPOS>BOND
     1    1    2 2
     2    1    5 1
     3    2    3 1
     4    3    4 2
     5    4    6 1
     6    5    6 1
     7    5   10 2
     8    6    7 2
     9    7    8 1
    10    8    9 2
    11    8   21 1
    12    9   10 1
    13    9   12 1
    14   10   11 1
    15   11   15 1
    16   11   16 2
    17   12   13 2
    18   12   14 2
    19   12   15 1
    20   15   17 1
    21   17   18 1
    22   18   19 2
    23   18   20 1
    24   21   22 2
    25   21   23 1
    26   23   24 1
    27   24   25 1
    28   25   26 2
    29   25   27 1
    30    1   28 1
    31    2   29 1
    32    3   30 1
    33    4   31 1
    34    7   32 1
    35   17   33 1
    36   17   34 1
    37   24   35 1
    38   24   36 1
@<TRIPOS>PROPERTY_DATA
  Total_Score	| 9.4746
  Crash		| -0.6272
  Polar		| 7.5358
  FragIndex	| 1
  FragRMSD	| 0.884

