@<TRIPOS>MOLECULE
BindingDB_16240
 30 32 0 0 0
SMALL
NO_CHARGES


@<TRIPOS>ATOM
1    C       -22.0967    5.9863  -12.0927  C     
2    C       -22.8070    5.1839  -11.2731  C     
3    C       -23.0788    5.5535   -9.9871  C     
4    C       -22.6556    6.7365   -9.5032  C     
5    C       -21.6063    7.2292  -11.6548  C     
6    C       -21.9092    7.6084  -10.3095  C     
7    C       -21.4403    8.8372   -9.7913  C     
8    C       -20.6557    9.7243  -10.5639  C     
9    C       -20.3599    9.3277  -11.8906  C     
10   C       -20.8082    8.1132  -12.4421  C     
11   C       -20.3414    7.9638  -13.7491  C     
12   S       -19.3128   10.1199  -13.0101  S     
13   O       -17.8322   10.0728  -12.4244  O     
14   O       -19.8800   11.5162  -13.5138  O     
15   N       -19.5723    8.9540  -14.1887  N     
16   O       -20.5962    7.0044  -14.4680  O     
17   C       -18.9962    9.0851  -15.4980  C     
18   C       -17.5830    8.6521  -15.5289  C     
19   O       -16.9342    8.7357  -16.7141  O     
20   O       -16.8215    8.8295  -14.4248  O     
21   C       -20.1750   10.9243   -9.9602  C     
22   O       -20.2323   11.1045   -8.6147  O     
23   O       -19.6749   11.9672  -10.6662  O     
24   H       -21.9442    5.6669  -13.0185  H     
25   H       -23.1497    4.3118  -11.6124  H     
26   H       -23.5982    4.9417   -9.4053  H     
27   H       -22.8662    6.9733   -8.5580  H     
28   H       -21.6789    9.0744   -8.8217  H     
29   H       -19.5716    8.4933  -16.2183  H     
30   H       -19.0430   10.1234  -15.8452  H     
@<TRIPOS>BOND
     1    1    2 2
     2    1    5 1
     3    2    3 1
     4    3    4 2
     5    4    6 1
     6    5    6 1
     7    5   10 2
     8    6    7 2
     9    7    8 1
    10    8    9 2
    11    8   21 1
    12    9   10 1
    13    9   12 1
    14   10   11 1
    15   11   15 1
    16   11   16 2
    17   12   13 2
    18   12   14 2
    19   12   15 1
    20   15   17 1
    21   17   18 1
    22   18   19 2
    23   18   20 1
    24   21   22 2
    25   21   23 1
    26    1   24 1
    27    2   25 1
    28    3   26 1
    29    4   27 1
    30    7   28 1
    31   17   29 1
    32   17   30 1
@<TRIPOS>PROPERTY_DATA
  Total_Score	| 6.6005
  Crash		| -0.5195
  Polar		| 4.7789
  FragIndex	| 1
  FragRMSD	| 0.892

