@<TRIPOS>MOLECULE
BindingDB_16243
 28 30 0 0 0
SMALL
NO_CHARGES


@<TRIPOS>ATOM
1    C       -22.0009    5.9379  -12.0364  C     
2    C       -22.7089    5.1523  -11.2000  C     
3    C       -23.0312    5.5692   -9.9414  C     
4    C       -22.6497    6.7796   -9.4913  C     
5    C       -21.5619    7.2155  -11.6383  C     
6    C       -21.9067    7.6392  -10.3117  C     
7    C       -21.4765    8.8966   -9.8277  C     
8    C       -20.6890    9.7356  -10.6308  C     
9    C       -20.3525    9.3098  -11.9224  C     
10   C       -20.7802    8.0857  -12.4544  C     
11   C       -20.3161    7.9498  -13.7579  C     
12   S       -19.3134   10.1294  -13.0144  S     
13   O       -17.8253   10.0633  -12.4547  O     
14   O       -19.8836   11.5370  -13.4821  O     
15   N       -19.5683    8.9602  -14.1958  N     
16   O       -20.5875    7.0010  -14.4808  O     
17   C       -18.9999    9.1056  -15.5073  C     
18   C       -17.5868    8.7055  -15.5217  C     
19   O       -16.8380    8.8400  -14.4042  O     
20   O       -16.9335    8.6967  -16.7016  O     
21   H       -21.7870    5.5797  -12.9337  H     
22   H       -22.9976    4.2496  -11.5022  H     
23   H       -23.5521    4.9663   -9.3462  H     
24   H       -22.8930    7.0500   -8.5652  H     
25   H       -21.7133    9.2008   -8.8794  H     
26   H       -20.3537   10.6326  -10.2735  H     
27   H       -19.5698    8.5060  -16.2222  H     
28   H       -19.0503   10.1434  -15.8483  H     
@<TRIPOS>BOND
     1    1    2 2
     2    1    5 1
     3    2    3 1
     4    3    4 2
     5    4    6 1
     6    5    6 1
     7    5   10 2
     8    6    7 2
     9    7    8 1
    10    8    9 2
    11    9   10 1
    12    9   12 1
    13   10   11 1
    14   11   15 1
    15   11   16 2
    16   12   13 2
    17   12   14 2
    18   12   15 1
    19   15   17 1
    20   17   18 1
    21   18   19 2
    22   18   20 1
    23    1   21 1
    24    2   22 1
    25    3   23 1
    26    4   24 1
    27    7   25 1
    28    8   26 1
    29   17   27 1
    30   17   28 1
@<TRIPOS>PROPERTY_DATA
  Total_Score	| 6.1971
  Crash		| -0.5427
  Polar		| 4.7293
  FragIndex	| 1
  FragRMSD	| 0.106

