@<TRIPOS>MOLECULE
BindingDB_22426
 63 65 0 0 0
SMALL
NO_CHARGES


@<TRIPOS>ATOM
1    C        31.2153    6.3379   52.7947  C     
2    C        31.7868    5.4434   51.8656  C     
3    C        32.9820    4.7578   52.1591  C     
4    C        33.6225    4.9297   53.4063  C     
5    C        33.0459    5.8217   54.3428  C     
6    C        31.8621    6.5198   54.0353  C     
7    O        30.0122    6.9939   52.6262  O     
8    C        29.5958    7.3168   51.2790  C     
9    C        28.4998    8.4148   51.2765  C     
10   N        28.4464    9.2105   50.0055  N     
11   C        28.4717    8.3759   48.7628  C     
12   C        27.2945   10.1617   49.9723  C     
13   C        34.7460    4.1459   53.7173  C     
14   C        34.6621    3.0778   54.5767  C     
15   C        33.4212    2.6762   55.1218  C     
16   C        31.1592    1.7564   54.8115  C     
17   C        32.3876    2.2182   54.2851  C     
18   C        33.1880    2.6711   56.5297  C     
19   C        31.9622    2.2252   57.0573  C     
20   C        30.9522    1.7604   56.1994  C     
21   C        35.8353    2.2897   55.0259  C     
22   C        35.9204    4.5003   53.0293  C     
23   C        36.5519    3.5976   52.1412  C     
24   C        37.6960    3.9730   51.4075  C     
25   C        38.2223    5.2744   51.5299  C     
26   C        37.5948    6.1923   52.3920  C     
27   C        36.4568    5.8104   53.1318  C     
28   O        39.3350    5.6160   50.8242  O     
29   C        36.0348    0.8350   54.4585  C     
30   C        34.8860    0.2248   53.5929  C     
31   C        34.8787   -1.1464   53.5097  C     
32   N        34.8473   -2.2927   53.4252  N     
33   H        31.3296    5.2551   50.9769  H     
34   H        33.3512    4.1016   51.4643  H     
35   H        33.4809    5.9578   55.2577  H     
36   H        31.4554    7.1430   54.7330  H     
37   H        30.4548    7.6594   50.6854  H     
38   H        29.1836    6.4178   50.8166  H     
39   H        27.5321    7.9482   51.4787  H     
40   H        28.7212    9.0831   52.1092  H     
41   H        29.2901    9.7910   50.0054  H     
42   H        29.4516    7.9155   48.6405  H     
43   H        28.2918    8.9743   47.8625  H     
44   H        27.7162    7.5851   48.8067  H     
45   H        26.3398    9.6281   49.9202  H     
46   H        27.3726   10.8221   49.1029  H     
47   H        27.2913   10.8034   50.8591  H     
48   H        30.4359    1.4049   54.1871  H     
49   H        32.5065    2.2033   53.2700  H     
50   H        33.9023    3.0060   57.1808  H     
51   H        31.8066    2.2335   58.0701  H     
52   H        30.0649    1.4364   56.5847  H     
53   H        36.7680    2.8284   54.8568  H     
54   H        35.8058    2.1917   56.1137  H     
55   H        36.1665    2.6613   51.9944  H     
56   H        38.1396    3.3000   50.7775  H     
57   H        37.9658    7.1424   52.4887  H     
58   H        36.0199    6.5056   53.7440  H     
59   H        39.2017    6.5354   50.5101  H     
60   H        36.9515    0.8081   53.8508  H     
61   H        36.2130    0.1705   55.3198  H     
62   H        33.9130    0.5012   54.0256  H     
63   H        34.9524    0.6294   52.5727  H     
@<TRIPOS>BOND
     1    1    2 2
     2    1    6 1
     3    1    7 1
     4    2    3 1
     5    3    4 2
     6    4    5 1
     7    4   13 1
     8    5    6 2
     9    7    8 1
    10    8    9 1
    11    9   10 1
    12   10   11 1
    13   10   12 1
    14   13   14 2
    15   13   22 1
    16   14   15 1
    17   14   21 1
    18   15   17 2
    19   15   18 1
    20   16   17 1
    21   16   20 2
    22   18   19 2
    23   19   20 1
    24   21   29 1
    25   22   23 1
    26   22   27 2
    27   23   24 2
    28   24   25 1
    29   25   26 2
    30   25   28 1
    31   26   27 1
    32   29   30 1
    33   30   31 1
    34   31   32 3
    35    2   33 1
    36    3   34 1
    37    5   35 1
    38    6   36 1
    39    8   37 1
    40    8   38 1
    41    9   39 1
    42    9   40 1
    43   10   41 1
    44   11   42 1
    45   11   43 1
    46   11   44 1
    47   12   45 1
    48   12   46 1
    49   12   47 1
    50   16   48 1
    51   17   49 1
    52   18   50 1
    53   19   51 1
    54   20   52 1
    55   21   53 1
    56   21   54 1
    57   23   55 1
    58   24   56 1
    59   26   57 1
    60   27   58 1
    61   28   59 1
    62   29   60 1
    63   29   61 1
    64   30   62 1
    65   30   63 1
@<TRIPOS>PROPERTY_DATA
  Total_Score	| 14.4994
  Crash		| -2.2669
  Polar		| 4.4003
  FragIndex	| 1
  FragRMSD	| 0.130

