@<TRIPOS>MOLECULE
BindingDB_22436
 66 68 0 0 0
SMALL
NO_CHARGES


@<TRIPOS>ATOM
1    C        31.2782    5.7950   51.8819  C     
2    C        31.5282    6.0035   53.2525  C     
3    C        32.6906    5.4784   53.8495  C     
4    C        33.6207    4.7196   53.0891  C     
5    C        33.3447    4.5137   51.7130  C     
6    C        32.1887    5.0404   51.1176  C     
7    O        30.1264    6.2561   51.3125  O     
8    C        30.2593    7.5382   50.6620  C     
9    C        28.9432    7.8947   49.9152  C     
10   N        28.4633    9.2848   50.1894  N     
11   C        27.5782    9.8208   49.1101  C     
12   C        27.8385    9.4421   51.5377  C     
13   C        34.7732    4.1409   53.6530  C     
14   C        34.7023    3.2015   54.6466  C     
15   C        33.4727    2.7825   55.1875  C     
16   C        31.9912    2.4671   57.1178  C     
17   C        33.2052    2.9210   56.5725  C     
18   C        32.4977    2.1511   54.3730  C     
19   C        31.2855    1.6968   54.9193  C     
20   C        31.0321    1.8541   56.2942  C     
21   C        35.8821    2.4705   55.1722  C     
22   C        35.9670    4.5702   53.0556  C     
23   C        36.7189    3.6949   52.2318  C     
24   C        37.8753    4.1640   51.5739  C     
25   C        38.2746    5.5134   51.6934  C     
26   C        37.5128    6.3885   52.4949  C     
27   C        36.3692    5.9240   53.1673  C     
28   O        39.4049    5.9285   51.0527  O     
29   C        35.8584    0.9203   54.9278  C     
30   C        35.6268    0.4936   53.4480  C     
31   C        34.6561   -0.7070   53.2504  C     
32   O        35.3072   -1.9607   53.0250  O     
33   H        30.8547    6.5250   53.8151  H     
34   H        32.8520    5.6401   54.8467  H     
35   H        33.9767    3.9478   51.1350  H     
36   H        32.0067    4.8506   50.1299  H     
37   H        30.4952    8.3009   51.4104  H     
38   H        31.0825    7.5230   49.9373  H     
39   H        29.1545    7.7997   48.8479  H     
40   H        28.1584    7.1683   50.1477  H     
41   H        29.3003    9.8732   50.1834  H     
42   H        28.0420    9.7004   48.1277  H     
43   H        27.4149   10.8904   49.2581  H     
44   H        26.6081    9.3164   49.0940  H     
45   H        26.9166    8.8598   51.6193  H     
46   H        27.6050   10.4933   51.7250  H     
47   H        28.5174    9.1166   52.3282  H     
48   H        31.8100    2.5795   58.1173  H     
49   H        33.8887    3.3674   57.1906  H     
50   H        32.6645    2.0118   53.3707  H     
51   H        30.5906    1.2424   54.3214  H     
52   H        30.1505    1.5222   56.6918  H     
53   H        36.8264    2.8355   54.7633  H     
54   H        35.9561    2.6448   56.2548  H     
55   H        36.4175    2.7185   52.1013  H     
56   H        38.4186    3.5185   50.9863  H     
57   H        37.7917    7.3700   52.5835  H     
58   H        35.8188    6.5899   53.7258  H     
59   H        39.2373    6.8606   50.8086  H     
60   H        36.8197    0.5147   55.2631  H     
61   H        35.1012    0.4755   55.5943  H     
62   H        35.2232    1.3408   52.8808  H     
63   H        36.5882    0.2613   52.9974  H     
64   H        33.9601   -0.8058   54.0999  H     
65   H        34.0544   -0.4962   52.3636  H     
66   H        34.8379   -2.6044   53.6038  H     
@<TRIPOS>BOND
     1    1    2 2
     2    1    6 1
     3    1    7 1
     4    2    3 1
     5    3    4 2
     6    4    5 1
     7    4   13 1
     8    5    6 2
     9    7    8 1
    10    8    9 1
    11    9   10 1
    12   10   11 1
    13   10   12 1
    14   13   14 2
    15   13   22 1
    16   14   15 1
    17   14   21 1
    18   15   17 2
    19   15   18 1
    20   16   17 1
    21   16   20 2
    22   18   19 2
    23   19   20 1
    24   21   29 1
    25   22   23 1
    26   22   27 2
    27   23   24 2
    28   24   25 1
    29   25   26 2
    30   25   28 1
    31   26   27 1
    32   29   30 1
    33   30   31 1
    34   31   32 1
    35    2   33 1
    36    3   34 1
    37    5   35 1
    38    6   36 1
    39    8   37 1
    40    8   38 1
    41    9   39 1
    42    9   40 1
    43   10   41 1
    44   11   42 1
    45   11   43 1
    46   11   44 1
    47   12   45 1
    48   12   46 1
    49   12   47 1
    50   16   48 1
    51   17   49 1
    52   18   50 1
    53   19   51 1
    54   20   52 1
    55   21   53 1
    56   21   54 1
    57   23   55 1
    58   24   56 1
    59   26   57 1
    60   27   58 1
    61   28   59 1
    62   29   60 1
    63   29   61 1
    64   30   62 1
    65   30   63 1
    66   31   64 1
    67   31   65 1
    68   32   66 1
@<TRIPOS>PROPERTY_DATA
  Total_Score	| 13.2002
  Crash		| -3.7269
  Polar		| 4.2448
  FragIndex	| 1
  FragRMSD	| 0.244

