@<TRIPOS>MOLECULE
BindingDB_22425
 60 62 0 0 0
SMALL
NO_CHARGES


@<TRIPOS>ATOM
1    C        31.2858    6.2767   52.7648  C     
2    C        31.9216    6.4183   54.0161  C     
3    C        33.1126    5.7152   54.2896  C     
4    C        33.6844    4.8591   53.3183  C     
5    C        33.0435    4.7292   52.0641  C     
6    C        31.8461    5.4179   51.7954  C     
7    O        30.0798    6.8934   52.5388  O     
8    C        30.1573    8.1110   51.7720  C     
9    C        28.7195    8.5925   51.4406  C     
10   N        28.5820    9.2217   50.0829  N     
11   C        28.6415    8.2381   48.9573  C     
12   C        27.3624   10.0760   49.9662  C     
13   C        34.8210    4.0883   53.6036  C     
14   C        34.7514    2.9732   54.3931  C     
15   C        33.5499    2.5739   54.9956  C     
16   C        31.2814    1.6423   54.8172  C     
17   C        32.4861    2.0531   54.2167  C     
18   C        33.3701    2.6731   56.3947  C     
19   C        32.1626    2.2645   56.9950  C     
20   C        31.1144    1.7492   56.2118  C     
21   C        35.9472    2.1823   54.7604  C     
22   C        35.9737    4.5030   52.9155  C     
23   C        36.5843    3.6649   51.9506  C     
24   C        37.7222    4.0929   51.2370  C     
25   C        38.2601    5.3784   51.4589  C     
26   C        37.6387    6.2385   52.3873  C     
27   C        36.5081    5.8047   53.1048  C     
28   O        39.3863    5.7596   50.7949  O     
29   C        35.7298    0.7394   55.2961  C     
30   C        34.9938   -0.0478   54.4505  C     
31   N        34.3734   -0.7022   53.7340  N     
32   H        31.5045    7.0184   54.7345  H     
33   H        33.5404    5.8198   55.2127  H     
34   H        33.4178    4.0961   51.3532  H     
35   H        31.3777    5.2752   50.9005  H     
36   H        30.6702    8.8863   52.3501  H     
37   H        30.7061    7.9324   50.8461  H     
38   H        28.0231    7.7518   51.5354  H     
39   H        28.4514    9.3133   52.2207  H     
40   H        29.3834    9.8438   49.9719  H     
41   H        29.6239    7.7713   48.9121  H     
42   H        28.4819    8.7282   47.9930  H     
43   H        27.8872    7.4550   49.0735  H     
44   H        26.4509    9.4799   50.0663  H     
45   H        27.3408   10.5861   48.9995  H     
46   H        27.3611   10.8499   50.7367  H     
47   H        30.5257    1.2531   54.2485  H     
48   H        32.5817    1.9566   53.2018  H     
49   H        34.1124    3.0467   56.9909  H     
50   H        32.0487    2.3425   58.0089  H     
51   H        30.2409    1.4527   56.6500  H     
52   H        36.6014    2.0635   53.8861  H     
53   H        36.5204    2.7432   55.5079  H     
54   H        36.2080    2.7346   51.7627  H     
55   H        38.1603    3.4684   50.5533  H     
56   H        38.0152    7.1758   52.5510  H     
57   H        36.0766    6.4497   53.7724  H     
58   H        39.3128    6.7323   50.6453  H     
59   H        36.7029    0.2403   55.4309  H     
60   H        35.2360    0.7783   56.2715  H     
@<TRIPOS>BOND
     1    1    2 2
     2    1    6 1
     3    1    7 1
     4    2    3 1
     5    3    4 2
     6    4    5 1
     7    4   13 1
     8    5    6 2
     9    7    8 1
    10    8    9 1
    11    9   10 1
    12   10   11 1
    13   10   12 1
    14   13   14 2
    15   13   22 1
    16   14   15 1
    17   14   21 1
    18   15   17 2
    19   15   18 1
    20   16   17 1
    21   16   20 2
    22   18   19 2
    23   19   20 1
    24   21   29 1
    25   22   23 1
    26   22   27 2
    27   23   24 2
    28   24   25 1
    29   25   26 2
    30   25   28 1
    31   26   27 1
    32   29   30 1
    33   30   31 3
    34    2   32 1
    35    3   33 1
    36    5   34 1
    37    6   35 1
    38    8   36 1
    39    8   37 1
    40    9   38 1
    41    9   39 1
    42   10   40 1
    43   11   41 1
    44   11   42 1
    45   11   43 1
    46   12   44 1
    47   12   45 1
    48   12   46 1
    49   16   47 1
    50   17   48 1
    51   18   49 1
    52   19   50 1
    53   20   51 1
    54   21   52 1
    55   21   53 1
    56   23   54 1
    57   24   55 1
    58   26   56 1
    59   27   57 1
    60   28   58 1
    61   29   59 1
    62   29   60 1
@<TRIPOS>PROPERTY_DATA
  Total_Score	| 14.2021
  Crash		| -1.4698
  Polar		| 4.3772
  FragIndex	| 1
  FragRMSD	| 0.230

