@<TRIPOS>MOLECULE
BindingDB_22423
 59 61 0 0 0
SMALL
NO_CHARGES


@<TRIPOS>ATOM
1    C        31.2244    6.0778   52.3372  C     
2    C        31.6444    6.1781   53.6752  C     
3    C        32.8263    5.5291   54.0993  C     
4    C        33.5873    4.7542   53.1866  C     
5    C        33.1517    4.6687   51.8398  C     
6    C        31.9826    5.3266   51.4197  C     
7    O        30.0319    6.6310   51.9488  O     
8    C        30.0747    8.0598   51.7463  C     
9    C        28.6444    8.5979   51.4205  C     
10   N        28.5122    9.2522   50.0803  N     
11   C        28.6024    8.2953   48.9339  C     
12   C        27.2751   10.0893   49.9742  C     
13   C        34.7212    4.0426   53.6046  C     
14   C        34.6654    3.0442   54.5608  C     
15   C        33.4231    2.5932   55.0723  C     
16   C        31.9444    2.2263   57.0111  C     
17   C        33.1640    2.6859   56.4758  C     
18   C        32.4176    2.0633   54.2406  C     
19   C        31.1825    1.6001   54.7822  C     
20   C        30.9593    1.6924   56.1640  C     
21   C        35.8686    2.3700   55.0930  C     
22   C        35.9208    4.4372   52.9866  C     
23   C        36.3943    5.7630   53.1175  C     
24   C        37.5540    6.1950   52.4377  C     
25   C        38.2453    5.3110   51.5860  C     
26   C        37.7696    3.9965   51.4245  C     
27   C        36.6090    3.5701   52.1016  C     
28   O        39.3813    5.6940   50.9525  O     
29   C        36.1644    0.9354   54.5511  C     
30   Cl       34.8536    0.0983   53.7112  Cl    
31   H        31.0886    6.7045   54.3497  H     
32   H        33.1187    5.6216   55.0734  H     
33   H        33.6718    4.1056   51.1588  H     
34   H        31.6748    5.2262   50.4529  H     
35   H        30.4417    8.5507   52.6596  H     
36   H        30.7729    8.3012   50.9464  H     
37   H        27.9045    7.7975   51.5140  H     
38   H        28.4019    9.3264   52.2047  H     
39   H        29.3036    9.8974   50.0053  H     
40   H        29.5700    7.7907   48.9256  H     
41   H        28.5065    8.8200   47.9811  H     
42   H        27.8213    7.5359   48.9889  H     
43   H        26.3742    9.4803   50.0826  H     
44   H        27.2306   10.6024   49.0094  H     
45   H        27.2700   10.8606   50.7458  H     
46   H        31.7720    2.3084   58.0131  H     
47   H        33.8511    3.0848   57.1095  H     
48   H        32.5590    1.9736   53.2319  H     
49   H        30.4769    1.2152   54.1653  H     
50   H        30.0665    1.3783   56.5533  H     
51   H        36.7503    2.9902   54.9338  H     
52   H        35.8096    2.2782   56.1847  H     
53   H        35.8986    6.4338   53.7179  H     
54   H        37.8793    7.1567   52.5563  H     
55   H        38.2507    3.3543   50.7928  H     
56   H        36.2618    2.6248   51.9252  H     
57   H        39.2488    6.6252   50.6599  H     
58   H        37.0164    0.9677   53.8845  H     
59   H        36.4517    0.3056   55.3896  H     
@<TRIPOS>BOND
     1    1    2 2
     2    1    6 1
     3    1    7 1
     4    2    3 1
     5    3    4 2
     6    4    5 1
     7    4   13 1
     8    5    6 2
     9    7    8 1
    10    8    9 1
    11    9   10 1
    12   10   11 1
    13   10   12 1
    14   13   14 2
    15   13   22 1
    16   14   15 1
    17   14   21 1
    18   15   17 2
    19   15   18 1
    20   16   17 1
    21   16   20 2
    22   18   19 2
    23   19   20 1
    24   21   29 1
    25   22   23 1
    26   22   27 2
    27   23   24 2
    28   24   25 1
    29   25   26 2
    30   25   28 1
    31   26   27 1
    32   29   30 1
    33    2   31 1
    34    3   32 1
    35    5   33 1
    36    6   34 1
    37    8   35 1
    38    8   36 1
    39    9   37 1
    40    9   38 1
    41   10   39 1
    42   11   40 1
    43   11   41 1
    44   11   42 1
    45   12   43 1
    46   12   44 1
    47   12   45 1
    48   16   46 1
    49   17   47 1
    50   18   48 1
    51   19   49 1
    52   20   50 1
    53   21   51 1
    54   21   52 1
    55   23   53 1
    56   24   54 1
    57   26   55 1
    58   27   56 1
    59   28   57 1
    60   29   58 1
    61   29   59 1
@<TRIPOS>PROPERTY_DATA
  Total_Score	| 14.6260
  Crash		| -1.2332
  Polar		| 4.2902
  FragIndex	| 1
  FragRMSD	| 0.248

