@<TRIPOS>MOLECULE
BindingDB_22427
 62 64 0 0 0
SMALL
NO_CHARGES


@<TRIPOS>ATOM
1    C        31.1597    6.2737   52.7445  C     
2    C        31.7577    6.4205   54.0241  C     
3    C        32.9694    5.7630   54.3219  C     
4    C        33.5835    4.9124   53.3653  C     
5    C        32.9596    4.7474   52.1071  C     
6    C        31.7653    5.4167   51.8018  C     
7    O        29.9171    6.7794   52.4370  O     
8    C        29.8758    8.2041   52.1482  C     
9    C        28.4370    8.5931   51.6805  C     
10   N        28.3828    9.2819   50.3449  N     
11   C        28.7112    8.3989   49.1782  C     
12   C        27.1003   10.0203   50.1212  C     
13   C        34.7227    4.1559   53.6743  C     
14   C        34.6771    3.1200   54.5689  C     
15   C        33.4506    2.6018   55.0470  C     
16   C        31.2367    1.6115   54.6104  C     
17   C        32.4676    2.1130   54.1442  C     
18   C        33.1619    2.5472   56.4354  C     
19   C        31.9243    2.0575   56.9007  C     
20   C        30.9611    1.5893   55.9889  C     
21   C        35.8902    2.4206   55.0500  C     
22   C        35.8731    4.5230   52.9519  C     
23   C        36.5156    3.6170   52.0661  C     
24   C        37.6854    3.9764   51.3660  C     
25   C        38.2423    5.2645   51.5206  C     
26   C        37.6058    6.1891   52.3788  C     
27   C        36.4299    5.8288   53.0668  C     
28   O        39.4002    5.5782   50.8628  O     
29   C        36.1053    0.9506   54.5555  C     
30   N        35.0767    0.4533   53.7549  N     
31   N        34.8614   -0.6723   53.5555  N     
32   N        34.6388   -1.7968   53.3638  N     
33   H        31.3048    6.9850   54.7508  H     
34   H        33.3799    5.8900   55.2492  H     
35   H        33.3387    4.1000   51.4150  H     
36   H        31.3034    5.2506   50.9033  H     
37   H        30.1073    8.7673   53.0699  H     
38   H        30.5966    8.4936   51.3577  H     
39   H        27.7821    7.7090   51.6737  H     
40   H        28.0251    9.2970   52.4217  H     
41   H        29.1178    9.9951   50.3693  H     
42   H        29.7367    8.0332   49.2734  H     
43   H        28.6428    8.9652   48.2410  H     
44   H        28.0306    7.5369   49.1380  H     
45   H        26.2708    9.3190   49.9788  H     
46   H        27.1790   10.6594   49.2281  H     
47   H        26.8684   10.6736   50.9789  H     
48   H        30.5401    1.2516   53.9476  H     
49   H        32.6470    2.1058   53.1380  H     
50   H        33.8315    2.8975   57.1263  H     
51   H        31.7193    2.0530   57.9083  H     
52   H        30.0581    1.2357   56.3270  H     
53   H        36.7941    2.9860   54.8203  H     
54   H        35.8814    2.4073   56.1452  H     
55   H        36.1327    2.6849   51.9110  H     
56   H        38.1485    3.2981   50.7432  H     
57   H        38.0031    7.1291   52.5117  H     
58   H        35.9915    6.5313   53.6640  H     
59   H        39.2400    6.4289   50.4019  H     
60   H        37.0239    0.8911   53.9698  H     
61   H        36.2409    0.2983   55.4290  H     
62   H        35.0077   -2.4582   53.9157  H     
@<TRIPOS>BOND
     1    1    2 2
     2    1    6 1
     3    1    7 1
     4    2    3 1
     5    3    4 2
     6    4    5 1
     7    4   13 1
     8    5    6 2
     9    7    8 1
    10    8    9 1
    11    9   10 1
    12   10   11 1
    13   10   12 1
    14   13   14 2
    15   13   22 1
    16   14   15 1
    17   14   21 1
    18   15   17 2
    19   15   18 1
    20   16   17 1
    21   16   20 2
    22   18   19 2
    23   19   20 1
    24   21   29 1
    25   22   23 1
    26   22   27 2
    27   23   24 2
    28   24   25 1
    29   25   26 2
    30   25   28 1
    31   26   27 1
    32   29   30 1
    33   30   31 2
    34   31   32 2
    35    2   33 1
    36    3   34 1
    37    5   35 1
    38    6   36 1
    39    8   37 1
    40    8   38 1
    41    9   39 1
    42    9   40 1
    43   10   41 1
    44   11   42 1
    45   11   43 1
    46   11   44 1
    47   12   45 1
    48   12   46 1
    49   12   47 1
    50   16   48 1
    51   17   49 1
    52   18   50 1
    53   19   51 1
    54   20   52 1
    55   21   53 1
    56   21   54 1
    57   23   55 1
    58   24   56 1
    59   26   57 1
    60   27   58 1
    61   28   59 1
    62   29   60 1
    63   29   61 1
    64   32   62 1
@<TRIPOS>PROPERTY_DATA
  Total_Score	| 14.7382
  Crash		| -1.7210
  Polar		| 4.5230
  FragIndex	| 1
  FragRMSD	| 0.240

