@<TRIPOS>MOLECULE
BindingDB_20608
 59 61 0 0 0
SMALL
NO_CHARGES


@<TRIPOS>ATOM
1    C        34.6958    2.8533   54.3771  C     
2    C        33.4763    2.4339   54.9432  C     
3    C        33.2732    2.4696   56.3422  C     
4    C        32.0306    2.0946   56.8984  C     
5    C        30.9796    1.6548   56.0723  C     
6    C        31.1705    1.6028   54.6800  C     
7    C        32.4072    1.9916   54.1244  C     
8    C        35.9024    2.0661   54.7082  C     
9    C        35.7294    0.7671   55.5378  C     
10   C        34.7670    3.9748   53.5937  C     
11   C        33.6453    4.7864   53.3809  C     
12   C        32.9518    4.7237   52.1496  C     
13   C        33.1417    5.6385   54.3938  C     
14   C        31.9780    6.4110   54.1757  C     
15   C        31.2929    6.3383   52.9461  C     
16   C        31.7720    5.4696   51.9472  C     
17   O        30.1280    7.0334   52.7634  O     
18   C        30.1736    8.0515   51.7368  C     
19   C        28.7228    8.4802   51.3781  C     
20   N        28.6012    9.1814   50.0536  N     
21   C        28.6460    8.2527   48.8778  C     
22   C        27.3950   10.0620   49.9799  C     
23   C        35.9216    4.3966   52.8997  C     
24   C        37.5822    6.1414   52.3769  C     
25   C        36.4464    5.7025   53.0863  C     
26   C        36.5483    3.5660   51.9378  C     
27   C        37.6994    3.9947   51.2470  C     
28   C        38.2192    5.2824   51.4623  C     
29   O        39.3461    5.6604   50.8040  O     
30   H        34.0065    2.8052   56.9617  H     
31   H        31.8924    2.1267   57.9098  H     
32   H        30.0877    1.3660   56.4792  H     
33   H        30.4178    1.2653   54.0765  H     
34   H        32.5157    1.9434   53.1049  H     
35   H        36.3841    1.7361   53.7879  H     
36   H        36.6114    2.7179   55.2309  H     
37   H        35.3980    0.9903   56.5549  H     
38   H        36.6752    0.2100   55.5959  H     
39   H        35.0018    0.1125   55.0568  H     
40   H        33.2692    4.0958   51.4080  H     
41   H        33.6028    5.6875   55.3056  H     
42   H        31.6262    7.0134   54.9259  H     
43   H        31.2612    5.3662   51.0689  H     
44   H        30.7399    8.9172   52.1010  H     
45   H        30.6814    7.6740   50.8450  H     
46   H        28.0696    7.6049   51.3865  H     
47   H        28.3849    9.1293   52.1915  H     
48   H        29.4123    9.8022   49.9839  H     
49   H        29.6047    7.7391   48.8191  H     
50   H        28.5210    8.8005   47.9416  H     
51   H        27.8573    7.5002   48.9373  H     
52   H        26.4742    9.4841   50.0871  H     
53   H        27.3566   10.5975   49.0280  H     
54   H        27.4277   10.8172   50.7674  H     
55   H        37.9449    7.0850   52.5346  H     
56   H        36.0101    6.3513   53.7482  H     
57   H        36.1680    2.6415   51.7276  H     
58   H        38.1521    3.3663   50.5806  H     
59   H        39.2696    6.6292   50.6657  H     
@<TRIPOS>BOND
     1    1    2 1
     2    1    8 1
     3    1   10 2
     4    2    3 2
     5    2    7 1
     6    3    4 1
     7    4    5 2
     8    5    6 1
     9    6    7 2
    10    8    9 1
    11   10   11 1
    12   10   23 1
    13   11   12 2
    14   11   13 1
    15   12   16 1
    16   13   14 2
    17   14   15 1
    18   15   16 2
    19   15   17 1
    20   17   18 1
    21   18   19 1
    22   19   20 1
    23   20   21 1
    24   20   22 1
    25   23   25 2
    26   23   26 1
    27   24   25 1
    28   24   28 2
    29   26   27 2
    30   27   28 1
    31   28   29 1
    32    3   30 1
    33    4   31 1
    34    5   32 1
    35    6   33 1
    36    7   34 1
    37    8   35 1
    38    8   36 1
    39    9   37 1
    40    9   38 1
    41    9   39 1
    42   12   40 1
    43   13   41 1
    44   14   42 1
    45   16   43 1
    46   18   44 1
    47   18   45 1
    48   19   46 1
    49   19   47 1
    50   20   48 1
    51   21   49 1
    52   21   50 1
    53   21   51 1
    54   22   52 1
    55   22   53 1
    56   22   54 1
    57   24   55 1
    58   25   56 1
    59   26   57 1
    60   27   58 1
    61   29   59 1
@<TRIPOS>PROPERTY_DATA
  Total_Score	| 14.3559
  Crash		| -1.1060
  Polar		| 4.4420
  FragIndex	| 1
  FragRMSD	| 0.267

