@<TRIPOS>MOLECULE
BindingDB_22429
 66 68 0 0 0
SMALL
NO_CHARGES


@<TRIPOS>ATOM
1    C        30.9855    6.3625   52.6245  C     
2    C        31.5998    5.4884   51.7059  C     
3    C        32.8512    4.9143   51.9895  C     
4    C        33.4939    5.1842   53.2205  C     
5    C        32.8776    6.0746   54.1338  C     
6    C        31.6307    6.6498   53.8415  C     
7    O        29.7536    6.8929   52.3692  O     
8    C        29.8290    8.2405   51.8565  C     
9    C        28.4093    8.7031   51.4516  C     
10   N        28.3652    9.2940   50.0653  N     
11   C        28.4145    8.2660   48.9830  C     
12   C        27.2031   10.2061   49.8707  C     
13   C        34.6380    4.4762   53.5930  C     
14   C        34.6138    3.5239   54.5770  C     
15   C        33.3827    3.0991   55.1061  C     
16   C        31.7226    3.1235   56.9149  C     
17   C        32.9751    3.5135   56.3983  C     
18   C        32.4782    2.3340   54.3238  C     
19   C        31.2385    1.9268   54.8451  C     
20   C        30.8540    2.3321   56.1401  C     
21   C        35.8580    2.9784   55.1639  C     
22   C        35.7983    4.8173   52.8952  C     
23   C        36.5116    6.0002   53.2003  C     
24   C        37.6926    6.3203   52.5120  C     
25   C        38.1862    5.4711   51.5047  C     
26   C        37.4755    4.3035   51.1795  C     
27   C        36.2838    3.9932   51.8542  C     
28   O        39.3426    5.7478   50.8506  O     
29   C        35.8066    1.7751   56.1618  C     
30   C        35.9141    0.3528   55.5500  C     
31   S        34.7090   -0.0942   54.2735  S     
32   C        35.3742    0.8160   52.8609  C     
33   H        31.1269    5.2537   50.8327  H     
34   H        33.2605    4.2626   51.3143  H     
35   H        33.3195    6.2846   55.0355  H     
36   H        31.1812    7.2663   54.5197  H     
37   H        30.2169    8.9249   52.6202  H     
38   H        30.4899    8.2817   50.9873  H     
39   H        27.7020    7.8670   51.5231  H     
40   H        28.1018    9.4417   52.2023  H     
41   H        29.2094    9.8684   49.9786  H     
42   H        29.3115    7.6512   49.0619  H     
43   H        28.4350    8.7421   48.0006  H     
44   H        27.5471    7.6067   49.0302  H     
45   H        26.2590    9.6778   50.0250  H     
46   H        27.1992   10.6303   48.8635  H     
47   H        27.2579   11.0411   50.5710  H     
48   H        31.4353    3.4237   57.8508  H     
49   H        33.5891    4.0929   56.9760  H     
50   H        32.7306    2.0401   53.3801  H     
51   H        30.6085    1.3528   54.2783  H     
52   H        29.9488    2.0445   56.5126  H     
53   H        36.5533    2.6899   54.3783  H     
54   H        36.3340    3.8180   55.6732  H     
55   H        36.1762    6.6303   53.9291  H     
56   H        38.1985    7.1740   52.7500  H     
57   H        37.8208    3.6808   50.4466  H     
58   H        35.7727    3.1624   51.5647  H     
59   H        39.2790    6.6880   50.5861  H     
60   H        36.6511    1.8767   56.8460  H     
61   H        34.9242    1.8187   56.7958  H     
62   H        36.9222    0.1892   55.1784  H     
63   H        35.7553   -0.3578   56.3634  H     
64   H        35.2702    1.8776   53.0575  H     
65   H        34.7875    0.5896   51.9728  H     
66   H        36.4252    0.5739   52.7009  H     
@<TRIPOS>BOND
     1    1    2 2
     2    1    6 1
     3    1    7 1
     4    2    3 1
     5    3    4 2
     6    4    5 1
     7    4   13 1
     8    5    6 2
     9    7    8 1
    10    8    9 1
    11    9   10 1
    12   10   11 1
    13   10   12 1
    14   13   14 2
    15   13   22 1
    16   14   15 1
    17   14   21 1
    18   15   17 2
    19   15   18 1
    20   16   17 1
    21   16   20 2
    22   18   19 2
    23   19   20 1
    24   21   29 1
    25   22   23 1
    26   22   27 2
    27   23   24 2
    28   24   25 1
    29   25   26 2
    30   25   28 1
    31   26   27 1
    32   29   30 1
    33   30   31 1
    34   31   32 1
    35    2   33 1
    36    3   34 1
    37    5   35 1
    38    6   36 1
    39    8   37 1
    40    8   38 1
    41    9   39 1
    42    9   40 1
    43   10   41 1
    44   11   42 1
    45   11   43 1
    46   11   44 1
    47   12   45 1
    48   12   46 1
    49   12   47 1
    50   16   48 1
    51   17   49 1
    52   18   50 1
    53   19   51 1
    54   20   52 1
    55   21   53 1
    56   21   54 1
    57   23   55 1
    58   24   56 1
    59   26   57 1
    60   27   58 1
    61   28   59 1
    62   29   60 1
    63   29   61 1
    64   30   62 1
    65   30   63 1
    66   32   64 1
    67   32   65 1
    68   32   66 1
@<TRIPOS>PROPERTY_DATA
  Total_Score	| 11.5662
  Crash		| -4.2667
  Polar		| 4.1699
  FragIndex	| 1
  FragRMSD	| 0.409

