@<TRIPOS>MOLECULE
BindingDB_22434
 60 62 0 0 0
SMALL
NO_CHARGES


@<TRIPOS>ATOM
1    C        31.2104    6.2750   52.9109  C     
2    C        31.8170    6.4038   54.1745  C     
3    C        32.9866    5.6868   54.4726  C     
4    C        33.6281    4.8715   53.4993  C     
5    C        33.0004    4.7424   52.2290  C     
6    C        31.8123    5.4423   51.9329  C     
7    O        30.0174    6.9010   52.6873  O     
8    C        30.0782    8.0343   51.7935  C     
9    C        28.6326    8.5041   51.4259  C     
10   N        28.5285    9.1899   50.0905  N     
11   C        28.6386    8.2412   48.9395  C     
12   C        27.2955   10.0270   49.9605  C     
13   C        34.7699    4.1211   53.8117  C     
14   C        34.7273    3.1262   54.7511  C     
15   C        33.4971    2.6241   55.2426  C     
16   C        31.9622    2.1766   57.1032  C     
17   C        33.2043    2.6373   56.6286  C     
18   C        32.5276    2.0955   54.3532  C     
19   C        31.2817    1.6494   54.8302  C     
20   C        30.9958    1.6984   56.2041  C     
21   C        35.9305    2.4464   55.2578  C     
22   C        35.9084    4.4853   53.0680  C     
23   C        36.4456    5.7987   53.1281  C     
24   C        37.5615    6.1649   52.3497  C     
25   C        38.1796    5.2309   51.4988  C     
26   C        37.6527    3.9303   51.4263  C     
27   C        36.5246    3.5663   52.1870  C     
28   O        39.2960    5.5417   50.7782  O     
29   C        36.0068    0.9480   54.8724  C     
30   O        35.9554    0.1099   56.0266  O     
31   H        31.3713    6.9863   54.8955  H     
32   H        33.3687    5.7448   55.4195  H     
33   H        33.3631    4.0903   51.5213  H     
34   H        31.3785    5.3258   51.0174  H     
35   H        30.6245    8.8694   52.2828  H     
36   H        30.6064    7.7111   50.8874  H     
37   H        27.9541    7.6391   51.4731  H     
38   H        28.3410    9.2113   52.2167  H     
39   H        29.3268    9.8316   50.0288  H     
40   H        29.6383    7.8068   48.8889  H     
41   H        28.4644    8.7481   47.9881  H     
42   H        27.9091    7.4326   49.0334  H     
43   H        26.3893    9.4187   50.0189  H     
44   H        27.2949   10.5542   49.0029  H     
45   H        27.2555   10.7848   50.7459  H     
46   H        31.7537    2.2156   58.1042  H     
47   H        33.8799    3.0111   57.2993  H     
48   H        32.7190    2.0424   53.3486  H     
49   H        30.5802    1.2942   54.1735  H     
50   H        30.0831    1.3875   56.5471  H     
51   H        36.8407    2.9264   54.9013  H     
52   H        35.9897    2.5350   56.3455  H     
53   H        36.0333    6.5036   53.7388  H     
54   H        37.9340    7.1181   52.4047  H     
55   H        38.0836    3.2418   50.7997  H     
56   H        36.1456    2.6278   52.0812  H     
57   H        39.2025    6.4771   50.4975  H     
58   H        35.1846    0.6741   54.2052  H     
59   H        36.9428    0.7454   54.3512  H     
60   H        36.8981   -0.0861   56.2367  H     
@<TRIPOS>BOND
     1    1    2 2
     2    1    6 1
     3    1    7 1
     4    2    3 1
     5    3    4 2
     6    4    5 1
     7    4   13 1
     8    5    6 2
     9    7    8 1
    10    8    9 1
    11    9   10 1
    12   10   11 1
    13   10   12 1
    14   13   14 2
    15   13   22 1
    16   14   15 1
    17   14   21 1
    18   15   17 2
    19   15   18 1
    20   16   17 1
    21   16   20 2
    22   18   19 2
    23   19   20 1
    24   21   29 1
    25   22   23 1
    26   22   27 2
    27   23   24 2
    28   24   25 1
    29   25   26 2
    30   25   28 1
    31   26   27 1
    32   29   30 1
    33    2   31 1
    34    3   32 1
    35    5   33 1
    36    6   34 1
    37    8   35 1
    38    8   36 1
    39    9   37 1
    40    9   38 1
    41   10   39 1
    42   11   40 1
    43   11   41 1
    44   11   42 1
    45   12   43 1
    46   12   44 1
    47   12   45 1
    48   16   46 1
    49   17   47 1
    50   18   48 1
    51   19   49 1
    52   20   50 1
    53   21   51 1
    54   21   52 1
    55   23   53 1
    56   24   54 1
    57   26   55 1
    58   27   56 1
    59   28   57 1
    60   29   58 1
    61   29   59 1
    62   30   60 1
@<TRIPOS>PROPERTY_DATA
  Total_Score	| 14.9599
  Crash		| -1.1799
  Polar		| 5.4743
  FragIndex	| 1
  FragRMSD	| 0.171

