@<TRIPOS>MOLECULE
BindingDB_22428
 65 67 0 0 0
SMALL
NO_CHARGES


@<TRIPOS>ATOM
1    C        31.2442    5.9052   51.9893  C     
2    C        32.1487    5.2841   51.1046  C     
3    C        33.2949    4.6331   51.5985  C     
4    C        33.6026    4.6290   52.9843  C     
5    C        32.7023    5.2878   53.8544  C     
6    C        31.5094    5.8557   53.3740  C     
7    O        30.1109    6.5189   51.5121  O     
8    C        30.0870    7.9534   51.6892  C     
9    C        28.6654    8.5221   51.4081  C     
10   N        28.5160    9.1913   50.0753  N     
11   C        28.6518    8.2566   48.9200  C     
12   C        27.2578    9.9932   49.9812  C     
13   C        34.7500    3.9569   53.4646  C     
14   C        34.6955    3.0192   54.4641  C     
15   C        33.4767    2.6730   55.0916  C     
16   C        32.0537    2.5615   57.0931  C     
17   C        33.2764    2.8947   56.4796  C     
18   C        32.4280    2.0730   54.3517  C     
19   C        31.2087    1.7328   54.9672  C     
20   C        31.0204    1.9789   56.3393  C     
21   C        35.8682    2.2520   54.9431  C     
22   C        35.9539    4.3830   52.8626  C     
23   C        36.4367    5.6984   53.0832  C     
24   C        37.5969    6.1714   52.4400  C     
25   C        38.3091    5.3393   51.5555  C     
26   C        37.8439    4.0317   51.3213  C     
27   C        36.6735    3.5653   51.9567  C     
28   O        39.4362    5.7798   50.9338  O     
29   C        35.7149    0.7026   54.8723  C     
30   C        35.3355    0.1234   53.4728  C     
31   N        34.5178   -1.0007   53.5504  N     
32   N        34.8407   -2.1194   53.4995  N     
33   N        35.1295   -3.2432   53.4194  N     
34   H        31.9725    5.2918   50.0964  H     
35   H        33.9024    4.1477   50.9302  H     
36   H        32.8942    5.3422   54.8581  H     
37   H        30.8468    6.2557   54.0444  H     
38   H        30.3558    8.2157   52.7175  H     
39   H        30.8200    8.4227   51.0245  H     
40   H        27.9171    7.7318   51.5289  H     
41   H        28.4630    9.2604   52.1918  H     
42   H        29.2880    9.8619   50.0139  H     
43   H        29.6414    7.7993   48.9137  H     
44   H        28.5386    8.7926   47.9751  H     
45   H        27.9011    7.4639   48.9608  H     
46   H        26.3754    9.3538   50.0596  H     
47   H        27.2121   10.5355   49.0342  H     
48   H        27.2199   10.7388   50.7788  H     
49   H        31.9224    2.7349   58.0927  H     
50   H        34.0108    3.3129   57.0548  H     
51   H        32.5396    1.8762   53.3541  H     
52   H        30.4662    1.2896   54.4232  H     
53   H        30.1289    1.7447   56.7825  H     
54   H        36.7712    2.5116   54.4029  H     
55   H        36.0627    2.5268   55.9870  H     
56   H        35.9409    6.3323   53.7173  H     
57   H        37.9215    7.1277   52.6170  H     
58   H        38.3546    3.4200   50.6780  H     
59   H        36.3482    2.6180   51.7451  H     
60   H        39.3802    6.7603   50.9202  H     
61   H        36.6611    0.2609   55.1866  H     
62   H        34.9704    0.3938   55.6114  H     
63   H        34.7604    0.8546   52.9069  H     
64   H        36.2433   -0.0820   52.8967  H     
65   H        35.0055   -3.8311   54.1362  H     
@<TRIPOS>BOND
     1    1    2 2
     2    1    6 1
     3    1    7 1
     4    2    3 1
     5    3    4 2
     6    4    5 1
     7    4   13 1
     8    5    6 2
     9    7    8 1
    10    8    9 1
    11    9   10 1
    12   10   11 1
    13   10   12 1
    14   13   14 2
    15   13   22 1
    16   14   15 1
    17   14   21 1
    18   15   17 2
    19   15   18 1
    20   16   17 1
    21   16   20 2
    22   18   19 2
    23   19   20 1
    24   21   29 1
    25   22   23 1
    26   22   27 2
    27   23   24 2
    28   24   25 1
    29   25   26 2
    30   25   28 1
    31   26   27 1
    32   29   30 1
    33   30   31 1
    34   31   32 2
    35   32   33 2
    36    2   34 1
    37    3   35 1
    38    5   36 1
    39    6   37 1
    40    8   38 1
    41    8   39 1
    42    9   40 1
    43    9   41 1
    44   10   42 1
    45   11   43 1
    46   11   44 1
    47   11   45 1
    48   12   46 1
    49   12   47 1
    50   12   48 1
    51   16   49 1
    52   17   50 1
    53   18   51 1
    54   19   52 1
    55   20   53 1
    56   21   54 1
    57   21   55 1
    58   23   56 1
    59   24   57 1
    60   26   58 1
    61   27   59 1
    62   28   60 1
    63   29   61 1
    64   29   62 1
    65   30   63 1
    66   30   64 1
    67   33   65 1
@<TRIPOS>PROPERTY_DATA
  Total_Score	| 14.3365
  Crash		| -2.6017
  Polar		| 4.2413
  FragIndex	| 1
  FragRMSD	| 0.392

