@<TRIPOS>MOLECULE
BindingDB_22435
 63 65 0 0 0
SMALL
NO_CHARGES


@<TRIPOS>ATOM
1    C        31.2311    6.0575   52.1925  C     
2    C        32.0451    5.3204   51.3124  C     
3    C        33.1881    4.6605   51.7883  C     
4    C        33.5623    4.7296   53.1524  C     
5    C        32.7471    5.4899   54.0277  C     
6    C        31.5811    6.1222   53.5567  C     
7    O        30.1109    6.6869   51.7112  O     
8    C        30.1183    8.1194   51.8976  C     
9    C        28.7197    8.7101   51.5483  C     
10   N        28.5808    9.2418   50.1551  N     
11   C        28.6724    8.1973   49.0906  C     
12   C        27.3482   10.0735   49.9934  C     
13   C        34.7124    4.0486   53.6010  C     
14   C        34.6417    3.0563   54.5480  C     
15   C        33.4062    2.6052   55.0778  C     
16   C        31.9165    2.1541   56.9925  C     
17   C        33.1412    2.6248   56.4759  C     
18   C        32.4053    2.0739   54.2276  C     
19   C        31.1772    1.6114   54.7439  C     
20   C        30.9308    1.6519   56.1274  C     
21   C        35.8452    2.3969   55.0969  C     
22   C        35.9078    4.4599   52.9595  C     
23   C        36.4134    5.7803   53.0966  C     
24   C        37.5639    6.2042   52.4025  C     
25   C        38.2415    5.3167   51.5481  C     
26   C        37.7667    4.0009   51.4040  C     
27   C        36.6113    3.5855   52.0955  C     
28   O        39.3640    5.7008   50.8775  O     
29   C        36.1807    0.9628   54.5797  C     
30   C        35.2734    0.3256   53.4792  C     
31   O        34.2930   -0.5263   54.0706  O     
32   H        31.8042    5.2550   50.3233  H     
33   H        33.7393    4.1064   51.1291  H     
34   H        32.9910    5.5796   55.0160  H     
35   H        30.9887    6.6390   54.2101  H     
36   H        30.3480    8.3575   52.9423  H     
37   H        30.8958    8.5739   51.2759  H     
38   H        27.9373    7.9717   51.7502  H     
39   H        28.5564    9.5361   52.2477  H     
40   H        29.3743    9.8752   50.0359  H     
41   H        29.6442    7.7032   49.1177  H     
42   H        28.5635    8.6463   48.0996  H     
43   H        27.8903    7.4415   49.2085  H     
44   H        26.4458    9.4793   50.1595  H     
45   H        27.2965   10.5108   48.9948  H     
46   H        27.3550   10.9023   50.7044  H     
47   H        31.7449    2.1701   58.0042  H     
48   H        33.8292    2.9886   57.1364  H     
49   H        32.5660    2.0001   53.2227  H     
50   H        30.4727    1.2227   54.1157  H     
51   H        30.0390    1.3111   56.5037  H     
52   H        36.7385    3.0064   54.9414  H     
53   H        35.7547    2.3497   56.1872  H     
54   H        35.9454    6.4522   53.7086  H     
55   H        37.9142    7.1556   52.5300  H     
56   H        38.2615    3.3423   50.7971  H     
57   H        36.2747    2.6318   51.9425  H     
58   H        39.2349    6.6418   50.6250  H     
59   H        37.2011    1.0009   54.1769  H     
60   H        36.2399    0.2779   55.4343  H     
61   H        34.7551    1.0807   52.8815  H     
62   H        35.8855   -0.2789   52.8019  H     
63   H        34.5045   -1.4324   53.7605  H     
@<TRIPOS>BOND
     1    1    2 2
     2    1    6 1
     3    1    7 1
     4    2    3 1
     5    3    4 2
     6    4    5 1
     7    4   13 1
     8    5    6 2
     9    7    8 1
    10    8    9 1
    11    9   10 1
    12   10   11 1
    13   10   12 1
    14   13   14 2
    15   13   22 1
    16   14   15 1
    17   14   21 1
    18   15   17 2
    19   15   18 1
    20   16   17 1
    21   16   20 2
    22   18   19 2
    23   19   20 1
    24   21   29 1
    25   22   23 1
    26   22   27 2
    27   23   24 2
    28   24   25 1
    29   25   26 2
    30   25   28 1
    31   26   27 1
    32   29   30 1
    33   30   31 1
    34    2   32 1
    35    3   33 1
    36    5   34 1
    37    6   35 1
    38    8   36 1
    39    8   37 1
    40    9   38 1
    41    9   39 1
    42   10   40 1
    43   11   41 1
    44   11   42 1
    45   11   43 1
    46   12   44 1
    47   12   45 1
    48   12   46 1
    49   16   47 1
    50   17   48 1
    51   18   49 1
    52   19   50 1
    53   20   51 1
    54   21   52 1
    55   21   53 1
    56   23   54 1
    57   24   55 1
    58   26   56 1
    59   27   57 1
    60   28   58 1
    61   29   59 1
    62   29   60 1
    63   30   61 1
    64   30   62 1
    65   31   63 1
@<TRIPOS>PROPERTY_DATA
  Total_Score	| 14.6059
  Crash		| -1.7004
  Polar		| 4.3566
  FragIndex	| 1
  FragRMSD	| 0.253

