@<TRIPOS>MOLECULE
BindingDB_50345226
 42 42 0 0 0
SMALL
NO_CHARGES


@<TRIPOS>ATOM
1    N        18.8323    9.5250   14.1644  N     
2    C        19.9813   10.0941   14.5597  C     
3    O        20.4161    9.8464   15.6714  O     
4    C        20.6652   10.9981   13.6322  C     
5    C        19.7775   12.2057   13.1485  C     
6    C        19.1769   13.1202   14.2515  C     
7    C        22.1390   11.3967   14.0196  C     
8    C        22.3743   12.2725   15.2791  C     
9    C        18.0918    8.5629   14.9073  C     
10   C        17.1121    7.7835   13.9864  C     
11   C        16.5511    6.5844   14.6635  C     
12   C        14.7323    5.4080   15.8138  C     
13   C        17.3899    5.4658   14.9018  C     
14   C        16.9164    4.3499   15.6084  C     
15   C        15.5856    4.3099   16.0673  C     
16   S        15.0455    2.9168   16.9550  S     
17   N        13.4117    2.7964   17.2898  N     
18   O        15.2767    1.6789   15.9783  O     
19   O        15.9463    2.6457   18.2374  O     
20   C        15.2150    6.5276   15.1120  C     
21   H        18.5381    9.7272   13.2646  H     
22   H        20.8221   10.3854   12.7359  H     
23   H        20.3468   12.8233   12.4537  H     
24   H        18.9348   11.8047   12.5668  H     
25   H        18.4788   12.5621   14.8723  H     
26   H        18.6433   13.9534   13.7874  H     
27   H        19.9513   13.5299   14.9003  H     
28   H        22.7201   10.4757   14.1298  H     
29   H        22.5857   11.9333   13.1725  H     
30   H        22.1717   13.3203   15.0629  H     
31   H        23.4310   12.2084   15.5750  H     
32   H        21.7702   11.9392   16.1219  H     
33   H        18.7930    7.8644   15.3715  H     
34   H        17.5325    9.0653   15.7033  H     
35   H        16.3247    8.4731   13.6663  H     
36   H        17.6333    7.4597   13.0825  H     
37   H        13.7647    5.4067   16.1462  H     
38   H        18.3600    5.4700   14.5778  H     
39   H        17.5553    3.5714   15.7935  H     
40   H        12.9693    1.9379   17.1781  H     
41   H        12.8746    3.6002   17.3667  H     
42   H        14.5839    7.3199   14.9567  H     
@<TRIPOS>BOND
     1    1    2 am
     2    1    9 1
     3    2    3 2
     4    2    4 1
     5    4    5 1
     6    4    7 1
     7    5    6 1
     8    7    8 1
     9    9   10 1
    10   10   11 1
    11   11   13 2
    12   11   20 1
    13   12   15 1
    14   12   20 2
    15   13   14 1
    16   14   15 2
    17   15   16 1
    18   16   17 am
    19   16   18 2
    20   16   19 2
    21    1   21 1
    22    4   22 1
    23    5   23 1
    24    5   24 1
    25    6   25 1
    26    6   26 1
    27    6   27 1
    28    7   28 1
    29    7   29 1
    30    8   30 1
    31    8   31 1
    32    8   32 1
    33    9   33 1
    34    9   34 1
    35   10   35 1
    36   10   36 1
    37   12   37 1
    38   13   38 1
    39   14   39 1
    40   17   40 1
    41   17   41 1
    42   20   42 1
@<TRIPOS>PROPERTY_DATA
  Total_Score	| 5.9099
  Crash		| -0.9571
  Polar		| 2.3941
  FragIndex	| 1
  FragRMSD	| 0.998

