@<TRIPOS>MOLECULE
BindingDB_35731
 37 38 0 0 0
SMALL
NO_CHARGES


@<TRIPOS>ATOM
1    C        20.2527   11.2459   15.2480  C     
2    C        20.1931    9.9051   14.6840  C     
3    O        21.2029    9.4499   14.1610  O     
4    N        19.0628    9.2103   14.7455  N     
5    C        18.8410    7.8656   14.2836  C     
6    C        19.8758   12.2777   14.2639  C     
7    C        18.7469   13.1082   14.3012  C     
8    C        18.6280   13.9905   13.2113  C     
9    C        19.6642   13.8990   12.2820  C     
10   S        20.7501   12.6887   12.8386  S     
11   C        17.3347    7.5712   13.9887  C     
12   C        16.7362    6.4184   14.7250  C     
13   C        14.8000    5.3593   15.8084  C     
14   C        15.3700    6.4382   15.1031  C     
15   C        17.4968    5.2691   15.0293  C     
16   C        16.9364    4.2048   15.7704  C     
17   C        15.5830    4.2443   16.1636  C     
18   N        13.2385    2.9093   17.1967  N     
19   S        14.9136    2.9290   17.0790  S     
20   O        15.2646    1.6198   16.2505  O     
21   O        15.6090    2.8024   18.5034  O     
22   H        19.5820   11.3092   16.1087  H     
23   H        21.2599   11.4539   15.6139  H     
24   H        18.3177    9.6399   15.1923  H     
25   H        19.4293    7.6595   13.3826  H     
26   H        19.1961    7.1892   15.0657  H     
27   H        18.0473   13.0678   15.0480  H     
28   H        17.8434   14.6366   13.1003  H     
29   H        19.7606   14.4421   11.4210  H     
30   H        16.7578    8.4791   14.1970  H     
31   H        17.2118    7.3772   12.9208  H     
32   H        13.8107    5.4063   16.0701  H     
33   H        14.7790    7.2378   14.8733  H     
34   H        18.4741    5.2077   14.7429  H     
35   H        17.5296    3.4080   16.0207  H     
36   H        12.7762    2.0575   17.1308  H     
37   H        12.7358    3.7316   17.1083  H     
@<TRIPOS>BOND
     1    1    2 1
     2    1    6 1
     3    2    3 2
     4    2    4 am
     5    4    5 1
     6    5   11 1
     7    6    7 2
     8    6   10 1
     9    7    8 1
    10    8    9 2
    11    9   10 1
    12   11   12 1
    13   12   14 2
    14   12   15 1
    15   13   14 1
    16   13   17 2
    17   15   16 2
    18   16   17 1
    19   17   19 1
    20   18   19 am
    21   19   20 2
    22   19   21 2
    23    1   22 1
    24    1   23 1
    25    4   24 1
    26    5   25 1
    27    5   26 1
    28    7   27 1
    29    8   28 1
    30    9   29 1
    31   11   30 1
    32   11   31 1
    33   13   32 1
    34   14   33 1
    35   15   34 1
    36   16   35 1
    37   18   36 1
    38   18   37 1
@<TRIPOS>PROPERTY_DATA
  Total_Score	| 5.2354
  Crash		| -1.4139
  Polar		| 2.0751
  FragIndex	| 1
  FragRMSD	| 1.205

