@<TRIPOS>MOLECULE
BindingDB_35735
 40 41 0 0 0
SMALL
NO_CHARGES


@<TRIPOS>ATOM
1    C        20.7902   10.8639   13.5446  C     
2    C        20.0283   10.0908   14.5061  C     
3    O        20.4664    9.9135   15.6377  O     
4    N        18.8909    9.5279   14.1149  N     
5    C        20.1119   12.1470   13.2515  C     
6    C        18.4425   13.4385   12.0021  C     
7    C        19.7160   14.5071   13.7812  C     
8    C        19.1288   12.2316   12.2369  C     
9    C        20.3972   13.2972   14.0195  C     
10   C        18.1415    8.5857   14.8705  C     
11   C        17.1534    7.8224   13.9544  C     
12   C        16.5832    6.6339   14.6427  C     
13   C        16.9252    4.4134   15.6178  C     
14   C        17.4134    5.5221   14.9168  C     
15   C        15.2427    6.6043   15.0991  C     
16   C        14.7443    5.4881   15.8001  C     
17   C        15.5900    4.3921   16.0611  C     
18   N        13.4747    3.0346   17.5338  N     
19   S        15.0273    2.9686   16.8877  S     
20   O        15.1279    1.7069   15.9289  O     
21   O        16.0312    2.7038   18.0921  O     
22   C        18.7301   14.5755   12.7778  C     
23   H        21.7959   11.0507   13.9267  H     
24   H        20.9199   10.2749   12.6337  H     
25   H        18.6009    9.6910   13.2029  H     
26   H        17.7237   13.4891   11.2771  H     
27   H        19.9241   15.3311   14.3525  H     
28   H        18.8974   11.4169   11.6661  H     
29   H        21.0997   13.2649   14.7646  H     
30   H        18.8304    7.8711   15.3375  H     
31   H        17.5891    9.1062   15.6645  H     
32   H        16.3654    8.5054   13.6243  H     
33   H        17.6706    7.4723   13.0579  H     
34   H        17.5597    3.6355   15.8180  H     
35   H        18.3800    5.5229   14.6013  H     
36   H        14.6116    7.3980   14.9250  H     
37   H        13.7749    5.4968   16.1286  H     
38   H        13.3007    2.6355   18.4103  H     
39   H        12.7837    3.5828   17.0984  H     
40   H        18.2235   15.4483   12.6235  H     
@<TRIPOS>BOND
     1    1    2 1
     2    1    5 1
     3    2    3 2
     4    2    4 am
     5    4   10 1
     6    5    8 1
     7    5    9 2
     8    6    8 2
     9    6   22 1
    10    7    9 1
    11    7   22 2
    12   10   11 1
    13   11   12 1
    14   12   14 2
    15   12   15 1
    16   13   14 1
    17   13   17 2
    18   15   16 2
    19   16   17 1
    20   17   19 1
    21   18   19 am
    22   19   20 2
    23   19   21 2
    24    1   23 1
    25    1   24 1
    26    4   25 1
    27    6   26 1
    28    7   27 1
    29    8   28 1
    30    9   29 1
    31   10   30 1
    32   10   31 1
    33   11   32 1
    34   11   33 1
    35   13   34 1
    36   14   35 1
    37   15   36 1
    38   16   37 1
    39   18   38 1
    40   18   39 1
    41   22   40 1
@<TRIPOS>PROPERTY_DATA
  Total_Score	| 5.0633
  Crash		| -1.4130
  Polar		| 2.7084
  FragIndex	| 1
  FragRMSD	| 0.910

