@<TRIPOS>MOLECULE
BindingDB_50339604
 32 32 0 0 0
SMALL
NO_CHARGES


@<TRIPOS>ATOM
1    C        18.6293   14.0529   12.8856  C     
2    C        18.3518   12.9043   12.1149  C     
3    C        19.0298   11.6981   12.3884  C     
4    C        19.9585   11.6089   13.4518  C     
5    C        20.2065   12.7646   14.2308  C     
6    C        19.5567   13.9770   13.9421  C     
7    C        20.6222   10.3144   13.7655  C     
8    C        19.8243    9.5183   14.6828  C     
9    O        18.0145   15.2314   12.6135  O     
10   O        20.2492    9.3145   15.8162  O     
11   Cl       17.2095   12.9377   10.8641  Cl    
12   N        18.6674    9.0089   14.2784  N     
13   C        17.8025    8.1674   15.0552  C     
14   C        16.6635    7.5938   14.1721  C     
15   C        15.4366    7.0625   14.9644  C     
16   C        15.3125    5.5221   15.0074  C     
17   H        18.8358   10.8737   11.8132  H     
18   H        20.8591   12.7265   15.0185  H     
19   H        19.7551   14.8031   14.5113  H     
20   H        20.7848    9.7425   12.8469  H     
21   H        21.6177   10.5064   14.1821  H     
22   H        18.7086   15.9198   12.6860  H     
23   H        18.3897    9.2115   13.3694  H     
24   H        18.3836    7.3405   15.4769  H     
25   H        17.3702    8.7587   15.8718  H     
26   H        16.3231    8.3845   13.5021  H     
27   H        17.0651    6.7849   13.5546  H     
28   H        15.4713    7.4383   15.9909  H     
29   H        14.5300    7.4510   14.4980  H     
30   H        15.2399    5.1145   13.9939  H     
31   H        14.4081    5.2433   15.5607  H     
32   H        16.1759    5.0793   15.5096  H     
@<TRIPOS>BOND
     1    1    2 2
     2    1    6 1
     3    1    9 1
     4    2    3 1
     5    2   11 1
     6    3    4 2
     7    4    5 1
     8    4    7 1
     9    5    6 2
    10    7    8 1
    11    8   10 2
    12    8   12 am
    13   12   13 1
    14   13   14 1
    15   14   15 1
    16   15   16 1
    17    3   17 1
    18    5   18 1
    19    6   19 1
    20    7   20 1
    21    7   21 1
    22    9   22 1
    23   12   23 1
    24   13   24 1
    25   13   25 1
    26   14   26 1
    27   14   27 1
    28   15   28 1
    29   15   29 1
    30   16   30 1
    31   16   31 1
    32   16   32 1
@<TRIPOS>PROPERTY_DATA
  Total_Score	| 2.1418
  Crash		| -0.6162
  Polar		| 0.0000
  FragIndex	| 1
  FragRMSD	| 0.462

