@<TRIPOS>MOLECULE
BindingDB_50339601
 41 42 0 0 0
SMALL
NO_CHARGES


@<TRIPOS>ATOM
1    C        18.6315   14.4049   12.6983  C     
2    C        18.3315   13.2245   11.9864  C     
3    C        19.0322   12.0311   12.2754  C     
4    C        20.0172   11.9957   13.2901  C     
5    C        20.3066   13.1866   13.9937  C     
6    C        19.6273   14.3802   13.6949  C     
7    C        20.7221   10.7370   13.6259  C     
8    C        19.9601    9.9551   14.5804  C     
9    O        17.9591   15.5593   12.4639  O     
10   O        20.4332    9.7391   15.6977  O     
11   Cl       17.1405   13.2037   10.7730  Cl    
12   N        18.8051    9.4106   14.1961  N     
13   C        18.0638    8.4538   14.9493  C     
14   C        17.1167    7.6645   14.0139  C     
15   C        16.5499    6.4874   14.7179  C     
16   C        15.1905    6.4409   15.1133  C     
17   C        14.6920    5.3454   15.8431  C     
18   C        15.5477    4.2738   16.1850  C     
19   C        16.9003    4.3058   15.7904  C     
20   C        17.3893    5.3941   15.0506  C     
21   S        14.9642    2.8897   17.0785  S     
22   N        13.2964    2.7768   17.2396  N     
23   O        15.3220    1.6300   16.1732  O     
24   O        15.7331    2.7145   18.4621  O     
25   H        18.8049   11.1796   11.7478  H     
26   H        21.0010   13.1922   14.7445  H     
27   H        19.8477   15.2326   14.2175  H     
28   H        20.8837   10.1337   12.7306  H     
29   H        21.7131   10.9619   14.0271  H     
30   H        18.6685   16.2548   12.4082  H     
31   H        18.5015    9.5928   13.2876  H     
32   H        18.7656    7.7671   15.4363  H     
33   H        17.4912    8.9828   15.7264  H     
34   H        16.3302    8.3325   13.6522  H     
35   H        17.6679    7.3035   13.1447  H     
36   H        14.5600    7.2161   14.8877  H     
37   H        13.7102    5.3439   16.1336  H     
38   H        17.5326    3.5422   16.0347  H     
39   H        18.3716    5.3936   14.7726  H     
40   H        12.8793    1.9030   17.1210  H     
41   H        12.7631    3.5840   17.3220  H     
@<TRIPOS>BOND
     1    1    2 2
     2    1    6 1
     3    1    9 1
     4    2    3 1
     5    2   11 1
     6    3    4 2
     7    4    5 1
     8    4    7 1
     9    5    6 2
    10    7    8 1
    11    8   10 2
    12    8   12 am
    13   12   13 1
    14   13   14 1
    15   14   15 1
    16   15   16 2
    17   15   20 1
    18   16   17 1
    19   17   18 2
    20   18   19 1
    21   18   21 1
    22   19   20 2
    23   21   22 am
    24   21   23 2
    25   21   24 2
    26    3   25 1
    27    5   26 1
    28    6   27 1
    29    7   28 1
    30    7   29 1
    31    9   30 1
    32   12   31 1
    33   13   32 1
    34   13   33 1
    35   14   34 1
    36   14   35 1
    37   16   36 1
    38   17   37 1
    39   19   38 1
    40   20   39 1
    41   22   40 1
    42   22   41 1
@<TRIPOS>PROPERTY_DATA
  Total_Score	| 4.9446
  Crash		| -1.3333
  Polar		| 2.0655
  FragIndex	| 1
  FragRMSD	| 0.807

