@<TRIPOS>MOLECULE
BindingDB_50339599
 40 41 0 0 0
SMALL
NO_CHARGES


@<TRIPOS>ATOM
1    C        18.6758   14.1742   12.8178  C     
2    C        18.3530   13.0233   12.0601  C     
3    C        18.9969   11.8005   12.3391  C     
4    C        19.9562   11.7020   13.3781  C     
5    C        20.2618   12.8597   14.1278  C     
6    C        19.6343   14.0871   13.8452  C     
7    C        20.6073   10.4049   13.7004  C     
8    C        19.8007    9.6236   14.6180  C     
9    O        18.0847   15.3719   12.5837  O     
10   O        20.2044    9.4394   15.7612  O     
11   Cl       17.2060   13.0880   10.8156  Cl    
12   N        18.6656    9.0826   14.1918  N     
13   C        17.8381    8.1910   14.9394  C     
14   C        16.7994    7.5077   14.0223  C     
15   C        16.0792    6.4054   14.7138  C     
16   C        16.4376    5.0612   14.4622  C     
17   C        15.7526    3.9979   15.0793  C     
18   C        14.6914    4.2708   15.9676  C     
19   C        14.3248    5.6104   16.2337  C     
20   C        15.0295    6.6683   15.6275  C     
21   O        16.0903    2.7212   14.7192  O     
22   C        16.5940    1.9118   15.7885  C     
23   H        18.7616   10.9723   11.7872  H     
24   H        20.9376   12.8202   14.8937  H     
25   H        19.8679   14.9153   14.3965  H     
26   H        20.7750    9.8283   12.7867  H     
27   H        21.6011   10.5876   14.1260  H     
28   H        17.1235   15.2144   12.7103  H     
29   H        18.4074    9.2608   13.2726  H     
30   H        18.4638    7.4217   15.4007  H     
31   H        17.3279    8.7482   15.7264  H     
32   H        16.0778    8.2433   13.6572  H     
33   H        17.3183    7.1154   13.1389  H     
34   H        17.1896    4.8411   13.8079  H     
35   H        14.1767    3.5014   16.4062  H     
36   H        13.5455    5.8077   16.8669  H     
37   H        14.7603    7.6332   15.8455  H     
38   H        17.4413    2.3779   16.2981  H     
39   H        16.9493    0.9654   15.3579  H     
40   H        15.7939    1.7061   16.5069  H     
@<TRIPOS>BOND
     1    1    2 2
     2    1    6 1
     3    1    9 1
     4    2    3 1
     5    2   11 1
     6    3    4 2
     7    4    5 1
     8    4    7 1
     9    5    6 2
    10    7    8 1
    11    8   10 2
    12    8   12 am
    13   12   13 1
    14   13   14 1
    15   14   15 1
    16   15   16 2
    17   15   20 1
    18   16   17 1
    19   17   18 2
    20   17   21 1
    21   18   19 1
    22   19   20 2
    23   21   22 1
    24    3   23 1
    25    5   24 1
    26    6   25 1
    27    7   26 1
    28    7   27 1
    29    9   28 1
    30   12   29 1
    31   13   30 1
    32   13   31 1
    33   14   32 1
    34   14   33 1
    35   16   34 1
    36   18   35 1
    37   19   36 1
    38   20   37 1
    39   22   38 1
    40   22   39 1
    41   22   40 1
@<TRIPOS>PROPERTY_DATA
  Total_Score	| 4.1453
  Crash		| -0.6016
  Polar		| 0.0000
  FragIndex	| 1
  FragRMSD	| 0.426

