@<TRIPOS>MOLECULE
BindingDB_50339598
 36 37 0 0 0
SMALL
NO_CHARGES


@<TRIPOS>ATOM
1    C        18.6637   14.1430   12.8198  C     
2    C        18.3613   12.9841   12.0729  C     
3    C        19.0264   11.7734   12.3619  C     
4    C        19.9747   11.7003   13.4098  C     
5    C        20.2555   12.8655   14.1595  C     
6    C        19.6189   14.0799   13.8548  C     
7    C        20.6252   10.4138   13.7613  C     
8    C        19.8107    9.6537   14.6908  C     
9    O        18.0619   15.3329   12.5665  O     
10   O        20.2334    9.4330   15.8192  O     
11   Cl       17.2181   13.0185   10.8236  Cl    
12   N        18.6442    9.1669   14.2833  N     
13   C        17.8194    8.2631   15.0224  C     
14   C        16.7784    7.5852   14.0993  C     
15   C        16.0210    6.4990   14.7814  C     
16   C        15.1880    6.7759   15.8934  C     
17   C        14.4724    5.7426   16.5335  C     
18   C        14.5761    4.4167   16.0693  C     
19   C        15.3988    4.1305   14.9658  C     
20   C        16.1125    5.1632   14.3284  C     
21   H        18.8038   10.9366   11.8173  H     
22   H        20.9177   12.8316   14.9383  H     
23   H        19.8470   14.9150   14.3996  H     
24   H        20.7975    9.8109   12.8648  H     
25   H        21.6140   10.6040   14.1865  H     
26   H        17.1213   15.2037   12.8167  H     
27   H        18.3673    9.3719   13.3753  H     
28   H        18.4589    7.4921   15.4549  H     
29   H        17.3102    8.8022   15.8299  H     
30   H        16.0751    8.3304   13.7098  H     
31   H        17.3116    7.1777   13.2361  H     
32   H        15.0933    7.7305   16.2453  H     
33   H        13.8638    5.9535   17.3250  H     
34   H        14.0538    3.6705   16.5266  H     
35   H        15.4774    3.1710   14.6257  H     
36   H        16.7076    4.9247   13.5303  H     
@<TRIPOS>BOND
     1    1    2 2
     2    1    6 1
     3    1    9 1
     4    2    3 1
     5    2   11 1
     6    3    4 2
     7    4    5 1
     8    4    7 1
     9    5    6 2
    10    7    8 1
    11    8   10 2
    12    8   12 am
    13   12   13 1
    14   13   14 1
    15   14   15 1
    16   15   16 2
    17   15   20 1
    18   16   17 1
    19   17   18 2
    20   18   19 1
    21   19   20 2
    22    3   21 1
    23    5   22 1
    24    6   23 1
    25    7   24 1
    26    7   25 1
    27    9   26 1
    28   12   27 1
    29   13   28 1
    30   13   29 1
    31   14   30 1
    32   14   31 1
    33   16   32 1
    34   17   33 1
    35   18   34 1
    36   19   35 1
    37   20   36 1
@<TRIPOS>PROPERTY_DATA
  Total_Score	| 3.1268
  Crash		| -0.7077
  Polar		| 0.0000
  FragIndex	| 1
  FragRMSD	| 0.552

