@<TRIPOS>MOLECULE
BindingDB_35741
 39 40 0 0 0
SMALL
NO_CHARGES


@<TRIPOS>ATOM
1    C        20.7260   10.7238   13.6286  C     
2    C        19.9546    9.9384   14.5730  C     
3    O        20.4140    9.7108   15.6860  O     
4    N        18.7923    9.4220   14.1900  N     
5    C        20.0673   12.0240   13.3676  C     
6    C        18.4495   13.3903   12.1620  C     
7    C        19.7368   14.3798   13.9009  C     
8    C        19.0821   12.1499   12.3613  C     
9    C        20.3907   13.1587   14.1464  C     
10   N        18.7935   14.4597   12.9291  N     
11   C        18.0016    8.5021   14.9456  C     
12   C        17.0756    7.6783   14.0174  C     
13   C        16.5325    6.4951   14.7315  C     
14   C        14.6958    5.3191   15.8468  C     
15   C        15.1861    6.4375   15.1446  C     
16   C        17.3839    5.4110   15.0494  C     
17   C        16.9001    4.2963   15.7527  C     
18   C        15.5507    4.2373   16.1423  C     
19   N        13.3417    2.7253   17.2188  N     
20   S        15.0070    2.8342   17.0224  S     
21   O        15.3531    1.5751   16.1166  O     
22   O        15.7742    2.6952   18.4090  O     
23   H        21.7401   10.8820   14.0130  H     
24   H        20.8429   10.1552   12.7015  H     
25   H        18.4981    9.6165   13.2813  H     
26   H        17.7281   13.4973   11.4448  H     
27   H        19.9588   15.2072   14.4569  H     
28   H        18.8166   11.3530   11.7808  H     
29   H        21.0904   13.1062   14.8921  H     
30   H        18.6686    7.8236   15.4901  H     
31   H        17.4047    9.0642   15.6789  H     
32   H        16.2797    8.3314   13.6539  H     
33   H        17.6368    7.3393   13.1476  H     
34   H        13.7222    5.3006   16.1522  H     
35   H        14.5616    7.2215   14.9574  H     
36   H        18.3726    5.4324   14.7825  H     
37   H        17.5480    3.5344   15.9783  H     
38   H        12.9344    1.8525   17.3976  H     
39   H        12.7797    3.5063   17.1073  H     
@<TRIPOS>BOND
     1    1    2 1
     2    1    5 1
     3    2    3 2
     4    2    4 am
     5    4   11 1
     6    5    8 1
     7    5    9 2
     8    6    8 2
     9    6   10 1
    10    7    9 1
    11    7   10 2
    12   11   12 1
    13   12   13 1
    14   13   15 2
    15   13   16 1
    16   14   15 1
    17   14   18 2
    18   16   17 2
    19   17   18 1
    20   18   20 1
    21   19   20 am
    22   20   21 2
    23   20   22 2
    24    1   23 1
    25    1   24 1
    26    4   25 1
    27    6   26 1
    28    7   27 1
    29    8   28 1
    30    9   29 1
    31   11   30 1
    32   11   31 1
    33   12   32 1
    34   12   33 1
    35   14   34 1
    36   15   35 1
    37   16   36 1
    38   17   37 1
    39   19   38 1
    40   19   39 1
@<TRIPOS>PROPERTY_DATA
  Total_Score	| 4.8297
  Crash		| -1.1786
  Polar		| 1.9407
  FragIndex	| 1
  FragRMSD	| 0.869

