@<TRIPOS>MOLECULE
BindingDB_50339600
 44 45 0 0 0
SMALL
NO_CHARGES


@<TRIPOS>ATOM
1    C        18.6407   14.0253   12.9344  C     
2    C        18.3232   12.8985   12.1443  C     
3    C        18.9503   11.6641   12.4085  C     
4    C        19.8701   11.5350   13.4730  C     
5    C        20.1338   12.6562   14.2911  C     
6    C        19.5270   13.8957   14.0173  C     
7    C        20.5282   10.2356   13.7642  C     
8    C        19.7237    9.4565   14.6812  C     
9    O        18.1118   15.2429   12.6525  O     
10   O        20.1572    9.2403   15.8049  O     
11   Cl       17.2073   13.0038   10.8753  Cl    
12   N        18.5623    8.9523   14.2815  N     
13   C        17.7904    7.9876   15.0041  C     
14   C        16.7542    7.2835   14.0888  C     
15   C        16.2713    5.9964   14.6605  C     
16   C        17.0250    4.8199   14.4401  C     
17   C        16.5653    3.5639   14.8826  C     
18   C        15.3749    3.4741   15.6384  C     
19   C        14.6317    4.6504   15.8943  C     
20   C        15.0657    5.8978   15.3949  C     
21   O        17.2727    2.4335   14.5934  O     
22   C        17.1899    2.0464   13.2086  C     
23   O        14.9470    2.2322   16.0424  O     
24   C        14.9592    2.0425   17.4633  C     
25   H        18.7283   10.8529   11.8236  H     
26   H        20.7797   12.5819   15.0810  H     
27   H        19.7408   14.6984   14.6118  H     
28   H        20.6879    9.6582   12.8503  H     
29   H        21.5234   10.4239   14.1801  H     
30   H        18.8704   15.8699   12.7256  H     
31   H        18.2497    9.1988   13.3935  H     
32   H        18.4828    7.2433   15.4119  H     
33   H        17.2716    8.4726   15.8328  H     
34   H        15.9233    7.9616   13.8977  H     
35   H        17.2025    7.0688   13.1116  H     
36   H        17.8988    4.8704   13.9148  H     
37   H        13.7609    4.5901   16.4275  H     
38   H        14.4990    6.7283   15.5792  H     
39   H        16.1525    1.8525   12.9040  H     
40   H        17.7566    1.1222   13.0714  H     
41   H        17.6191    2.8062   12.5528  H     
42   H        15.9380    2.2550   17.8938  H     
43   H        14.7264    0.9927   17.6635  H     
44   H        14.1987    2.6564   17.9477  H     
@<TRIPOS>BOND
     1    1    2 2
     2    1    6 1
     3    1    9 1
     4    2    3 1
     5    2   11 1
     6    3    4 2
     7    4    5 1
     8    4    7 1
     9    5    6 2
    10    7    8 1
    11    8   10 2
    12    8   12 am
    13   12   13 1
    14   13   14 1
    15   14   15 1
    16   15   16 2
    17   15   20 1
    18   16   17 1
    19   17   18 2
    20   17   21 1
    21   18   19 1
    22   18   23 1
    23   19   20 2
    24   21   22 1
    25   23   24 1
    26    3   25 1
    27    5   26 1
    28    6   27 1
    29    7   28 1
    30    7   29 1
    31    9   30 1
    32   12   31 1
    33   13   32 1
    34   13   33 1
    35   14   34 1
    36   14   35 1
    37   16   36 1
    38   19   37 1
    39   20   38 1
    40   22   39 1
    41   22   40 1
    42   22   41 1
    43   24   42 1
    44   24   43 1
    45   24   44 1
@<TRIPOS>PROPERTY_DATA
  Total_Score	| 5.2787
  Crash		| -1.0655
  Polar		| 1.8820
  FragIndex	| 1
  FragRMSD	| 0.485

