@<TRIPOS>MOLECULE
BindingDB_11047
 34 34 0 0 0
SMALL
NO_CHARGES


@<TRIPOS>ATOM
1    C        14.6796    5.3646   15.8279  C     
2    C        15.5336    4.2739   16.0975  C     
3    C        16.8724    4.3200   15.6651  C     
4    C        17.3458    5.4320   14.9529  C     
5    C        16.5006    6.5308   14.6764  C     
6    C        15.1624    6.4844   15.1213  C     
7    N        13.3468    2.7454   17.2395  N     
8    S        14.9977    2.8808   16.9932  S     
9    O        15.3293    1.6406   16.0609  O     
10   O        15.8321    2.6996   18.3375  O     
11   C        17.0557    7.7180   13.9771  C     
12   C        17.9846    8.5285   14.9125  C     
13   N        18.8335    9.4193   14.1845  N     
14   C        19.9582    9.9556   14.6448  C     
15   O        20.3437    9.7442   15.7865  O     
16   C        20.7667   10.7774   13.7635  C     
17   C        19.9922   11.9258   13.0669  C     
18   S        19.0728   12.9839   14.2065  S     
19   H        13.7075    5.3514   16.1562  H     
20   H        17.5152    3.5520   15.8709  H     
21   H        18.3249    5.4401   14.6571  H     
22   H        14.5355    7.2776   14.9530  H     
23   H        12.9342    1.8616   17.2008  H     
24   H        12.7934    3.5336   17.2883  H     
25   H        17.6168    7.3846   13.1002  H     
26   H        16.2613    8.3735   13.6141  H     
27   H        17.3870    9.0975   15.6300  H     
28   H        18.6297    7.8372   15.4804  H     
29   H        18.6093    9.5846   13.2537  H     
30   H        21.6073   11.2100   14.3157  H     
31   H        21.1982   10.1283   13.0007  H     
32   H        20.7028   12.5497   12.5228  H     
33   H        19.2936   11.5140   12.3442  H     
34   H        20.1726   13.3091   14.9386  H     
@<TRIPOS>BOND
     1    1    2 2
     2    1    6 1
     3    2    3 1
     4    2    8 1
     5    3    4 2
     6    4    5 1
     7    5    6 2
     8    5   11 1
     9    7    8 am
    10    8    9 2
    11    8   10 2
    12   11   12 1
    13   12   13 1
    14   13   14 am
    15   14   15 2
    16   14   16 1
    17   16   17 1
    18   17   18 1
    19    1   19 1
    20    3   20 1
    21    4   21 1
    22    6   22 1
    23    7   23 1
    24    7   24 1
    25   11   25 1
    26   11   26 1
    27   12   27 1
    28   12   28 1
    29   13   29 1
    30   16   30 1
    31   16   31 1
    32   17   32 1
    33   17   33 1
    34   18   34 1
@<TRIPOS>PROPERTY_DATA
  Total_Score	| 4.6498
  Crash		| -1.1280
  Polar		| 2.1170
  FragIndex	| 1
  FragRMSD	| 0.957

