@<TRIPOS>MOLECULE
BindingDB_17975
 52 54 0 0 0
SMALL
NO_CHARGES


@<TRIPOS>ATOM
1    C        27.5318  108.1839  131.4488  C     
2    C        27.3904  106.1300  130.2966  C     
3    C        26.3551  106.6399  129.4658  C     
4    C        25.9446  107.9854  129.6830  C     
5    N        26.5491  108.7043  130.6703  N     
6    N        27.9397  106.9100  131.2563  N     
7    N        28.0232  108.9060  132.4647  N     
8    N        27.8244  104.8568  130.2165  N     
9    C        24.8332  108.6644  128.9588  C     
10   C        23.5369  108.7453  129.8064  C     
11   C        25.6277  105.7654  128.6238  C     
12   C        24.4280  105.2037  129.1089  C     
13   C        26.0738  105.4411  127.3268  C     
14   C        25.3187  104.5602  126.5303  C     
15   C        23.6572  104.2959  128.3346  C     
16   C        24.1293  103.9981  127.0255  C     
17   C        21.9843  103.2223  126.3898  C     
18   C        21.6050  103.2128  127.8116  C     
19   O        23.4179  103.1417  126.2241  O     
20   N        22.4329  103.7435  128.7417  N     
21   C        21.9986  103.8334  130.1379  C     
22   C        21.3562  105.2218  130.4331  C     
23   C        21.4112  105.6123  131.9288  C     
24   O        20.8363  106.9293  132.0850  O     
25   C        20.5866  107.3046  133.4594  C     
26   C        21.3769  102.0713  125.5427  C     
27   O        20.4642  102.8566  128.0957  O     
28   H        28.6010  108.4897  133.1244  H     
29   H        27.7026  109.8069  132.6237  H     
30   H        28.5174  104.5389  130.8237  H     
31   H        27.4347  104.2457  129.5653  H     
32   H        25.1644  109.6844  128.7061  H     
33   H        24.6045  108.1557  128.0071  H     
34   H        23.1391  107.7433  129.9747  H     
35   H        22.7876  109.3293  129.2574  H     
36   H        23.7277  109.2269  130.7766  H     
37   H        24.1063  105.4935  130.0372  H     
38   H        26.9330  105.8624  126.9502  H     
39   H        25.6296  104.3387  125.5844  H     
40   H        21.6385  104.1726  125.9635  H     
41   H        21.2839  103.0383  130.3931  H     
42   H        22.8466  103.6542  130.8100  H     
43   H        21.8828  106.0007  129.8665  H     
44   H        20.3141  105.2203  130.0946  H     
45   H        20.8700  104.8620  132.5163  H     
46   H        22.4582  105.6128  132.2551  H     
47   H        19.7841  106.6916  133.8970  H     
48   H        20.2564  108.3510  133.4651  H     
49   H        21.4865  107.2290  134.0792  H     
50   H        21.7198  101.1052  125.9271  H     
51   H        21.6924  102.1651  124.5005  H     
52   H        20.2872  102.1038  125.5735  H     
@<TRIPOS>BOND
     1    1    5 2
     2    1    6 1
     3    1    7 1
     4    2    3 1
     5    2    6 2
     6    2    8 1
     7    3    4 2
     8    3   11 1
     9    4    5 1
    10    4    9 1
    11    9   10 1
    12   11   12 1
    13   11   13 2
    14   12   15 2
    15   13   14 1
    16   14   16 2
    17   15   16 1
    18   15   20 1
    19   16   19 1
    20   17   18 1
    21   17   19 1
    22   17   26 1
    23   18   20 1
    24   18   27 2
    25   20   21 1
    26   21   22 1
    27   22   23 1
    28   23   24 1
    29   24   25 1
    30    7   28 1
    31    7   29 1
    32    8   30 1
    33    8   31 1
    34    9   32 1
    35    9   33 1
    36   10   34 1
    37   10   35 1
    38   10   36 1
    39   12   37 1
    40   13   38 1
    41   14   39 1
    42   17   40 1
    43   21   41 1
    44   21   42 1
    45   22   43 1
    46   22   44 1
    47   23   45 1
    48   23   46 1
    49   25   47 1
    50   25   48 1
    51   25   49 1
    52   26   50 1
    53   26   51 1
    54   26   52 1
@<TRIPOS>PROPERTY_DATA
  Total_Score	| 11.6723
  Crash		| -1.0117
  Polar		| 4.6595
  FragIndex	| 1
  FragRMSD	| 0.530

