@<TRIPOS>MOLECULE
BindingDB_17976
 58 60 0 0 0
SMALL
NO_CHARGES


@<TRIPOS>ATOM
1    C        27.8488  108.3580  130.9734  C     
2    C        27.3497  106.1889  130.1440  C     
3    C        26.2153  106.6900  129.4436  C     
4    C        25.9536  108.0888  129.5522  C     
5    N        26.7805  108.8557  130.3112  N     
6    N        28.1199  107.0333  130.8816  N     
7    N        28.6074  109.1959  131.6966  N     
8    N        27.7334  104.8965  130.1243  N     
9    C        24.8244  108.8064  128.9008  C     
10   C        23.5189  108.7363  129.7344  C     
11   C        25.3704  105.8183  128.6931  C     
12   C        24.2206  105.2512  129.2904  C     
13   C        25.6710  105.4900  127.3535  C     
14   C        24.8455  104.6033  126.6409  C     
15   C        23.3587  104.3583  128.5893  C     
16   C        23.7176  104.0353  127.2575  C     
17   C        22.2240  102.1681  127.2413  C     
18   C        21.6521  102.6993  128.4919  C     
19   O        22.9195  103.2048  126.5172  O     
20   N        22.1998  103.7599  129.1261  N     
21   C        21.6228  104.2492  130.3858  C     
22   C        21.1140  105.7272  130.3417  C     
23   C        21.3118  106.5234  131.6671  C     
24   O        20.0529  106.9782  132.2218  O     
25   C        20.1568  107.5141  133.5576  C     
26   O        20.7516  102.0426  129.0037  O     
27   C        21.2111  101.5558  126.2225  C     
28   C        20.4125  100.2859  126.6481  C     
29   C        21.2001   98.9571  126.6462  C     
30   H        29.3717  108.8708  132.1970  H     
31   H        28.3749  110.1364  131.7233  H     
32   H        28.5118  104.6153  130.6365  H     
33   H        27.2594  104.2426  129.5879  H     
34   H        25.0835  109.8685  128.7742  H     
35   H        24.6481  108.4023  127.9000  H     
36   H        23.1716  107.7039  129.8610  H     
37   H        22.7358  109.2913  129.2114  H     
38   H        23.6613  109.1699  130.7279  H     
39   H        24.0204  105.4985  130.2617  H     
40   H        26.4856  105.9056  126.8892  H     
41   H        25.0668  104.3836  125.6702  H     
42   H        22.9606  101.3989  127.4984  H     
43   H        20.7746  103.6539  130.7356  H     
44   H        22.3715  104.1161  131.1684  H     
45   H        21.6074  106.2706  129.5324  H     
46   H        20.0492  105.7081  130.0897  H     
47   H        21.8225  105.8901  132.4024  H     
48   H        21.9563  107.3930  131.4380  H     
49   H        20.5177  106.7574  134.2628  H     
50   H        19.1647  107.8297  133.8751  H     
51   H        20.8215  108.3818  133.5902  H     
52   H        20.4877  102.3377  125.9629  H     
53   H        21.7454  101.3037  125.2940  H     
54   H        19.9887  100.4246  127.6457  H     
55   H        19.5720  100.1750  125.9648  H     
56   H        21.5517   98.7127  125.6383  H     
57   H        20.5418   98.1508  126.9832  H     
58   H        22.0555   99.0065  127.3235  H     
@<TRIPOS>BOND
     1    1    5 2
     2    1    6 1
     3    1    7 1
     4    2    3 1
     5    2    6 2
     6    2    8 1
     7    3    4 2
     8    3   11 1
     9    4    5 1
    10    4    9 1
    11    9   10 1
    12   11   12 1
    13   11   13 2
    14   12   15 2
    15   13   14 1
    16   14   16 2
    17   15   16 1
    18   15   20 1
    19   16   19 1
    20   17   18 1
    21   17   19 1
    22   17   27 1
    23   18   20 1
    24   18   26 2
    25   20   21 1
    26   21   22 1
    27   22   23 1
    28   23   24 1
    29   24   25 1
    30   27   28 1
    31   28   29 1
    32    7   30 1
    33    7   31 1
    34    8   32 1
    35    8   33 1
    36    9   34 1
    37    9   35 1
    38   10   36 1
    39   10   37 1
    40   10   38 1
    41   12   39 1
    42   13   40 1
    43   14   41 1
    44   17   42 1
    45   21   43 1
    46   21   44 1
    47   22   45 1
    48   22   46 1
    49   23   47 1
    50   23   48 1
    51   25   49 1
    52   25   50 1
    53   25   51 1
    54   27   52 1
    55   27   53 1
    56   28   54 1
    57   28   55 1
    58   29   56 1
    59   29   57 1
    60   29   58 1
@<TRIPOS>PROPERTY_DATA
  Total_Score	| 11.2155
  Crash		| -1.5489
  Polar		| 4.3321
  FragIndex	| 1
  FragRMSD	| 0.508

