@<TRIPOS>MOLECULE
BindingDB_17973
 52 54 0 0 0
SMALL
NO_CHARGES


@<TRIPOS>ATOM
1    C        27.7673  108.3435  131.0190  C     
2    C        27.4608  106.1786  130.0986  C     
3    C        26.3051  106.6158  129.4058  C     
4    C        25.9032  107.9758  129.5784  C     
5    N        26.6664  108.7776  130.3657  N     
6    N        28.1527  107.0489  130.8767  N     
7    N        28.4475  109.1979  131.8009  N     
8    N        27.9412  104.9229  130.0243  N     
9    C        24.7280  108.6240  128.9347  C     
10   C        23.4999  108.7466  129.8801  C     
11   C        25.5439  105.7144  128.6300  C     
12   C        24.3742  105.1346  129.1731  C     
13   C        25.9324  105.4019  127.3128  C     
14   C        25.1306  104.5551  126.5276  C     
15   C        23.4908  104.3663  128.3665  C     
16   C        23.9124  104.0608  127.0375  C     
17   C        21.7698  103.1813  126.5181  C     
18   C        21.4736  103.1904  127.9545  C     
19   O        23.1907  103.1784  126.2659  O     
20   N        22.2459  103.8868  128.8119  N     
21   C        21.8079  104.1330  130.1888  C     
22   C        21.1537  105.5387  130.3976  C     
23   C        21.2608  105.9941  131.8904  C     
24   O        20.0680  106.7062  132.3037  O     
25   C        20.1821  107.4503  133.5387  C     
26   C        21.1903  101.9888  125.7159  C     
27   O        20.4098  102.6834  128.2928  O     
28   H        29.2357  108.9098  132.2859  H     
29   H        28.1258  110.1090  131.8932  H     
30   H        28.7358  104.6840  130.5235  H     
31   H        27.5111  104.2625  129.4644  H     
32   H        25.0237  109.6321  128.6149  H     
33   H        24.4006  108.0786  128.0484  H     
34   H        23.3087  107.7996  130.3958  H     
35   H        22.6054  109.0060  129.3008  H     
36   H        23.6684  109.5319  130.6273  H     
37   H        24.0771  105.3650  130.1589  H     
38   H        26.8062  105.7800  126.9114  H     
39   H        25.4305  104.3092  125.5723  H     
40   H        21.3546  104.0995  126.0880  H     
41   H        21.1188  103.3844  130.5851  H     
42   H        22.7033  104.0415  130.8109  H     
43   H        21.7004  106.2791  129.7278  H     
44   H        20.1001  105.4994  130.1056  H     
45   H        21.4157  105.1133  132.5342  H     
46   H        22.1312  106.6577  132.0085  H     
47   H        20.4875  106.7993  134.3619  H     
48   H        19.2029  107.8471  133.7810  H     
49   H        20.8961  108.2712  133.4439  H     
50   H        21.5955  101.0447  126.0859  H     
51   H        21.4335  102.0788  124.6495  H     
52   H        20.1044  101.9623  125.8069  H     
@<TRIPOS>BOND
     1    1    5 2
     2    1    6 1
     3    1    7 1
     4    2    3 1
     5    2    6 2
     6    2    8 1
     7    3    4 2
     8    3   11 1
     9    4    5 1
    10    4    9 1
    11    9   10 1
    12   11   12 1
    13   11   13 2
    14   12   15 2
    15   13   14 1
    16   14   16 2
    17   15   16 1
    18   15   20 1
    19   16   19 1
    20   17   18 1
    21   17   19 1
    22   17   26 1
    23   18   20 1
    24   18   27 2
    25   20   21 1
    26   21   22 1
    27   22   23 1
    28   23   24 1
    29   24   25 1
    30    7   28 1
    31    7   29 1
    32    8   30 1
    33    8   31 1
    34    9   32 1
    35    9   33 1
    36   10   34 1
    37   10   35 1
    38   10   36 1
    39   12   37 1
    40   13   38 1
    41   14   39 1
    42   17   40 1
    43   21   41 1
    44   21   42 1
    45   22   43 1
    46   22   44 1
    47   23   45 1
    48   23   46 1
    49   25   47 1
    50   25   48 1
    51   25   49 1
    52   26   50 1
    53   26   51 1
    54   26   52 1
@<TRIPOS>PROPERTY_DATA
  Total_Score	| 11.6311
  Crash		| -1.1367
  Polar		| 4.6016
  FragIndex	| 1
  FragRMSD	| 0.337

