@<TRIPOS>MOLECULE
BindingDB_17970
 53 55 0 0 0
SMALL
NO_CHARGES


@<TRIPOS>ATOM
1    C        27.5161  108.1770  131.4717  C     
2    C        27.3225  106.1029  130.3467  C     
3    C        26.2884  106.6206  129.5242  C     
4    C        25.9278  107.9834  129.7069  C     
5    N        26.5500  108.6978  130.6818  N     
6    N        27.8935  106.8884  131.2908  N     
7    N        28.0320  108.9185  132.4636  N     
8    N        27.7721  104.8344  130.2593  N     
9    C        24.8430  108.6930  128.9743  C     
10   C        23.5558  108.8149  129.8245  C     
11   C        25.5469  105.7612  128.6800  C     
12   C        24.3552  105.1734  129.1598  C     
13   C        25.9552  105.5121  127.3594  C     
14   C        25.1871  104.6703  126.5384  C     
15   C        23.5433  104.3339  128.3526  C     
16   C        23.9974  104.0892  127.0224  C     
17   C        21.9332  103.1098  126.3812  C     
18   C        21.6206  102.8678  127.8859  C     
19   O        23.3543  103.2143  126.1817  O     
20   N        22.3574  103.7562  128.7712  N     
21   C        21.8314  103.9086  130.1188  C     
22   C        21.2624  105.3334  130.3805  C     
23   C        21.2485  105.7277  131.8783  C     
24   O        20.6010  107.0126  132.0370  O     
25   C        20.3696  107.3934  133.4030  C     
26   C        21.3895  101.9720  125.4794  C     
27   H        28.6240  108.5194  133.1215  H     
28   H        27.7084  109.8275  132.5817  H     
29   H        28.4806  104.5270  130.8428  H     
30   H        27.4048  104.2300  129.5971  H     
31   H        25.1936  109.6965  128.7099  H     
32   H        24.5964  108.1921  128.0334  H     
33   H        23.1939  107.8265  130.1139  H     
34   H        22.7795  109.3190  129.2445  H     
35   H        23.7401  109.3917  130.7343  H     
36   H        24.0926  105.3576  130.1267  H     
37   H        26.8160  105.9301  126.9925  H     
38   H        25.5003  104.4719  125.5824  H     
39   H        21.4619  104.0536  126.0713  H     
40   H        20.5437  103.0094  128.0279  H     
41   H        21.8742  101.8357  128.1557  H     
42   H        21.0239  103.1953  130.3309  H     
43   H        22.6204  103.6684  130.8335  H     
44   H        21.8591  106.0722  129.8468  H     
45   H        20.2455  105.3890  129.9763  H     
46   H        20.6984  104.9581  132.4351  H     
47   H        22.2782  105.7797  132.2664  H     
48   H        19.6637  106.7239  133.8945  H     
49   H        19.9459  108.3950  133.4004  H     
50   H        21.3098  107.4252  133.9726  H     
51   H        21.8773  101.0198  125.7151  H     
52   H        21.5839  102.2127  124.4291  H     
53   H        20.3068  101.8630  125.6216  H     
@<TRIPOS>BOND
     1    1    5 2
     2    1    6 1
     3    1    7 1
     4    2    3 1
     5    2    6 2
     6    2    8 1
     7    3    4 2
     8    3   11 1
     9    4    5 1
    10    4    9 1
    11    9   10 1
    12   11   12 1
    13   11   13 2
    14   12   15 2
    15   13   14 1
    16   14   16 2
    17   15   16 1
    18   15   20 1
    19   16   19 1
    20   17   18 1
    21   17   19 1
    22   17   26 1
    23   18   20 1
    24   20   21 1
    25   21   22 1
    26   22   23 1
    27   23   24 1
    28   24   25 1
    29    7   27 1
    30    7   28 1
    31    8   29 1
    32    8   30 1
    33    9   31 1
    34    9   32 1
    35   10   33 1
    36   10   34 1
    37   10   35 1
    38   12   36 1
    39   13   37 1
    40   14   38 1
    41   17   39 1
    42   18   40 1
    43   18   41 1
    44   21   42 1
    45   21   43 1
    46   22   44 1
    47   22   45 1
    48   23   46 1
    49   23   47 1
    50   25   48 1
    51   25   49 1
    52   25   50 1
    53   26   51 1
    54   26   52 1
    55   26   53 1
@<TRIPOS>PROPERTY_DATA
  Total_Score	| 11.8748
  Crash		| -0.8026
  Polar		| 4.6078
  FragIndex	| 1
  FragRMSD	| 0.680

