@<TRIPOS>MOLECULE
BindingDB_17985
 58 60 0 0 0
SMALL
NO_CHARGES


@<TRIPOS>ATOM
1    C        27.7804  108.3572  131.0860  C     
2    C        27.4096  106.2252  130.1233  C     
3    C        26.2920  106.7244  129.4022  C     
4    C        25.9790  108.1037  129.5599  C     
5    N        26.7279  108.8573  130.4006  N     
6    N        28.1174  107.0541  130.9371  N     
7    N        28.4779  109.1599  131.9048  N     
8    N        27.8332  104.9494  130.0391  N     
9    C        24.8548  108.8144  128.8845  C     
10   C        23.5288  108.7079  129.6821  C     
11   C        25.4795  105.8571  128.6236  C     
12   C        24.3182  105.2918  129.1973  C     
13   C        25.7967  105.5788  127.2805  C     
14   C        24.9531  104.7434  126.5244  C     
15   C        23.4421  104.4482  128.4572  C     
16   C        23.7982  104.1861  127.1048  C     
17   O        23.0043  103.4034  126.3123  O     
18   N        22.2951  103.8310  128.9935  N     
19   C        21.7653  104.2474  130.2956  C     
20   C        21.2113  105.7075  130.2824  C     
21   C        20.2368  107.4031  133.5333  C     
22   C        20.9864  102.2174  126.0050  C     
23   C        21.7259  102.8145  128.3144  C     
24   O        20.8015  102.1696  128.8028  O     
25   C        21.4105  106.4719  131.6300  C     
26   O        20.1401  106.8525  132.2065  O     
27   C        22.2023  102.3880  126.9739  C     
28   C        22.9959  101.0415  127.0632  C     
29   C        24.5429  101.1550  127.1706  C     
30   H        29.2361  108.8131  132.4129  H     
31   H        28.2101  110.0922  132.0044  H     
32   H        28.6032  104.6621  130.5557  H     
33   H        27.3946  104.3180  129.4473  H     
34   H        25.1119  109.8754  128.7884  H     
35   H        24.7095  108.4216  127.8703  H     
36   H        23.2075  107.6603  129.7547  H     
37   H        22.7507  109.2833  129.1553  H     
38   H        23.6531  109.1268  130.6932  H     
39   H        24.1262  105.5065  130.1726  H     
40   H        26.6338  105.9833  126.8431  H     
41   H        25.1870  104.5440  125.5398  H     
42   H        20.9467  103.6111  130.6595  H     
43   H        22.5518  104.1353  131.0506  H     
44   H        21.7036  106.2780  129.4855  H     
45   H        20.1453  105.6851  130.0209  H     
46   H        20.7545  106.7245  134.2162  H     
47   H        19.2229  107.5562  133.9022  H     
48   H        20.7528  108.3647  133.5087  H     
49   H        20.3847  103.1244  125.9917  H     
50   H        20.3459  101.3840  126.3062  H     
51   H        21.3279  102.0217  124.9864  H     
52   H        21.9547  105.8455  132.3584  H     
53   H        22.0163  107.3706  131.4355  H     
54   H        22.6463  100.4608  127.9294  H     
55   H        22.7792  100.4366  126.1760  H     
56   H        24.9607  101.5491  126.2387  H     
57   H        24.9741  100.1693  127.3484  H     
58   H        24.8171  101.8120  127.9979  H     
@<TRIPOS>BOND
     1    1    5 2
     2    1    6 1
     3    1    7 1
     4    2    3 1
     5    2    6 2
     6    2    8 1
     7    3    4 2
     8    3   11 1
     9    4    5 1
    10    4    9 1
    11    9   10 1
    12   11   12 1
    13   11   13 2
    14   12   15 2
    15   13   14 1
    16   14   16 2
    17   15   16 1
    18   15   18 1
    19   16   17 1
    20   17   27 1
    21   18   19 1
    22   18   23 1
    23   19   20 1
    24   20   25 1
    25   21   26 1
    26   22   27 1
    27   23   24 2
    28   23   27 1
    29   25   26 1
    30   27   28 1
    31   28   29 1
    32    7   30 1
    33    7   31 1
    34    8   32 1
    35    8   33 1
    36    9   34 1
    37    9   35 1
    38   10   36 1
    39   10   37 1
    40   10   38 1
    41   12   39 1
    42   13   40 1
    43   14   41 1
    44   19   42 1
    45   19   43 1
    46   20   44 1
    47   20   45 1
    48   21   46 1
    49   21   47 1
    50   21   48 1
    51   22   49 1
    52   22   50 1
    53   22   51 1
    54   25   52 1
    55   25   53 1
    56   28   54 1
    57   28   55 1
    58   29   56 1
    59   29   57 1
    60   29   58 1
@<TRIPOS>PROPERTY_DATA
  Total_Score	| 11.8498
  Crash		| -1.2369
  Polar		| 4.3092
  FragIndex	| 1
  FragRMSD	| 0.135

