@<TRIPOS>MOLECULE
BindingDB_17974
 52 54 0 0 0
SMALL
NO_CHARGES


@<TRIPOS>ATOM
1    C        27.7827  108.2808  130.9723  C     
2    C        27.4360  106.1004  130.1065  C     
3    C        26.2532  106.5287  129.4515  C     
4    C        25.9013  107.9054  129.5721  C     
5    N        26.6812  108.7287  130.3294  N     
6    N        28.1449  106.9767  130.8641  N     
7    N        28.4984  109.1318  131.7267  N     
8    N        27.9036  104.8439  130.0404  N     
9    C        24.7521  108.5614  128.8832  C     
10   C        24.0676  109.6881  129.7034  C     
11   C        25.4638  105.6411  128.6778  C     
12   C        24.3148  105.0412  129.2375  C     
13   C        25.7490  105.4525  127.3098  C     
14   C        24.8837  104.6816  126.5113  C     
15   C        23.4013  104.2877  128.4487  C     
16   C        23.7283  104.1100  127.0771  C     
17   C        22.1619  102.3452  126.9008  C     
18   C        21.5529  102.8273  128.1481  C     
19   O        22.8757  103.4176  126.2572  O     
20   N        22.1908  103.7401  128.9189  N     
21   C        21.6420  104.1520  130.2200  C     
22   C        21.1610  105.6387  130.2694  C     
23   C        21.3499  106.3686  131.6501  C     
24   O        20.0942  106.9139  132.1438  O     
25   C        20.2054  107.5842  133.4224  C     
26   C        21.1914  101.7338  125.8505  C     
27   O        20.5062  102.2974  128.5065  O     
28   H        29.2836  108.8213  132.2031  H     
29   H        28.2342  110.0629  131.7902  H     
30   H        28.7195  104.6075  130.5015  H     
31   H        27.4510  104.1777  129.5151  H     
32   H        25.1300  109.0010  127.9491  H     
33   H        23.9652  107.8449  128.6160  H     
34   H        23.7993  109.3326  130.7034  H     
35   H        23.1621  110.0195  129.1877  H     
36   H        24.7478  110.5473  129.7938  H     
37   H        24.1295  105.2070  130.2216  H     
38   H        26.5610  105.9072  126.8754  H     
39   H        25.0809  104.5727  125.5119  H     
40   H        22.8810  101.5688  127.1554  H     
41   H        20.7982  103.5475  130.5467  H     
42   H        22.4048  103.9594  130.9722  H     
43   H        21.6948  106.2237  129.5084  H     
44   H        20.0995  105.6819  129.9864  H     
45   H        21.8147  105.6972  132.3894  H     
46   H        22.0514  107.2036  131.5139  H     
47   H        20.3466  106.8448  134.2281  H     
48   H        19.2672  108.1168  133.6025  H     
49   H        21.0330  108.3135  133.4423  H     
50   H        20.7073  100.8358  126.2460  H     
51   H        21.7396  101.4478  124.9491  H     
52   H        20.4215  102.4525  125.5697  H     
@<TRIPOS>BOND
     1    1    5 2
     2    1    6 1
     3    1    7 1
     4    2    3 1
     5    2    6 2
     6    2    8 1
     7    3    4 2
     8    3   11 1
     9    4    5 1
    10    4    9 1
    11    9   10 1
    12   11   12 1
    13   11   13 2
    14   12   15 2
    15   13   14 1
    16   14   16 2
    17   15   16 1
    18   15   20 1
    19   16   19 1
    20   17   18 1
    21   17   19 1
    22   17   26 1
    23   18   20 1
    24   18   27 2
    25   20   21 1
    26   21   22 1
    27   22   23 1
    28   23   24 1
    29   24   25 1
    30    7   28 1
    31    7   29 1
    32    8   30 1
    33    8   31 1
    34    9   32 1
    35    9   33 1
    36   10   34 1
    37   10   35 1
    38   10   36 1
    39   12   37 1
    40   13   38 1
    41   14   39 1
    42   17   40 1
    43   21   41 1
    44   21   42 1
    45   22   43 1
    46   22   44 1
    47   23   45 1
    48   23   46 1
    49   25   47 1
    50   25   48 1
    51   25   49 1
    52   26   50 1
    53   26   51 1
    54   26   52 1
@<TRIPOS>PROPERTY_DATA
  Total_Score	| 11.2244
  Crash		| -1.0350
  Polar		| 4.5200
  FragIndex	| 1
  FragRMSD	| 0.277

