@<TRIPOS>MOLECULE
BindingDB_17983
 55 57 0 0 0
SMALL
NO_CHARGES


@<TRIPOS>ATOM
1    C        27.8420  108.3564  130.9916  C     
2    C        27.3931  106.2120  130.0843  C     
3    C        26.2309  106.6995  129.4254  C     
4    C        25.9567  108.0894  129.5656  C     
5    N        26.7646  108.8498  130.3446  N     
6    N        28.1451  107.0443  130.8520  N     
7    N        28.5763  109.1958  131.7414  N     
8    N        27.8383  104.9407  129.9984  N     
9    C        24.8027  108.8111  128.9853  C     
10   C        23.5803  108.7202  129.9248  C     
11   C        25.3834  105.8178  128.6764  C     
12   C        24.2021  105.2711  129.2460  C     
13   C        25.7254  105.4792  127.3504  C     
14   C        24.8944  104.6288  126.6083  C     
15   C        23.3300  104.4145  128.5271  C     
16   C        23.7236  104.1016  127.1913  C     
17   C        21.5658  102.8326  128.3655  C     
18   O        22.9344  103.2953  126.4221  O     
19   N        22.1422  103.8321  129.0570  N     
20   C        21.4805  104.2920  130.3176  C     
21   C        20.9265  105.7524  130.2391  C     
22   C        20.6424  107.3101  133.6832  C     
23   O        20.6278  102.1918  128.8261  O     
24   C        22.1066  102.3029  127.0806  C     
25   C        20.9678  101.9894  126.0576  C     
26   C        22.9670  101.0301  127.3500  C     
27   N        20.7145  106.5623  131.4000  N     
28   C        21.1885  106.4616  132.6371  C     
29   O        22.0958  105.6389  132.8600  O     
30   H        29.3670  108.8823  132.2097  H     
31   H        28.3044  110.1265  131.8153  H     
32   H        28.6460  104.6759  130.4795  H     
33   H        27.4012  104.2970  129.4189  H     
34   H        25.0421  109.8671  128.8094  H     
35   H        24.5438  108.3970  128.0199  H     
36   H        23.3393  107.6811  130.1930  H     
37   H        22.7092  109.1442  129.4329  H     
38   H        23.7603  109.3149  130.8264  H     
39   H        23.9656  105.4801  130.2202  H     
40   H        26.5718  105.8540  126.9177  H     
41   H        25.1492  104.3955  125.6487  H     
42   H        20.6217  103.6486  130.5540  H     
43   H        22.0949  104.1546  131.2131  H     
44   H        21.5476  106.3637  129.5585  H     
45   H        19.9378  105.6421  129.7975  H     
46   H        20.8979  108.3623  133.5373  H     
47   H        20.9674  107.0319  134.6927  H     
48   H        19.5528  107.2621  133.6788  H     
49   H        20.3310  101.1823  126.4222  H     
50   H        21.3486  101.6876  125.0831  H     
51   H        20.3475  102.8700  125.9210  H     
52   H        23.7844  101.2571  128.0280  H     
53   H        23.3891  100.6183  126.4371  H     
54   H        22.3543  100.2583  127.8146  H     
55   H        20.1514  107.3391  131.2641  H     
@<TRIPOS>BOND
     1    1    5 2
     2    1    6 1
     3    1    7 1
     4    2    3 1
     5    2    6 2
     6    2    8 1
     7    3    4 2
     8    3   11 1
     9    4    5 1
    10    4    9 1
    11    9   10 1
    12   11   12 1
    13   11   13 2
    14   12   15 2
    15   13   14 1
    16   14   16 2
    17   15   16 1
    18   15   19 1
    19   16   18 1
    20   17   19 1
    21   17   23 2
    22   17   24 1
    23   18   24 1
    24   19   20 1
    25   20   21 1
    26   21   27 1
    27   22   28 1
    28   24   25 1
    29   24   26 1
    30   27   28 am
    31   28   29 2
    32    7   30 1
    33    7   31 1
    34    8   32 1
    35    8   33 1
    36    9   34 1
    37    9   35 1
    38   10   36 1
    39   10   37 1
    40   10   38 1
    41   12   39 1
    42   13   40 1
    43   14   41 1
    44   20   42 1
    45   20   43 1
    46   21   44 1
    47   21   45 1
    48   22   46 1
    49   22   47 1
    50   22   48 1
    51   25   49 1
    52   25   50 1
    53   25   51 1
    54   26   52 1
    55   26   53 1
    56   26   54 1
    57   27   55 1
@<TRIPOS>PROPERTY_DATA
  Total_Score	| 10.5190
  Crash		| -1.1113
  Polar		| 3.5512
  FragIndex	| 1
  FragRMSD	| 0.098

