@<TRIPOS>MOLECULE
BindingDB_17969
 49 51 0 0 0
SMALL
NO_CHARGES


@<TRIPOS>ATOM
1    C        27.6302  108.2151  131.2826  C     
2    C        27.4373  106.1232  130.1822  C     
3    C        26.3517  106.6071  129.4047  C     
4    C        25.9170  107.9419  129.6356  C     
5    N        26.5880  108.6901  130.5616  N     
6    N        28.0408  106.9405  131.0849  N     
7    N        28.2178  109.0217  132.1827  N     
8    N        27.9153  104.8692  130.0933  N     
9    C        24.7599  108.6017  128.9633  C     
10   C        23.5399  108.7533  129.9017  C     
11   C        25.6098  105.7285  128.5811  C     
12   C        24.4719  105.1159  129.1327  C     
13   C        25.8901  105.5462  127.2067  C     
14   C        24.9968  104.8074  126.4101  C     
15   C        23.4975  104.4566  128.3507  C     
16   C        23.8138  104.2822  126.9694  C     
17   C        22.0659  102.6862  126.7704  C     
18   C        21.5751  103.1081  128.0874  C     
19   O        22.9157  103.6602  126.1410  O     
20   N        22.2772  103.9680  128.8582  N     
21   C        21.8160  104.3053  130.2199  C     
22   C        21.1556  105.7156  130.3799  C     
23   C        21.2923  106.3458  131.7893  C     
24   O        20.0276  106.8731  132.2462  O     
25   C        20.1035  107.4837  133.5457  C     
26   O        20.5804  102.5132  128.4910  O     
27   H        28.9755  108.7101  132.7025  H     
28   H        27.8754  109.9231  132.3133  H     
29   H        28.6649  104.5957  130.6463  H     
30   H        27.5253  104.2348  129.4714  H     
31   H        25.0642  109.6008  128.6347  H     
32   H        24.4304  108.0466  128.0842  H     
33   H        23.2978  107.7960  130.3800  H     
34   H        22.6661  109.0848  129.3309  H     
35   H        23.7403  109.4950  130.6851  H     
36   H        24.3121  105.2142  130.1258  H     
37   H        26.7169  105.9746  126.7884  H     
38   H        25.1981  104.6885  125.4107  H     
39   H        22.6128  101.7429  126.8776  H     
40   H        21.2298  102.5193  126.0782  H     
41   H        21.0787  103.5846  130.5980  H     
42   H        22.6669  104.2335  130.8944  H     
43   H        21.6269  106.4391  129.7248  H     
44   H        20.0958  105.6475  130.1048  H     
45   H        21.6797  105.5955  132.4920  H     
46   H        22.0235  107.1640  131.7324  H     
47   H        20.4207  106.7636  134.2976  H     
48   H        19.1023  107.8209  133.8045  H     
49   H        20.7720  108.3499  133.5486  H     
@<TRIPOS>BOND
     1    1    5 2
     2    1    6 1
     3    1    7 1
     4    2    3 1
     5    2    6 2
     6    2    8 1
     7    3    4 2
     8    3   11 1
     9    4    5 1
    10    4    9 1
    11    9   10 1
    12   11   12 1
    13   11   13 2
    14   12   15 2
    15   13   14 1
    16   14   16 2
    17   15   16 1
    18   15   20 1
    19   16   19 1
    20   17   18 1
    21   17   19 1
    22   18   20 1
    23   18   26 2
    24   20   21 1
    25   21   22 1
    26   22   23 1
    27   23   24 1
    28   24   25 1
    29    7   27 1
    30    7   28 1
    31    8   29 1
    32    8   30 1
    33    9   31 1
    34    9   32 1
    35   10   33 1
    36   10   34 1
    37   10   35 1
    38   12   36 1
    39   13   37 1
    40   14   38 1
    41   17   39 1
    42   17   40 1
    43   21   41 1
    44   21   42 1
    45   22   43 1
    46   22   44 1
    47   23   45 1
    48   23   46 1
    49   25   47 1
    50   25   48 1
    51   25   49 1
@<TRIPOS>PROPERTY_DATA
  Total_Score	| 10.3202
  Crash		| -1.0654
  Polar		| 4.8317
  FragIndex	| 1
  FragRMSD	| 0.273

