@<TRIPOS>MOLECULE
BindingDB_17982
 55 57 0 0 0
SMALL
NO_CHARGES


@<TRIPOS>ATOM
1    C        27.7485  108.3675  131.0974  C     
2    C        27.4469  106.2239  130.1295  C     
3    C        26.2560  106.6578  129.4895  C     
4    C        25.8665  108.0149  129.6817  C     
5    N        26.6282  108.8085  130.4802  N     
6    N        28.1484  107.0861  130.9090  N     
7    N        28.4504  109.2053  131.8748  N     
8    N        27.9477  104.9798  129.9988  N     
9    C        24.6990  108.6774  129.0356  C     
10   C        23.5029  108.8316  130.0016  C     
11   C        25.4613  105.7478  128.7445  C     
12   C        24.2359  105.2838  129.2733  C     
13   C        25.8741  105.3023  127.4728  C     
14   C        25.0354  104.4673  126.7184  C     
15   C        23.3860  104.3923  128.5593  C     
16   C        23.8118  104.0262  127.2545  C     
17   C        21.5310  102.9052  128.3403  C     
18   O        22.9970  103.2975  126.4393  O     
19   N        22.1891  103.8426  129.0589  N     
20   C        21.7066  104.2038  130.3939  C     
21   C        21.1405  105.6490  130.4669  C     
22   C        21.0722  106.1698  131.9227  C     
23   O        19.9862  107.1032  132.0608  O     
24   C        19.9638  107.7921  133.3233  C     
25   O        20.5284  102.3444  128.7742  O     
26   C        22.0340  102.4083  127.0469  C     
27   C        22.7034  101.0155  127.2401  C     
28   C        20.8919  102.3264  125.9888  C     
29   H        29.2719  108.9089  132.3009  H     
30   H        28.1355  110.1145  131.9983  H     
31   H        28.7758  104.7387  130.4476  H     
32   H        27.5046  104.3242  129.4365  H     
33   H        24.9970  109.6706  128.6927  H     
34   H        24.3600  108.1369  128.1500  H     
35   H        23.1841  107.8584  130.3774  H     
36   H        22.6670  109.2905  129.4684  H     
37   H        23.7676  109.4600  130.8522  H     
38   H        23.9749  105.6128  130.2034  H     
39   H        26.7702  105.6050  127.0781  H     
40   H        25.3160  104.1852  125.7753  H     
41   H        20.9164  103.5407  130.7563  H     
42   H        22.5108  104.0661  131.1206  H     
43   H        21.7562  106.3302  129.8786  H     
44   H        20.1383  105.6586  130.0324  H     
45   H        20.9177  105.3240  132.5995  H     
46   H        22.0223  106.6546  132.1705  H     
47   H        19.8979  107.0910  134.1594  H     
48   H        19.0844  108.4344  133.3518  H     
49   H        20.8518  108.4173  133.4383  H     
50   H        23.5293  101.0849  127.9528  H     
51   H        23.1027  100.6497  126.2930  H     
52   H        21.9843  100.2826  127.6132  H     
53   H        20.1186  101.6101  126.2834  H     
54   H        21.2852  102.0203  125.0155  H     
55   H        20.4277  103.3099  125.8773  H     
@<TRIPOS>BOND
     1    1    5 2
     2    1    6 1
     3    1    7 1
     4    2    3 1
     5    2    6 2
     6    2    8 1
     7    3    4 2
     8    3   11 1
     9    4    5 1
    10    4    9 1
    11    9   10 1
    12   11   12 1
    13   11   13 2
    14   12   15 2
    15   13   14 1
    16   14   16 2
    17   15   16 1
    18   15   19 1
    19   16   18 1
    20   17   19 1
    21   17   25 2
    22   17   26 1
    23   18   26 1
    24   19   20 1
    25   20   21 1
    26   21   22 1
    27   22   23 1
    28   23   24 1
    29   26   27 1
    30   26   28 1
    31    7   29 1
    32    7   30 1
    33    8   31 1
    34    8   32 1
    35    9   33 1
    36    9   34 1
    37   10   35 1
    38   10   36 1
    39   10   37 1
    40   12   38 1
    41   13   39 1
    42   14   40 1
    43   20   41 1
    44   20   42 1
    45   21   43 1
    46   21   44 1
    47   22   45 1
    48   22   46 1
    49   24   47 1
    50   24   48 1
    51   24   49 1
    52   27   50 1
    53   27   51 1
    54   27   52 1
    55   28   53 1
    56   28   54 1
    57   28   55 1
@<TRIPOS>PROPERTY_DATA
  Total_Score	| 10.6123
  Crash		| -1.4421
  Polar		| 4.0674
  FragIndex	| 1
  FragRMSD	| 0.236

