@<TRIPOS>MOLECULE
BindingDB_17986
 61 63 0 0 0
SMALL
NO_CHARGES


@<TRIPOS>ATOM
1    C        27.7711  108.3653  131.0620  C     
2    C        27.4866  106.2427  130.0410  C     
3    C        26.3506  106.7134  129.3302  C     
4    C        25.9870  108.0814  129.5057  C     
5    N        26.7081  108.8422  130.3760  N     
6    N        28.1551  107.0792  130.8738  N     
7    N        28.4244  109.1703  131.9119  N     
8    N        27.9503  104.9821  129.9541  N     
9    C        24.8303  108.7590  128.8546  C     
10   C        23.5482  108.6431  129.7153  C     
11   C        25.5261  105.8271  128.5980  C     
12   C        24.4014  105.2457  129.2251  C     
13   C        25.7725  105.5478  127.2356  C     
14   C        24.8984  104.7085  126.5251  C     
15   C        23.5010  104.3872  128.5390  C     
16   C        23.7890  104.1228  127.1740  C     
17   O        22.9868  103.2660  126.4705  O     
18   N        22.4041  103.7422  129.1363  N     
19   C        21.8989  104.1912  130.4441  C     
20   C        21.2166  105.5995  130.4372  C     
21   C        20.1602  107.5759  133.4932  C     
22   C        21.8628  102.6593  128.5256  C     
23   O        21.0472  101.9484  129.1117  O     
24   C        21.3719  106.4039  131.7658  C     
25   O        20.1008  106.9113  132.2134  O     
26   C        22.3037  102.1948  127.1895  C     
27   C        21.0671  101.8788  126.2585  C     
28   C        20.3053  100.5443  126.4780  C     
29   C        23.2554  100.9392  127.3199  C     
30   C        24.7837  101.1906  127.4145  C     
31   H        29.1836  108.8383  132.4182  H     
32   H        28.1160  110.0847  132.0305  H     
33   H        28.7260  104.7126  130.4756  H     
34   H        27.5240  104.3362  129.3699  H     
35   H        25.0815  109.8163  128.6940  H     
36   H        24.6258  108.3334  127.8645  H     
37   H        22.7218  109.1433  129.1970  H     
38   H        23.6998  109.1223  130.6892  H     
39   H        23.2905  107.5929  129.8558  H     
40   H        24.2589  105.4549  130.2111  H     
41   H        26.5782  105.9597  126.7548  H     
42   H        25.0727  104.5098  125.5376  H     
43   H        21.1696  103.4995  130.8805  H     
44   H        22.7449  104.1572  131.1347  H     
45   H        21.6155  106.1813  129.6056  H     
46   H        20.1534  105.4477  130.2131  H     
47   H        20.4148  106.8611  134.2836  H     
48   H        19.1810  107.9989  133.7222  H     
49   H        20.8933  108.3917  133.4916  H     
50   H        21.8208  105.7609  132.5342  H     
51   H        22.0542  107.2420  131.5962  H     
52   H        20.3420  102.6997  126.3306  H     
53   H        21.4017  101.8625  125.2173  H     
54   H        20.9268   99.7004  126.1747  H     
55   H        19.4071  100.5283  125.8601  H     
56   H        20.0077  100.4098  127.5182  H     
57   H        22.9636  100.3650  128.2054  H     
58   H        23.0904  100.2978  126.4532  H     
59   H        25.1627  101.5878  126.4713  H     
60   H        25.2997  100.2454  127.6130  H     
61   H        25.0214  101.8837  128.2229  H     
@<TRIPOS>BOND
     1    1    5 2
     2    1    6 1
     3    1    7 1
     4    2    3 1
     5    2    6 2
     6    2    8 1
     7    3    4 2
     8    3   11 1
     9    4    5 1
    10    4    9 1
    11    9   10 1
    12   11   12 1
    13   11   13 2
    14   12   15 2
    15   13   14 1
    16   14   16 2
    17   15   16 1
    18   15   18 1
    19   16   17 1
    20   17   26 1
    21   18   19 1
    22   18   22 1
    23   19   20 1
    24   20   24 1
    25   21   25 1
    26   22   23 2
    27   22   26 1
    28   24   25 1
    29   26   27 1
    30   26   29 1
    31   27   28 1
    32   29   30 1
    33    7   31 1
    34    7   32 1
    35    8   33 1
    36    8   34 1
    37    9   35 1
    38    9   36 1
    39   10   37 1
    40   10   38 1
    41   10   39 1
    42   12   40 1
    43   13   41 1
    44   14   42 1
    45   19   43 1
    46   19   44 1
    47   20   45 1
    48   20   46 1
    49   21   47 1
    50   21   48 1
    51   21   49 1
    52   24   50 1
    53   24   51 1
    54   27   52 1
    55   27   53 1
    56   28   54 1
    57   28   55 1
    58   28   56 1
    59   29   57 1
    60   29   58 1
    61   30   59 1
    62   30   60 1
    63   30   61 1
@<TRIPOS>PROPERTY_DATA
  Total_Score	| 11.9503
  Crash		| -1.6921
  Polar		| 4.5163
  FragIndex	| 1
  FragRMSD	| 0.201

