@<TRIPOS>MOLECULE
BindingDB_17971
 53 55 0 0 0
SMALL
NO_CHARGES


@<TRIPOS>ATOM
1    C        27.7073  108.2707  131.1079  C     
2    C        27.4095  106.1288  130.1307  C     
3    C        26.2823  106.5908  129.4006  C     
4    C        25.9122  107.9545  129.5739  C     
5    N        26.6437  108.7380  130.4115  N     
6    N        28.0812  106.9775  130.9528  N     
7    N        28.3557  109.0807  131.9573  N     
8    N        27.8675  104.8655  130.0585  N     
9    C        24.7589  108.6190  128.8954  C     
10   C        23.4999  108.6412  129.8014  C     
11   C        25.4858  105.6960  128.6391  C     
12   C        24.2736  105.2164  129.1803  C     
13   C        25.8460  105.3402  127.3276  C     
14   C        24.9933  104.5250  126.5705  C     
15   C        23.3931  104.3806  128.4420  C     
16   C        23.7822  104.0529  127.1112  C     
17   C        22.1424  102.3545  126.9397  C     
18   C        21.3722  103.0165  128.1144  C     
19   O        22.9679  103.3277  126.2808  O     
20   N        22.2165  103.8607  128.9489  N     
21   C        21.7171  104.1808  130.2828  C     
22   C        21.1216  105.6172  130.3908  C     
23   C        21.2733  106.2674  131.8068  C     
24   O        20.0384  106.9030  132.2091  O     
25   C        20.1328  107.6285  133.4545  C     
26   C        21.1863  101.7350  125.8936  C     
27   H        29.1009  108.7451  132.4826  H     
28   H        28.0482  109.9913  132.0845  H     
29   H        28.6419  104.5970  130.5859  H     
30   H        27.4385  104.2156  129.4795  H     
31   H        25.0373  109.6550  128.6506  H     
32   H        24.4946  108.1320  127.9553  H     
33   H        23.1761  107.6284  130.0348  H     
34   H        22.6812  109.1607  129.2773  H     
35   H        23.7196  109.1759  130.7338  H     
36   H        24.0268  105.5105  130.1277  H     
37   H        26.7115  105.6847  126.9117  H     
38   H        25.2551  104.2725  125.6103  H     
39   H        22.7846  101.5561  127.3349  H     
40   H        20.5680  103.6400  127.7188  H     
41   H        20.9218  102.2069  128.7024  H     
42   H        20.9288  103.4896  130.6074  H     
43   H        22.5221  104.0359  131.0071  H     
44   H        21.5930  106.2758  129.6477  H     
45   H        20.0534  105.5573  130.1276  H     
46   H        21.5649  105.4881  132.5311  H     
47   H        22.0923  107.0007  131.7660  H     
48   H        20.2784  106.9193  134.2796  H     
49   H        19.2039  108.1693  133.6052  H     
50   H        20.9541  108.3601  133.4414  H     
51   H        20.5129  101.0150  126.3712  H     
52   H        21.7539  101.2195  125.1162  H     
53   H        20.5819  102.5169  125.4233  H     
@<TRIPOS>BOND
     1    1    5 2
     2    1    6 1
     3    1    7 1
     4    2    3 1
     5    2    6 2
     6    2    8 1
     7    3    4 2
     8    3   11 1
     9    4    5 1
    10    4    9 1
    11    9   10 1
    12   11   12 1
    13   11   13 2
    14   12   15 2
    15   13   14 1
    16   14   16 2
    17   15   16 1
    18   15   20 1
    19   16   19 1
    20   17   18 1
    21   17   19 1
    22   17   26 1
    23   18   20 1
    24   20   21 1
    25   21   22 1
    26   22   23 1
    27   23   24 1
    28   24   25 1
    29    7   27 1
    30    7   28 1
    31    8   29 1
    32    8   30 1
    33    9   31 1
    34    9   32 1
    35   10   33 1
    36   10   34 1
    37   10   35 1
    38   12   36 1
    39   13   37 1
    40   14   38 1
    41   17   39 1
    42   18   40 1
    43   18   41 1
    44   21   42 1
    45   21   43 1
    46   22   44 1
    47   22   45 1
    48   23   46 1
    49   23   47 1
    50   25   48 1
    51   25   49 1
    52   25   50 1
    53   26   51 1
    54   26   52 1
    55   26   53 1
@<TRIPOS>PROPERTY_DATA
  Total_Score	| 11.2521
  Crash		| -1.1067
  Polar		| 4.6665
  FragIndex	| 1
  FragRMSD	| 0.511

