@<TRIPOS>MOLECULE
BindingDB_17972
 53 55 0 0 0
SMALL
NO_CHARGES


@<TRIPOS>ATOM
1    C        27.7161  108.3371  131.1397  C     
2    C        27.4388  106.2345  130.0885  C     
3    C        26.3227  106.7197  129.3598  C     
4    C        25.9428  108.0796  129.5744  C     
5    N        26.6598  108.8291  130.4546  N     
6    N        28.1034  107.0524  130.9437  N     
7    N        28.3648  109.1180  132.0176  N     
8    N        27.8908  104.9686  129.9860  N     
9    C        24.8114  108.7632  128.9000  C     
10   C        23.5281  108.7555  129.7634  C     
11   C        25.5338  105.8376  128.5775  C     
12   C        24.3058  105.3702  129.0953  C     
13   C        25.9613  105.4164  127.3061  C     
14   C        25.1689  104.5229  126.5663  C     
15   C        23.4959  104.4475  128.3750  C     
16   C        23.9490  104.0462  127.0828  C     
17   C        21.8438  103.0748  126.5548  C     
18   C        21.5402  102.9798  128.0728  C     
19   O        23.2676  103.1134  126.3416  O     
20   N        22.3137  103.9204  128.8668  N     
21   C        21.8338  104.1992  130.2176  C     
22   C        21.1486  105.5966  130.3372  C     
23   C        21.3299  106.2615  131.7258  C     
24   O        20.0846  106.8414  132.1595  O     
25   C        20.1666  107.5098  133.4382  C     
26   C        21.2412  101.8961  125.7571  C     
27   H        29.1050  108.7726  132.5346  H     
28   H        28.0570  110.0292  132.1524  H     
29   H        28.6580  104.6821  130.5126  H     
30   H        27.4540  104.3313  129.4008  H     
31   H        25.0957  109.7981  128.6834  H     
32   H        24.5699  108.2961  127.9412  H     
33   H        23.2091  107.7256  129.9590  H     
34   H        22.7299  109.2710  129.2293  H     
35   H        23.6974  109.2609  130.7192  H     
36   H        24.0134  105.7057  130.0179  H     
37   H        26.8492  105.7504  126.9179  H     
38   H        25.4895  104.2093  125.6478  H     
39   H        21.4041  104.0030  126.1741  H     
40   H        20.4645  103.1577  128.2113  H     
41   H        21.7610  101.9673  128.4373  H     
42   H        21.1049  103.4420  130.5390  H     
43   H        22.6591  104.1001  130.9306  H     
44   H        21.5212  106.2836  129.5635  H     
45   H        20.0798  105.4652  130.1540  H     
46   H        21.6696  105.4867  132.4384  H     
47   H        22.1014  107.0376  131.6393  H     
48   H        20.3876  106.7875  134.2261  H     
49   H        19.2071  107.9690  133.6574  H     
50   H        20.9323  108.2892  133.4315  H     
51   H        21.7296  100.9624  126.0293  H     
52   H        21.3780  102.0587  124.6916  H     
53   H        20.1732  101.8093  125.9596  H     
@<TRIPOS>BOND
     1    1    5 2
     2    1    6 1
     3    1    7 1
     4    2    3 1
     5    2    6 2
     6    2    8 1
     7    3    4 2
     8    3   11 1
     9    4    5 1
    10    4    9 1
    11    9   10 1
    12   11   12 1
    13   11   13 2
    14   12   15 2
    15   13   14 1
    16   14   16 2
    17   15   16 1
    18   15   20 1
    19   16   19 1
    20   17   18 1
    21   17   19 1
    22   17   26 1
    23   18   20 1
    24   20   21 1
    25   21   22 1
    26   22   23 1
    27   23   24 1
    28   24   25 1
    29    7   27 1
    30    7   28 1
    31    8   29 1
    32    8   30 1
    33    9   31 1
    34    9   32 1
    35   10   33 1
    36   10   34 1
    37   10   35 1
    38   12   36 1
    39   13   37 1
    40   14   38 1
    41   17   39 1
    42   18   40 1
    43   18   41 1
    44   21   42 1
    45   21   43 1
    46   22   44 1
    47   22   45 1
    48   23   46 1
    49   23   47 1
    50   25   48 1
    51   25   49 1
    52   25   50 1
    53   26   51 1
    54   26   52 1
    55   26   53 1
@<TRIPOS>PROPERTY_DATA
  Total_Score	| 11.6320
  Crash		| -0.9805
  Polar		| 4.4913
  FragIndex	| 1
  FragRMSD	| 0.569

