@<TRIPOS>MOLECULE
BindingDB_50299581
 49 50 0 0 0
SMALL
NO_CHARGES


@<TRIPOS>ATOM
1    C        17.2482    6.3341   14.9510  C     
2    C        17.0453    6.0909   13.4228  C     
3    C        17.5572    4.6698   13.0776  C     
4    C        16.8456    3.5975   13.9451  C     
5    C        16.9439    3.9517   15.4600  C     
6    O        16.5653    5.3156   15.7155  O     
7    S        15.8443    2.9795   16.5143  S     
8    N        14.2901    3.6125   16.5957  N     
9    O        15.6921    1.5001   15.9532  O     
10   O        16.4512    2.8978   17.9817  O     
11   O        17.4757    2.3366   13.7231  O     
12   O        17.3341    4.4200   11.6961  O     
13   C        16.7277    7.7208   15.4353  C     
14   O        15.4131    7.6256   15.9972  O     
15   O        17.8151    7.0791   12.7019  O     
16   C        15.1582    9.5646   11.8677  C     
17   C        15.0677    9.3149   10.3247  C     
18   C        16.4913    9.1070    9.7468  C     
19   C        17.2129    7.9542   10.4905  C     
20   C        17.1843    8.1939   12.0286  C     
21   O        15.8542    8.4769   12.5239  O     
22   O        18.5607    7.8618   10.0302  O     
23   O        16.4285    8.8259    8.3564  O     
24   C        13.7402    9.7457   12.5182  C     
25   O        13.3953    8.6721   13.4056  O     
26   O        14.2531    8.1643   10.0732  O     
27   H        18.3244    6.2922   15.1768  H     
28   H        15.9765    6.1367   13.1940  H     
29   H        18.6319    4.6214   13.2549  H     
30   H        15.7937    3.5359   13.6399  H     
31   H        17.9714    3.7902   15.8053  H     
32   H        13.5748    3.0818   16.9838  H     
33   H        14.1524    4.5642   16.4594  H     
34   H        16.7507    1.7244   13.4374  H     
35   H        17.8221    3.5940   11.4905  H     
36   H        17.4021    8.1057   16.2113  H     
37   H        16.7191    8.4417   14.6102  H     
38   H        14.8473    7.3071   15.2652  H     
39   H        15.7000   10.5044   12.0343  H     
40   H        14.5970   10.1848    9.8413  H     
41   H        17.0597   10.0250    9.8723  H     
42   H        16.7070    7.0072   10.2694  H     
43   H        17.8202    9.0613   12.2414  H     
44   H        18.9029    7.0162   10.3944  H     
45   H        16.1125    9.6505    7.9349  H     
46   H        13.7114   10.6818   13.0997  H     
47   H        12.9360    9.8144   11.7640  H     
48   H        12.5687    8.9616   13.8330  H     
49   H        13.9825    8.2496    9.1385  H     
@<TRIPOS>BOND
     1    1    2 1
     2    1    6 1
     3    1   13 1
     4    2    3 1
     5    2   15 1
     6    3    4 1
     7    3   12 1
     8    4    5 1
     9    4   11 1
    10    5    6 1
    11    5    7 1
    12    7    8 am
    13    7    9 2
    14    7   10 2
    15   13   14 1
    16   15   20 1
    17   16   17 1
    18   16   21 1
    19   16   24 1
    20   17   18 1
    21   17   26 1
    22   18   19 1
    23   18   23 1
    24   19   20 1
    25   19   22 1
    26   20   21 1
    27   24   25 1
    28    1   27 1
    29    2   28 1
    30    3   29 1
    31    4   30 1
    32    5   31 1
    33    8   32 1
    34    8   33 1
    35   11   34 1
    36   12   35 1
    37   13   36 1
    38   13   37 1
    39   14   38 1
    40   16   39 1
    41   17   40 1
    42   18   41 1
    43   19   42 1
    44   20   43 1
    45   22   44 1
    46   23   45 1
    47   24   46 1
    48   24   47 1
    49   25   48 1
    50   26   49 1
@<TRIPOS>PROPERTY_DATA
  Total_Score	| 6.3891
  Crash		| -1.1979
  Polar		| 4.6385
  FragIndex	| 1
  FragRMSD	| 1.131

