@<TRIPOS>MOLECULE
BindingDB_50299574
 48 48 0 0 0
SMALL
NO_CHARGES


@<TRIPOS>ATOM
1    C        17.4499    6.6020   14.7747  C     
2    C        17.9665    6.2783   13.3281  C     
3    C        18.3141    4.7711   13.1674  C     
4    C        17.1622    3.8938   13.7368  C     
5    C        17.0430    4.2254   15.2519  C     
6    O        16.5838    5.5926   15.3532  O     
7    S        15.9211    3.1678   16.2034  S     
8    N        14.4427    3.8814   16.5494  N     
9    O        15.6731    1.7131   15.6171  O     
10   O        16.6156    2.9530   17.6189  O     
11   O        17.4439    2.5121   13.4517  O     
12   C        16.7802    1.7325   12.5484  C     
13   C        17.2003    0.3505   12.3084  C     
14   O        15.7692    2.2201   11.7894  O     
15   O        18.5892    4.3693   11.8126  O     
16   C        16.7705    7.9934   14.9184  C     
17   O        15.3833    8.0076   14.5328  O     
18   O        17.1327    6.6223   12.2268  O     
19   C        19.7609    4.4878   11.1327  C     
20   C        19.8649    3.9092    9.7871  C     
21   O        20.8505    5.0531   11.7030  O     
22   C        16.3473    6.9458   11.1814  C     
23   C        16.7710    6.5777    9.8258  C     
24   O        15.1965    7.6129   11.3594  O     
25   C        14.7526    8.7287   13.5612  C     
26   C        13.2970    8.6263   13.4208  C     
27   O        15.4104    9.5750   12.7319  O     
28   H        18.3437    6.6275   15.4086  H     
29   H        18.8838    6.8536   13.1731  H     
30   H        19.2241    4.5751   13.7410  H     
31   H        16.2240    4.1902   13.2549  H     
32   H        18.0220    4.1232   15.7322  H     
33   H        14.0783    4.5334   15.9339  H     
34   H        14.0697    3.8075   17.4420  H     
35   H        17.5704    0.2538   11.2863  H     
36   H        16.3477   -0.3159   12.4422  H     
37   H        17.9911    0.0626   12.9993  H     
38   H        16.7862    8.2623   15.9777  H     
39   H        17.3412    8.7557   14.3819  H     
40   H        19.6711    2.8370    9.8379  H     
41   H        20.8629    4.0655    9.3742  H     
42   H        19.1338    4.3727    9.1245  H     
43   H        17.7831    6.9409    9.6451  H     
44   H        16.1069    7.0115    9.0772  H     
45   H        16.7522    5.4924    9.7240  H     
46   H        12.8189    9.0977   14.2774  H     
47   H        13.0001    7.5786   13.3652  H     
48   H        12.9618    9.1398   12.5181  H     
@<TRIPOS>BOND
     1    1    2 1
     2    1    6 1
     3    1   16 1
     4    2    3 1
     5    2   18 1
     6    3    4 1
     7    3   15 1
     8    4    5 1
     9    4   11 1
    10    5    6 1
    11    5    7 1
    12    7    8 am
    13    7    9 2
    14    7   10 2
    15   11   12 1
    16   12   13 1
    17   12   14 2
    18   15   19 1
    19   16   17 1
    20   17   25 1
    21   18   22 1
    22   19   20 1
    23   19   21 2
    24   22   23 1
    25   22   24 2
    26   25   26 1
    27   25   27 2
    28    1   28 1
    29    2   29 1
    30    3   30 1
    31    4   31 1
    32    5   32 1
    33    8   33 1
    34    8   34 1
    35   13   35 1
    36   13   36 1
    37   13   37 1
    38   16   38 1
    39   16   39 1
    40   20   40 1
    41   20   41 1
    42   20   42 1
    43   23   43 1
    44   23   44 1
    45   23   45 1
    46   26   46 1
    47   26   47 1
    48   26   48 1
@<TRIPOS>PROPERTY_DATA
  Total_Score	| 7.5699
  Crash		| -2.5651
  Polar		| 4.3155
  FragIndex	| 1
  FragRMSD	| 1.229

