@<TRIPOS>MOLECULE
BindingDB_50299573
 48 48 0 0 0
SMALL
NO_CHARGES


@<TRIPOS>ATOM
1    C        17.0477    6.4344   15.1489  C     
2    C        16.7612    6.2683   13.6259  C     
3    C        17.2958    4.8954   13.1533  C     
4    C        16.5794    3.7618   13.9360  C     
5    C        16.7930    3.9991   15.4601  C     
6    O        16.4279    5.3384   15.8621  O     
7    S        15.7809    2.9133   16.4933  S     
8    N        14.1908    3.3973   16.7265  N     
9    O        15.6853    1.4498   15.8890  O     
10   O        16.4278    2.7301   17.9328  O     
11   O        17.0936    2.4794   13.5386  O     
12   C        16.6987    1.7477   12.4608  C     
13   C        17.3067    0.4413   12.1967  C     
14   O        15.7462    2.1994   11.6105  O     
15   O        17.0558    4.8398   11.7437  O     
16   C        16.4995    7.7903   15.7010  C     
17   O        17.4865    8.6979   16.2153  O     
18   O        17.3880    7.2995   12.8461  O     
19   C        17.9695    5.0463   10.7567  C     
20   C        17.4636    5.1916    9.3953  C     
21   O        19.2797    5.2950   11.0183  O     
22   C        16.8190    8.1126   11.9112  C     
23   C        17.6642    9.0941   11.2207  C     
24   O        15.4967    8.0493   11.6099  O     
25   C        18.5591    9.2449   15.5710  C     
26   C        19.4203   10.2090   16.2670  C     
27   O        18.9122    8.8509   14.3196  O     
28   H        18.1272    6.3858   15.3296  H     
29   H        15.6758    6.2912   13.4719  H     
30   H        18.3722    4.8443   13.3572  H     
31   H        15.5053    3.8061   13.7266  H     
32   H        17.8428    3.8202   15.7092  H     
33   H        13.9905    4.0802   17.3896  H     
34   H        13.4677    2.8289   16.4023  H     
35   H        17.8048    0.4626   11.2278  H     
36   H        16.5310   -0.3232   12.1854  H     
37   H        18.0388    0.1934   12.9642  H     
38   H        15.9260    8.3156   14.9342  H     
39   H        15.8142    7.5993   16.5246  H     
40   H        16.8770    4.3079    9.1487  H     
41   H        18.2895    5.2969    8.6836  H     
42   H        16.8232    6.0765    9.3339  H     
43   H        18.1536    9.7436   11.9541  H     
44   H        17.0696    9.7200   10.5470  H     
45   H        18.4253    8.5667   10.6393  H     
46   H        20.4203    9.7886   16.4007  H     
47   H        19.0086   10.4661   17.2461  H     
48   H        19.4909   11.1195   15.6686  H     
@<TRIPOS>BOND
     1    1    2 1
     2    1    6 1
     3    1   16 1
     4    2    3 1
     5    2   18 1
     6    3    4 1
     7    3   15 1
     8    4    5 1
     9    4   11 1
    10    5    6 1
    11    5    7 1
    12    7    8 am
    13    7    9 2
    14    7   10 2
    15   11   12 1
    16   12   13 1
    17   12   14 2
    18   15   19 1
    19   16   17 1
    20   17   25 1
    21   18   22 1
    22   19   20 1
    23   19   21 2
    24   22   23 1
    25   22   24 2
    26   25   26 1
    27   25   27 2
    28    1   28 1
    29    2   29 1
    30    3   30 1
    31    4   31 1
    32    5   32 1
    33    8   33 1
    34    8   34 1
    35   13   35 1
    36   13   36 1
    37   13   37 1
    38   16   38 1
    39   16   39 1
    40   20   40 1
    41   20   41 1
    42   20   42 1
    43   23   43 1
    44   23   44 1
    45   23   45 1
    46   26   46 1
    47   26   47 1
    48   26   48 1
@<TRIPOS>PROPERTY_DATA
  Total_Score	| 7.3095
  Crash		| -2.5364
  Polar		| 4.5774
  FragIndex	| 1
  FragRMSD	| 1.300

