@<TRIPOS>MOLECULE
BindingDB_50299582
 49 50 0 0 0
SMALL
NO_CHARGES


@<TRIPOS>ATOM
1    C        16.7870    6.3247   14.7166  C     
2    C        16.6571    5.9367   13.2102  C     
3    C        17.3520    4.5641   12.9813  C     
4    C        16.7862    3.4778   13.9401  C     
5    C        16.7807    3.9797   15.4189  C     
6    O        16.1924    5.2926   15.5354  O     
7    S        15.8190    2.9338   16.5317  S     
8    N        14.2574    3.5000   16.7621  N     
9    O        15.6999    1.4472   15.9925  O     
10   O        16.5421    2.9360   17.9501  O     
11   O        17.6002    2.3081   13.8326  O     
12   O        17.1850    4.1386   11.6350  O     
13   C        16.0840    7.6718   15.0366  C     
14   O        15.5183    7.6999   16.3457  O     
15   O        17.2515    6.9687   12.3920  O     
16   C        15.4840    9.3322   11.9627  C     
17   C        16.3363   10.2555   11.0353  C     
18   C        17.7126    9.5831   10.7602  C     
19   C        17.5327    8.1322   10.2340  C     
20   C        16.5907    7.3118   11.1491  C     
21   O        15.3547    8.0151   11.3834  O     
22   O        18.7997    7.4779   10.1369  O     
23   O        18.4633   10.3608    9.8267  O     
24   C        14.0567    9.8852   12.2075  C     
25   O        13.3151    8.9487   12.9897  O     
26   O        16.5534   11.5374   11.6391  O     
27   H        17.8473    6.4270   14.9933  H     
28   H        15.6010    5.8449   12.9883  H     
29   H        18.4269    4.6777   13.1643  H     
30   H        15.7668    3.2290   13.6244  H     
31   H        17.8126    4.0088   15.7874  H     
32   H        13.7431    3.1917   17.5238  H     
33   H        13.9576    4.2851   16.2807  H     
34   H        16.9821    1.5701   13.6230  H     
35   H        17.8114    3.3949   11.5075  H     
36   H        16.8127    8.4746   14.9663  H     
37   H        15.2780    7.8682   14.3238  H     
38   H        14.7725    7.0564   16.3173  H     
39   H        15.9727    9.2644   12.9304  H     
40   H        15.8115   10.4148   10.0769  H     
41   H        18.2837    9.5522   11.6933  H     
42   H        17.0968    8.1782    9.2308  H     
43   H        16.3359    6.4032   10.6021  H     
44   H        19.2763    7.9368    9.4060  H     
45   H        17.9288   10.3691    9.0022  H     
46   H        14.1086   10.8283   12.7640  H     
47   H        13.5235   10.0646   11.2616  H     
48   H        12.9167    9.4850   13.7083  H     
49   H        15.6883   12.0018   11.5870  H     
@<TRIPOS>BOND
     1    1    2 1
     2    1    6 1
     3    1   13 1
     4    2    3 1
     5    2   15 1
     6    3    4 1
     7    3   12 1
     8    4    5 1
     9    4   11 1
    10    5    6 1
    11    5    7 1
    12    7    8 am
    13    7    9 2
    14    7   10 2
    15   13   14 1
    16   15   20 1
    17   16   17 1
    18   16   21 1
    19   16   24 1
    20   17   18 1
    21   17   26 1
    22   18   19 1
    23   18   23 1
    24   19   20 1
    25   19   22 1
    26   20   21 1
    27   24   25 1
    28    1   27 1
    29    2   28 1
    30    3   29 1
    31    4   30 1
    32    5   31 1
    33    8   32 1
    34    8   33 1
    35   11   34 1
    36   12   35 1
    37   13   36 1
    38   13   37 1
    39   14   38 1
    40   16   39 1
    41   17   40 1
    42   18   41 1
    43   19   42 1
    44   20   43 1
    45   22   44 1
    46   23   45 1
    47   24   46 1
    48   24   47 1
    49   25   48 1
    50   26   49 1
@<TRIPOS>PROPERTY_DATA
  Total_Score	| 6.5257
  Crash		| -1.0525
  Polar		| 4.9844
  FragIndex	| 1
  FragRMSD	| 1.136

