@<TRIPOS>MOLECULE
BindingDB_50299577
 84 85 0 0 0
SMALL
NO_CHARGES


@<TRIPOS>ATOM
1    C        16.8414    6.2796   14.8740  C     
2    C        17.0642    6.2379   13.3204  C     
3    C        17.7645    4.8967   12.9368  C     
4    C        17.0131    3.6662   13.5145  C     
5    C        16.9698    3.8486   15.0534  C     
6    O        16.2255    5.0530   15.3102  O     
7    S        16.1702    2.5270   15.9871  S     
8    N        16.6361    0.9766   15.5285  N     
9    O        16.7426    2.6960   17.4661  O     
10   O        14.5909    2.6458   16.1187  O     
11   O        17.6864    2.4575   13.1220  O     
12   C        17.3325    1.6594   12.0745  C     
13   C        18.1113    0.4424   11.7989  C     
14   O        16.2716    1.9564   11.2802  O     
15   O        17.8619    4.7610   11.5106  O     
16   C        15.9427    7.4412   15.3815  C     
17   O        15.3262    7.2347   16.6630  O     
18   O        17.9563    7.2544   12.8144  O     
19   C        18.9532    4.9746   10.7272  C     
20   C        18.8545    4.6815    9.2980  C     
21   O        20.1366    5.3947   11.2354  O     
22   C        14.4573    6.2851   17.1201  C     
23   C        19.1272    8.6258   10.5439  C     
24   C        17.9398    8.6467    9.5242  C     
25   C        16.6305    8.1296   10.1882  C     
26   C        16.3923    8.8581   11.5338  C     
27   C        17.6024    8.6141   12.4762  C     
28   O        18.7519    9.1960   11.8272  O     
29   O        15.1566    8.4843   12.1528  O     
30   C        14.1865    9.3305   12.5992  C     
31   C        13.0166    8.8059   13.2970  C     
32   O        14.3275   10.6726   12.5326  O     
33   O        15.4982    8.2019    9.3077  O     
34   C        20.3611    9.4239   10.0465  C     
35   O        21.0897    8.7983    8.9812  O     
36   O        18.2449    7.7985    8.4084  O     
37   C        14.7675    9.2609    8.8681  C     
38   C        13.6605    9.0043    7.9377  C     
39   O        15.0296   10.5223    9.2749  O     
40   C        17.8112    7.9156    7.1202  C     
41   C        18.2208    6.9224    6.1244  C     
42   O        17.0073    8.9296    6.7324  O     
43   C        21.8754    7.6921    9.0523  C     
44   C        22.5710    7.2336    7.8421  C     
45   O        22.0714    7.0428   10.2259  O     
46   C        14.0319    6.2946   18.5257  C     
47   O        14.0531    5.2510   16.3553  O     
48   H        17.8146    6.3711   15.3788  H     
49   H        16.0975    6.2712   12.8096  H     
50   H        18.7728    4.9068   13.3737  H     
51   H        15.9810    3.6533   13.1441  H     
52   H        17.9882    3.9325   15.4501  H     
53   H        16.8010    0.3111   16.2148  H     
54   H        16.9862    0.8245   14.6314  H     
55   H        19.1574    0.7027   11.6232  H     
56   H        17.7237   -0.0729   10.9181  H     
57   H        18.0477   -0.2238   12.6618  H     
58   H        16.5839    8.3193   15.5127  H     
59   H        15.1564    7.6842   14.6519  H     
60   H        18.7256    3.6043    9.1837  H     
61   H        19.7561    4.9880    8.7591  H     
62   H        17.9875    5.1916    8.8624  H     
63   H        19.4418    7.5921   10.7095  H     
64   H        17.7865    9.6743    9.1857  H     
65   H        16.7564    7.0659   10.3928  H     
66   H        16.3821    9.9332   11.3273  H     
67   H        17.4466    9.1834   13.3898  H     
68   H        13.0487    7.7190   13.3789  H     
69   H        12.1287    9.0922   12.7367  H     
70   H        12.9545    9.2369   14.2929  H     
71   H        20.0284   10.3961    9.6900  H     
72   H        21.0408    9.5975   10.8761  H     
73   H        14.0506    8.5169    7.0439  H     
74   H        13.1678    9.9309    7.6443  H     
75   H        12.9261    8.3494    8.4044  H     
76   H        18.6794    7.4266    5.2651  H     
77   H        17.3363    6.3576    5.7973  H     
78   H        18.9470    6.2222    6.5502  H     
79   H        21.8506    7.0040    7.0595  H     
80   H        23.1582    6.3344    8.0516  H     
81   H        23.2396    8.0251    7.4895  H     
82   H        14.6243    6.9945   19.1159  H     
83   H        14.1597    5.2934   18.9545  H     
84   H        12.9852    6.5941   18.5810  H     
@<TRIPOS>BOND
     1    1    2 1
     2    1    6 1
     3    1   16 1
     4    2    3 1
     5    2   18 1
     6    3    4 1
     7    3   15 1
     8    4    5 1
     9    4   11 1
    10    5    6 1
    11    5    7 1
    12    7    8 am
    13    7    9 2
    14    7   10 2
    15   11   12 1
    16   12   13 1
    17   12   14 2
    18   15   19 1
    19   16   17 1
    20   17   22 1
    21   18   27 1
    22   19   20 1
    23   19   21 2
    24   22   46 1
    25   22   47 2
    26   23   24 1
    27   23   28 1
    28   23   34 1
    29   24   25 1
    30   24   36 1
    31   25   26 1
    32   25   33 1
    33   26   27 1
    34   26   29 1
    35   27   28 1
    36   29   30 1
    37   30   31 1
    38   30   32 2
    39   33   37 1
    40   34   35 1
    41   35   43 1
    42   36   40 1
    43   37   38 1
    44   37   39 2
    45   40   41 1
    46   40   42 2
    47   43   44 1
    48   43   45 2
    49    1   48 1
    50    2   49 1
    51    3   50 1
    52    4   51 1
    53    5   52 1
    54    8   53 1
    55    8   54 1
    56   13   55 1
    57   13   56 1
    58   13   57 1
    59   16   58 1
    60   16   59 1
    61   20   60 1
    62   20   61 1
    63   20   62 1
    64   23   63 1
    65   24   64 1
    66   25   65 1
    67   26   66 1
    68   27   67 1
    69   31   68 1
    70   31   69 1
    71   31   70 1
    72   34   71 1
    73   34   72 1
    74   38   73 1
    75   38   74 1
    76   38   75 1
    77   41   76 1
    78   41   77 1
    79   41   78 1
    80   44   79 1
    81   44   80 1
    82   44   81 1
    83   46   82 1
    84   46   83 1
    85   46   84 1
@<TRIPOS>PROPERTY_DATA
  Total_Score	| 7.9159
  Crash		| -5.4016
  Polar		| 4.1870
  FragIndex	| 1
  FragRMSD	| 0.852

