@<TRIPOS>MOLECULE
BindingDB_50299575
 45 45 0 0 0
SMALL
NO_CHARGES


@<TRIPOS>ATOM
1    C        17.6988    6.3798   15.1591  C     
2    C        17.3831    6.4039   13.6375  C     
3    C        17.4854    4.9613   13.0803  C     
4    C        16.5655    3.9897   13.8713  C     
5    C        16.8926    4.1030   15.3905  C     
6    O        16.8135    5.4725   15.8444  O     
7    S        15.7600    3.1796   16.4474  S     
8    N        14.2311    3.8515   16.6234  N     
9    O        15.5260    1.7187   15.8662  O     
10   O        16.3840    2.9610   17.8950  O     
11   O        16.7893    2.6462   13.4178  O     
12   C        16.3235    2.0620   12.2856  C     
13   C        16.7049    0.6717   12.0152  C     
14   O        15.5254    2.7240   11.4220  O     
15   O        17.1107    5.0089   11.6968  O     
16   C        17.5517    7.7372   15.7245  C     
17   O        18.6338    8.5647   15.6729  O     
18   O        18.3365    7.2480   12.9597  O     
19   C        17.8943    5.4094   10.6578  C     
20   C        17.2716    5.5008    9.3347  C     
21   O        19.1966    5.7595   10.8178  O     
22   C        18.2282    8.5770   12.6746  C     
23   C        19.3540    9.2194   11.9824  C     
24   O        17.1615    9.3176   13.0671  O     
25   C        18.6858    9.9380   16.0575  C     
26   O        16.3303    8.1789   16.1183  O     
27   H        18.7357    6.0602   15.3175  H     
28   H        16.3536    6.7722   13.4962  H     
29   H        18.5240    4.6182   13.1651  H     
30   H        15.5205    4.2680   13.7105  H     
31   H        17.8986    3.7058   15.5750  H     
32   H        13.4489    3.3258   16.4000  H     
33   H        14.1209    4.6597   17.1537  H     
34   H        17.7874    0.6036   11.9284  H     
35   H        16.2501    0.3167   11.0908  H     
36   H        16.3735    0.0365   12.8348  H     
37   H        16.8798    4.5152    9.0706  H     
38   H        17.9933    5.8254    8.5814  H     
39   H        16.4480    6.2197    9.3744  H     
40   H        20.2715    9.0657   12.5586  H     
41   H        19.1730   10.2942   11.8648  H     
42   H        19.4808    8.7721   10.9885  H     
43   H        18.0125   10.5244   15.4282  H     
44   H        19.7071   10.2989   15.9196  H     
45   H        18.4038   10.0507   17.1079  H     
@<TRIPOS>BOND
     1    1    2 1
     2    1    6 1
     3    1   16 1
     4    2    3 1
     5    2   18 1
     6    3    4 1
     7    3   15 1
     8    4    5 1
     9    4   11 1
    10    5    6 1
    11    5    7 1
    12    7    8 am
    13    7    9 2
    14    7   10 2
    15   11   12 1
    16   12   13 1
    17   12   14 2
    18   15   19 1
    19   16   17 1
    20   16   26 2
    21   17   25 1
    22   18   22 1
    23   19   20 1
    24   19   21 2
    25   22   23 1
    26   22   24 2
    27    1   27 1
    28    2   28 1
    29    3   29 1
    30    4   30 1
    31    5   31 1
    32    8   32 1
    33    8   33 1
    34   13   34 1
    35   13   35 1
    36   13   36 1
    37   20   37 1
    38   20   38 1
    39   20   39 1
    40   23   40 1
    41   23   41 1
    42   23   42 1
    43   25   43 1
    44   25   44 1
    45   25   45 1
@<TRIPOS>PROPERTY_DATA
  Total_Score	| 5.7880
  Crash		| -3.0376
  Polar		| 4.3023
  FragIndex	| 1
  FragRMSD	| 1.336

