@<TRIPOS>MOLECULE
BindingDB_50299579
 28 28 0 0 0
SMALL
NO_CHARGES


@<TRIPOS>ATOM
1    C        17.3186    6.3274   14.9047  C     
2    C        17.1082    6.0626   13.3828  C     
3    C        17.5985    4.6144   13.0616  C     
4    C        16.9217    3.5450   13.9653  C     
5    C        16.9667    3.9714   15.4752  C     
6    O        16.5801    5.3521   15.6696  O     
7    S        15.8202    3.0240   16.4917  S     
8    N        14.3109    3.7702   16.5829  N     
9    O        15.5761    1.5734   15.8898  O     
10   O        16.3997    2.8711   17.9675  O     
11   O        17.6384    2.3264   13.7790  O     
12   O        17.3454    4.2953   11.6848  O     
13   C        16.9295    7.7595   15.3654  C     
14   O        15.6482    7.7695   16.0013  O     
15   O        15.7424    6.2455   12.9906  O     
16   H        18.3960    6.2083   15.1230  H     
17   H        17.7144    6.7688   12.8070  H     
18   H        18.6928    4.5799   13.2049  H     
19   H        15.8807    3.4291   13.6254  H     
20   H        17.9760    3.8187   15.8569  H     
21   H        13.6067    3.3904   17.1483  H     
22   H        14.1823    4.6563   16.1895  H     
23   H        16.9759    1.6562   13.5158  H     
24   H        17.9317    4.8958   11.1562  H     
25   H        17.6582    8.1150   16.0946  H     
26   H        16.8977    8.4475   14.5155  H     
27   H        14.9710    7.8003   15.2917  H     
28   H        15.2303    5.6518   13.5790  H     
@<TRIPOS>BOND
     1    1    2 1
     2    1    6 1
     3    1   13 1
     4    2    3 1
     5    2   15 1
     6    3    4 1
     7    3   12 1
     8    4    5 1
     9    4   11 1
    10    5    6 1
    11    5    7 1
    12    7    8 am
    13    7    9 2
    14    7   10 2
    15   13   14 1
    16    1   16 1
    17    2   17 1
    18    3   18 1
    19    4   19 1
    20    5   20 1
    21    8   21 1
    22    8   22 1
    23   11   23 1
    24   12   24 1
    25   13   25 1
    26   13   26 1
    27   14   27 1
    28   15   28 1
@<TRIPOS>PROPERTY_DATA
  Total_Score	| 4.3544
  Crash		| -0.6065
  Polar		| 3.9453
  FragIndex	| 1
  FragRMSD	| 0.993

