@<TRIPOS>MOLECULE
BindingDB_50299578
 28 28 0 0 0
SMALL
NO_CHARGES


@<TRIPOS>ATOM
1    C        17.1587    6.2989   14.8172  C     
2    C        16.9507    5.9756   13.3072  C     
3    C        17.5395    4.5679   13.0114  C     
4    C        16.8667    3.4836   13.8940  C     
5    C        16.9141    3.8911   15.4072  C     
6    O        16.5367    5.2819   15.6295  O     
7    S        15.8115    2.9771   16.5139  S     
8    N        14.2703    3.6183   16.6901  N     
9    O        15.6286    1.4674   16.0171  O     
10   O        16.4781    2.9531   17.9720  O     
11   O        17.5645    2.2435   13.7490  O     
12   O        17.4041    4.2941   11.6179  O     
13   C        16.5537    7.6492   15.2636  C     
14   O        15.2675    7.4599   15.8639  O     
15   O        17.5896    6.9560   12.4671  O     
16   H        18.2266    6.3463   15.0202  H     
17   H        15.8802    5.9805   13.0769  H     
18   H        18.6133    4.5950   13.2165  H     
19   H        15.8371    3.3483   13.5655  H     
20   H        17.9551    3.7228   15.7654  H     
21   H        13.6809    3.2594   17.3750  H     
22   H        14.0606    4.4940   16.3113  H     
23   H        16.8648    1.5659   13.4785  H     
24   H        17.8731    3.4393   11.4702  H     
25   H        17.2140    8.1056   16.0146  H     
26   H        16.4604    8.3178   14.4014  H     
27   H        15.1615    8.2104   16.5007  H     
28   H        18.5478    6.9082   12.7650  H     
@<TRIPOS>BOND
     1    1    2 1
     2    1    6 1
     3    1   13 1
     4    2    3 1
     5    2   15 1
     6    3    4 1
     7    3   12 1
     8    4    5 1
     9    4   11 1
    10    5    6 1
    11    5    7 1
    12    7    8 am
    13    7    9 2
    14    7   10 2
    15   13   14 1
    16    1   16 1
    17    2   17 1
    18    3   18 1
    19    4   19 1
    20    5   20 1
    21    8   21 1
    22    8   22 1
    23   11   23 1
    24   12   24 1
    25   13   25 1
    26   13   26 1
    27   14   27 1
    28   15   28 1
@<TRIPOS>PROPERTY_DATA
  Total_Score	| 4.5012
  Crash		| -0.6484
  Polar		| 3.8044
  FragIndex	| 1
  FragRMSD	| 1.114

