@<TRIPOS>MOLECULE
BindingDB_50299576
 84 85 0 0 0
SMALL
NO_CHARGES


@<TRIPOS>ATOM
1    C        17.3018    6.5918   14.8974  C     
2    C        17.3002    6.4518   13.3367  C     
3    C        17.8413    5.0312   13.0277  C     
4    C        16.9774    3.9412   13.7217  C     
5    C        17.0271    4.1749   15.2602  C     
6    O        16.6065    5.5110   15.5668  O     
7    S        15.9134    3.1303   16.2377  S     
8    N        14.3987    3.7833   16.5684  N     
9    O        15.7623    1.5965   15.8476  O     
10   O        16.5513    3.0608   17.6919  O     
11   O        17.4795    2.6495   13.3476  O     
12   C        16.9908    1.8194   12.3854  C     
13   C        17.6905    0.5693   12.0562  C     
14   O        15.9025    2.1678   11.6520  O     
15   O        17.8964    4.8008   11.6050  O     
16   C        16.6018    7.8653   15.3744  C     
17   O        15.2131    7.7928   14.9818  O     
18   O        18.1897    7.4237   12.7315  O     
19   C        18.8959    5.1720   10.7579  C     
20   C        18.7999    4.8130    9.3399  C     
21   O        19.9631    5.8911   11.1735  O     
22   C        14.6924    8.4023   13.9008  C     
23   C        17.2935    9.4358    9.7556  C     
24   C        18.2759   10.6364    9.9263  C     
25   C        18.4946   10.9512   11.4409  C     
26   C        18.8583    9.6719   12.2378  C     
27   C        17.7800    8.5873   11.9624  C     
28   O        17.7245    8.2972   10.5424  O     
29   O        18.8233    9.9075   13.6653  O     
30   C        19.8356    9.6796   14.5581  C     
31   C        19.5858    9.9501   15.9801  C     
32   O        21.0327    9.1935   14.1727  O     
33   O        19.5624   11.9081   11.5729  O     
34   C        17.0778    8.9542    8.2892  C     
35   O        15.7195    8.5681    8.0236  O     
36   O        19.5409   10.3363    9.3221  O     
37   C        19.6273   13.0295   12.3382  C     
38   C        20.8503   13.8289   12.2533  C     
39   O        18.6486   13.3354   13.2257  O     
40   C        20.2500   11.0749    8.4203  C     
41   C        21.5287   10.5402    7.9432  C     
42   O        19.8157   12.2852    7.9932  O     
43   C        14.7910    8.0460    8.8652  C     
44   C        13.4605    7.7090    8.3274  C     
45   O        15.0826    7.7645   10.1548  O     
46   C        13.2913    8.2955   13.4319  C     
47   O        15.5146    9.2017   13.2234  O     
48   H        18.3382    6.6237   15.2560  H     
49   H        16.2863    6.5509   12.9277  H     
50   H        18.8580    4.9639   13.4348  H     
51   H        15.9472    4.0587   13.3808  H     
52   H        18.0378    4.0187   15.6335  H     
53   H        14.1504    3.9961   17.4784  H     
54   H        13.7584    3.9215   15.8614  H     
55   H        18.7089    0.7984   11.7276  H     
56   H        17.1760    0.0313   11.2489  H     
57   H        17.7321   -0.0807   12.9326  H     
58   H        16.6451    7.9564   16.4548  H     
59   H        17.1730    8.7293   14.9297  H     
60   H        18.8010    3.7296    9.2598  H     
61   H        19.6490    5.2011    8.7773  H     
62   H        17.8769    5.2130    8.9200  H     
63   H        16.3201    9.7762   10.1138  H     
64   H        17.8329   11.5199    9.4590  H     
65   H        17.5735   11.3767   11.8484  H     
66   H        19.8256    9.2903   11.9080  H     
67   H        16.8120    9.0564   12.1917  H     
68   H        19.3493   11.0059   16.1336  H     
69   H        20.4681    9.6956   16.5801  H     
70   H        18.7475    9.3470   16.3365  H     
71   H        17.3021    9.7626    7.5914  H     
72   H        17.7353    8.1165    8.0588  H     
73   H        21.7092   13.1986   12.4864  H     
74   H        20.8196   14.6697   12.9453  H     
75   H        20.9583   14.2193   11.2402  H     
76   H        22.1640   10.3216    8.8029  H     
77   H        22.0371   11.2545    7.2933  H     
78   H        21.3349    9.6199    7.3905  H     
79   H        13.0122    8.5932    7.8771  H     
80   H        12.7986    7.3448    9.1164  H     
81   H        13.5659    6.9382    7.5640  H     
82   H        12.9753    7.2471   13.4187  H     
83   H        13.2070    8.7010   12.4178  H     
84   H        12.6355    8.8780   14.0800  H     
@<TRIPOS>BOND
     1    1    2 1
     2    1    6 1
     3    1   16 1
     4    2    3 1
     5    2   18 1
     6    3    4 1
     7    3   15 1
     8    4    5 1
     9    4   11 1
    10    5    6 1
    11    5    7 1
    12    7    8 am
    13    7    9 2
    14    7   10 2
    15   11   12 1
    16   12   13 1
    17   12   14 2
    18   15   19 1
    19   16   17 1
    20   17   22 1
    21   18   27 1
    22   19   20 1
    23   19   21 2
    24   22   46 1
    25   22   47 2
    26   23   24 1
    27   23   28 1
    28   23   34 1
    29   24   25 1
    30   24   36 1
    31   25   26 1
    32   25   33 1
    33   26   27 1
    34   26   29 1
    35   27   28 1
    36   29   30 1
    37   30   31 1
    38   30   32 2
    39   33   37 1
    40   34   35 1
    41   35   43 1
    42   36   40 1
    43   37   38 1
    44   37   39 2
    45   40   41 1
    46   40   42 2
    47   43   44 1
    48   43   45 2
    49    1   48 1
    50    2   49 1
    51    3   50 1
    52    4   51 1
    53    5   52 1
    54    8   53 1
    55    8   54 1
    56   13   55 1
    57   13   56 1
    58   13   57 1
    59   16   58 1
    60   16   59 1
    61   20   60 1
    62   20   61 1
    63   20   62 1
    64   23   63 1
    65   24   64 1
    66   25   65 1
    67   26   66 1
    68   27   67 1
    69   31   68 1
    70   31   69 1
    71   31   70 1
    72   34   71 1
    73   34   72 1
    74   38   73 1
    75   38   74 1
    76   38   75 1
    77   41   76 1
    78   41   77 1
    79   41   78 1
    80   44   79 1
    81   44   80 1
    82   44   81 1
    83   46   82 1
    84   46   83 1
    85   46   84 1
@<TRIPOS>PROPERTY_DATA
  Total_Score	| 9.1220
  Crash		| -3.7834
  Polar		| 5.2608
  FragIndex	| 1
  FragRMSD	| 1.278

