@<TRIPOS>MOLECULE
BindingDB_50299580
 26 26 0 0 0
SMALL
NO_CHARGES


@<TRIPOS>ATOM
1    C        16.6629    6.3145   14.6970  C     
2    C        16.7469    5.8739   13.2035  C     
3    C        17.4710    4.5086   13.0809  C     
4    C        16.8166    3.4502   14.0086  C     
5    C        16.7180    3.9888   15.4643  C     
6    O        16.0625    5.2634   15.4896  O     
7    S        15.7612    2.9474   16.5956  S     
8    N        14.2026    3.4570   16.9426  N     
9    O        15.6529    1.4290   16.1386  O     
10   O        16.5042    2.8673   17.9991  O     
11   O        17.6191    2.2682   13.9799  O     
12   O        17.4238    4.0788   11.7276  O     
13   C        15.8406    7.5209   14.9493  C     
14   O        15.3323    8.2731   13.9320  O     
15   O        17.4336    6.8688   12.4337  O     
16   O        15.5581    7.8858   16.2283  O     
17   H        17.6688    6.5283   15.0777  H     
18   H        15.7234    5.7706   12.8102  H     
19   H        18.5134    4.6339   13.3594  H     
20   H        15.8160    3.2124   13.6330  H     
21   H        17.7261    4.0921   15.8802  H     
22   H        13.4500    3.1316   16.4179  H     
23   H        14.0344    4.0100   17.7251  H     
24   H        16.9812    1.5070   13.9221  H     
25   H        17.9748    3.2595   11.6831  H     
26   H        17.3274    6.5736   11.4997  H     
@<TRIPOS>BOND
     1    1    2 1
     2    1    6 1
     3    1   13 1
     4    2    3 1
     5    2   15 1
     6    3    4 1
     7    3   12 1
     8    4    5 1
     9    4   11 1
    10    5    6 1
    11    5    7 1
    12    7    8 am
    13    7    9 2
    14    7   10 2
    15   13   14 1
    16   13   16 2
    17    1   17 1
    18    2   18 1
    19    3   19 1
    20    4   20 1
    21    5   21 1
    22    8   22 1
    23    8   23 1
    24   11   24 1
    25   12   25 1
    26   15   26 1
@<TRIPOS>PROPERTY_DATA
  Total_Score	| 4.1667
  Crash		| -0.5212
  Polar		| 3.8323
  FragIndex	| 1
  FragRMSD	| 1.169

