@<TRIPOS>MOLECULE
BindingDB_50305466
 80 82 0 0 0
SMALL
NO_CHARGES


@<TRIPOS>ATOM
1    C        29.0086   -4.5713  -12.5850  C     
2    N        28.6539   -3.2628  -13.0267  N     
3    C        27.3887   -2.7994  -13.1480  C     
4    O        27.2142   -1.6012  -13.7450  O     
5    O        26.2974   -3.4945  -12.7218  O     
6    C        24.9405   -3.0916  -12.9076  C     
7    C        29.5886   -5.3804  -13.7643  C     
8    O        29.5864   -6.7719  -13.4093  O     
9    C        29.6292   -7.7423  -14.4800  C     
10   C        31.5701   -7.8266  -16.1105  C     
11   C        32.9140   -8.1262  -16.4101  C     
12   C        33.7769   -8.5813  -15.3962  C     
13   C        33.2963   -8.7466  -14.0845  C     
14   C        31.9463   -8.4773  -13.7998  C     
15   C        31.0619   -8.0115  -14.8023  C     
16   C        28.8306   -9.0032  -14.0145  C     
17   C        27.3779   -8.6286  -13.5751  C     
18   N        26.7064   -9.8202  -13.0922  N     
19   C        26.5094  -10.8368  -14.1155  C     
20   C        27.8811  -11.3194  -14.6554  C     
21   C        28.7681  -10.1251  -15.1019  C     
22   C        26.4337  -10.0413  -11.7893  C     
23   O        25.9630  -11.1207  -11.4523  O     
24   N        26.6962   -9.1698  -10.8105  N     
25   C        26.5928   -9.3594   -9.3819  C     
26   C        25.4493   -8.4493   -8.8491  C     
27   C        27.9828   -9.2576   -8.6573  C     
28   C        28.7219   -7.8823   -8.4500  C     
29   C        29.7738   -7.9734   -7.2886  C     
30   C        31.0250   -8.8086   -7.6702  C     
31   C        31.6930   -8.2695   -8.9640  C     
32   C        30.6892   -8.0926  -10.1254  C     
33   C        29.4315   -7.2925   -9.7063  C     
34   N        25.3014   -8.3330   -7.3777  N     
35   C        25.0844   -9.5782   -6.5973  C     
36   F        33.3542   -8.0001  -17.6318  F     
37   Cl       34.3201   -9.2832  -12.8476  Cl    
38   H        29.7601   -4.4805  -11.7974  H     
39   H        28.1491   -5.1037  -12.1716  H     
40   H        29.3699   -2.7148  -13.3871  H     
41   H        24.7979   -2.0601  -12.5817  H     
42   H        24.2948   -3.7366  -12.3145  H     
43   H        24.6609   -3.1748  -13.9605  H     
44   H        28.9547   -5.2060  -14.6420  H     
45   H        30.6074   -5.0520  -13.9851  H     
46   H        29.1106   -7.3641  -15.3689  H     
47   H        30.9595   -7.4800  -16.8567  H     
48   H        34.7509   -8.7988  -15.6150  H     
49   H        31.6071   -8.6265  -12.8499  H     
50   H        29.3325   -9.4264  -13.1379  H     
51   H        27.4085   -7.8297  -12.8420  H     
52   H        26.8352   -8.2141  -14.4266  H     
53   H        25.9565  -11.7103  -13.7704  H     
54   H        25.9241  -10.4171  -14.9352  H     
55   H        28.3986  -11.8762  -13.8713  H     
56   H        27.7205  -11.9949  -15.4975  H     
57   H        28.3585   -9.7167  -16.0316  H     
58   H        29.7743  -10.5008  -15.3184  H     
59   H        26.9626   -8.2831  -11.0841  H     
60   H        26.2487  -10.3783   -9.1797  H     
61   H        25.5837   -7.4385   -9.2424  H     
62   H        24.4968   -8.8099   -9.2596  H     
63   H        27.8248   -9.6643   -7.6437  H     
64   H        28.6587   -9.9560   -9.1523  H     
65   H        27.9854   -7.1453   -8.1243  H     
66   H        30.1046   -6.9659   -7.0034  H     
67   H        29.3092   -8.4110   -6.4016  H     
68   H        31.7488   -8.7763   -6.8482  H     
69   H        30.7437   -9.8549   -7.8096  H     
70   H        32.1622   -7.3054   -8.7434  H     
71   H        32.4808   -8.9638   -9.2693  H     
72   H        31.1878   -7.5550  -10.9296  H     
73   H        30.3819   -9.0706  -10.5042  H     
74   H        28.7407   -7.2456  -10.5400  H     
75   H        29.7366   -6.2624   -9.5026  H     
76   H        26.1015   -7.8108   -6.9980  H     
77   H        24.4766   -7.7487   -7.2419  H     
78   H        24.3207  -10.2072   -7.0685  H     
79   H        24.7718   -9.3073   -5.5893  H     
80   H        26.0356  -10.1417   -6.5187  H     
@<TRIPOS>BOND
     1    1    2 1
     2    1    7 1
     3    2    3 am
     4    3    4 2
     5    3    5 1
     6    5    6 1
     7    7    8 1
     8    8    9 1
     9    9   15 1
    10    9   16 1
    11   10   11 2
    12   10   15 1
    13   11   12 1
    14   11   36 1
    15   12   13 2
    16   13   14 1
    17   13   37 1
    18   14   15 2
    19   16   17 1
    20   16   21 1
    21   17   18 1
    22   18   19 1
    23   18   22 1
    24   19   20 1
    25   20   21 1
    26   22   23 2
    27   22   24 am
    28   24   25 1
    29   25   26 1
    30   25   27 1
    31   26   34 1
    32   27   28 1
    33   28   29 1
    34   28   33 1
    35   29   30 1
    36   30   31 1
    37   31   32 1
    38   32   33 1
    39   34   35 1
    40    1   38 1
    41    1   39 1
    42    2   40 1
    43    6   41 1
    44    6   42 1
    45    6   43 1
    46    7   44 1
    47    7   45 1
    48    9   46 1
    49   10   47 1
    50   12   48 1
    51   14   49 1
    52   16   50 1
    53   17   51 1
    54   17   52 1
    55   19   53 1
    56   19   54 1
    57   20   55 1
    58   20   56 1
    59   21   57 1
    60   21   58 1
    61   24   59 1
    62   25   60 1
    63   26   61 1
    64   26   62 1
    65   27   63 1
    66   27   64 1
    67   28   65 1
    68   29   66 1
    69   29   67 1
    70   30   68 1
    71   30   69 1
    72   31   70 1
    73   31   71 1
    74   32   72 1
    75   32   73 1
    76   33   74 1
    77   33   75 1
    78   34   76 1
    79   34   77 1
    80   35   78 1
    81   35   79 1
    82   35   80 1
@<TRIPOS>PROPERTY_DATA
  Total_Score	| 12.6744
  Crash		| -2.4093
  Polar		| 5.3988
  FragIndex	| 1
  FragRMSD	| 0.521

