@<TRIPOS>MOLECULE
BindingDB_50382336
 78 80 0 0 0
SMALL
NO_CHARGES


@<TRIPOS>ATOM
1    C        28.9548   -9.5606  -14.5309  C     
2    C        28.3155  -10.2004  -13.2484  C     
3    N        26.8869   -9.9483  -13.0454  N     
4    C        26.0447  -10.1695  -14.2173  C     
5    C        26.5572   -9.3542  -15.4273  C     
6    C        28.0060   -9.7593  -15.7573  C     
7    C        27.1422   -3.6722  -13.2354  C     
8    N        27.8833   -4.7614  -12.9359  N     
9    O        27.6558   -2.6269  -13.9332  O     
10   O        25.8320   -3.6796  -12.8762  O     
11   C        24.8988   -2.6500  -13.2020  C     
12   C        29.2686   -4.9284  -13.2306  C     
13   C        29.7860   -6.2671  -12.6594  C     
14   O        29.0917   -7.4609  -13.1196  O     
15   C        29.4975   -8.0814  -14.3741  C     
16   C        30.9779   -8.0854  -14.6099  C     
17   C        31.5109   -7.7393  -15.8728  C     
18   C        32.8818   -7.9093  -16.1425  C     
19   C        33.7333   -8.4150  -15.1470  C     
20   C        33.2278   -8.7097  -13.8703  C     
21   C        31.8571   -8.5483  -13.6027  C     
22   C        26.3447   -9.7774  -11.8224  C     
23   O        25.1196   -9.7988  -11.6833  O     
24   N        27.0683   -9.5941  -10.7211  N     
25   C        26.6177   -9.5836   -9.3543  C     
26   C        25.8501   -8.2945   -8.9291  C     
27   C        27.8195   -9.9793   -8.4297  C     
28   C        29.0744   -9.0479   -8.2391  C     
29   C        30.3476   -9.6793   -8.9061  C     
30   O        31.5430   -8.8910   -8.7376  O     
31   C        31.4377   -7.5662   -9.3192  C     
32   C        30.2776   -6.7902   -8.6611  C     
33   C        28.9470   -7.5878   -8.7527  C     
34   N        25.3678   -8.3057   -7.5155  N     
35   C        24.9817   -9.6139   -6.9209  C     
36   Cl       34.2594   -9.2608  -12.6470  Cl    
37   H        29.8023  -10.2176  -14.7730  H     
38   H        28.4204  -11.2896  -13.3301  H     
39   H        28.9380   -9.9074  -12.4048  H     
40   H        26.0462  -11.2398  -14.4582  H     
41   H        25.0016   -9.8783  -14.0623  H     
42   H        25.9105   -9.5378  -16.2885  H     
43   H        26.5121   -8.2922  -15.1848  H     
44   H        28.3561   -9.1902  -16.6224  H     
45   H        28.0073  -10.8172  -16.0533  H     
46   H        27.4215   -5.4992  -12.4961  H     
47   H        23.9187   -2.9033  -12.7984  H     
48   H        24.8287   -2.5550  -14.2850  H     
49   H        25.2172   -1.6971  -12.7851  H     
50   H        29.3974   -4.8911  -14.3094  H     
51   H        29.8696   -4.1167  -12.8107  H     
52   H        30.8573   -6.3455  -12.8610  H     
53   H        29.6836   -6.2167  -11.5706  H     
54   H        29.0312   -7.4767  -15.1535  H     
55   H        30.8970   -7.4177  -16.6258  H     
56   H        33.2525   -7.6801  -17.0662  H     
57   H        34.7231   -8.5611  -15.3645  H     
58   H        31.4986   -8.7993  -12.6798  H     
59   H        28.0246   -9.5949  -10.8430  H     
60   H        25.9198  -10.4147   -9.2924  H     
61   H        26.4882   -7.4217   -9.0689  H     
62   H        24.9888   -8.0976   -9.5774  H     
63   H        27.4041  -10.1614   -7.4339  H     
64   H        28.1510  -10.9573   -8.7843  H     
65   H        29.2802   -8.9801   -7.1654  H     
66   H        30.5377  -10.6519   -8.4619  H     
67   H        30.1717   -9.8333   -9.9729  H     
68   H        32.3787   -7.0381   -9.1472  H     
69   H        31.2919   -7.6336  -10.4030  H     
70   H        30.5231   -6.6122   -7.6090  H     
71   H        30.1577   -5.8288   -9.1681  H     
72   H        28.6427   -7.5845   -9.8044  H     
73   H        28.2096   -7.0763   -8.1463  H     
74   H        26.0744   -7.8740   -6.9169  H     
75   H        24.5166   -7.7427   -7.4819  H     
76   H        24.2736  -10.1461   -7.5666  H     
77   H        24.4900   -9.4252   -5.9604  H     
78   H        25.8538  -10.2398   -6.7353  H     
@<TRIPOS>BOND
     1    1    2 1
     2    1    6 1
     3    1   15 1
     4    2    3 1
     5    3    4 1
     6    3   22 1
     7    4    5 1
     8    5    6 1
     9    7    8 am
    10    7    9 2
    11    7   10 1
    12    8   12 1
    13   10   11 1
    14   12   13 1
    15   13   14 1
    16   15   14 1
    17   15   16 1
    18   16   17 2
    19   16   21 1
    20   17   18 1
    21   18   19 2
    22   19   20 1
    23   20   21 2
    24   20   36 1
    25   22   23 2
    26   22   24 am
    27   25   24 1
    28   25   26 1
    29   25   27 1
    30   26   34 1
    31   27   28 1
    32   28   29 1
    33   28   33 1
    34   29   30 1
    35   30   31 1
    36   31   32 1
    37   32   33 1
    38   34   35 1
    39    1   37 1
    40    2   38 1
    41    2   39 1
    42    4   40 1
    43    4   41 1
    44    5   42 1
    45    5   43 1
    46    6   44 1
    47    6   45 1
    48    8   46 1
    49   11   47 1
    50   11   48 1
    51   11   49 1
    52   12   50 1
    53   12   51 1
    54   13   52 1
    55   13   53 1
    56   15   54 1
    57   17   55 1
    58   18   56 1
    59   19   57 1
    60   21   58 1
    61   24   59 1
    62   25   60 1
    63   26   61 1
    64   26   62 1
    65   27   63 1
    66   27   64 1
    67   28   65 1
    68   29   66 1
    69   29   67 1
    70   31   68 1
    71   31   69 1
    72   32   70 1
    73   32   71 1
    74   33   72 1
    75   33   73 1
    76   34   74 1
    77   34   75 1
    78   35   76 1
    79   35   77 1
    80   35   78 1
@<TRIPOS>PROPERTY_DATA
  Total_Score	| 12.1627
  Crash		| -2.6137
  Polar		| 5.4276
  FragIndex	| 1
  FragRMSD	| 1.204

