@<TRIPOS>MOLECULE
BindingDB_29935
 82 84 0 0 0
SMALL
NO_CHARGES


@<TRIPOS>ATOM
1    C        30.9730   -7.9572  -14.8004  C     
2    C        31.7850   -8.4548  -13.7518  C     
3    C        33.1529   -8.7091  -13.9439  C     
4    C        33.7404   -8.4628  -15.1964  C     
5    C        32.9584   -7.9539  -16.2485  C     
6    C        31.5868   -7.7025  -16.0518  C     
7    C        29.5149   -7.6790  -14.5654  C     
8    C        28.7129   -8.9510  -14.1082  C     
9    O        29.5087   -6.6241  -13.5683  O     
10   C        28.6789   -5.4602  -13.7734  C     
11   C        29.2632   -4.2492  -13.0036  C     
12   C        28.2330   -3.1362  -12.6841  C     
13   O        27.5867   -2.5811  -13.8507  O     
14   C        27.8764  -11.3163  -14.7700  C     
15   C        28.7351  -10.0909  -15.1824  C     
16   C        27.2286   -8.6468  -13.7214  C     
17   N        26.5857   -9.8744  -13.2635  N     
18   C        26.4623  -10.8893  -14.3023  C     
19   C        26.3074  -10.1349  -11.9683  C     
20   O        25.9041  -11.2504  -11.6433  O     
21   N        26.5202   -9.2558  -10.9895  N     
22   C        26.4335   -9.4522   -9.5621  C     
23   C        25.7066   -8.2101   -8.9494  C     
24   N        25.3384   -8.2141   -7.5087  N     
25   C        27.8265   -9.7603   -8.9047  C     
26   C        29.1679   -9.3448   -9.6091  C     
27   C        29.2259   -7.9108  -10.2296  C     
28   C        30.3914   -9.5296   -8.6481  C     
29   C        30.4920   -8.4118   -7.5683  C     
30   C        30.4706   -6.9930   -8.1958  C     
31   C        29.2783   -6.7916   -9.1596  C     
32   C        25.1736   -9.5079   -6.8123  C     
33   C        26.2915   -3.1020  -14.2126  C     
34   C        25.1608   -2.6536  -13.2620  C     
35   Cl       34.0926   -9.2945  -12.6616  Cl    
36   H        31.3780   -8.6239  -12.8285  H     
37   H        34.7338   -8.6529  -15.3497  H     
38   H        33.3900   -7.7673  -17.1552  H     
39   H        31.0437   -7.3221  -16.8295  H     
40   H        29.0574   -7.3332  -15.4990  H     
41   H        29.1854   -9.3463  -13.2055  H     
42   H        28.6239   -5.1942  -14.8295  H     
43   H        27.6730   -5.6806  -13.4154  H     
44   H        29.6829   -4.5865  -12.0503  H     
45   H        30.0867   -3.8243  -13.5882  H     
46   H        27.5253   -3.5112  -11.9436  H     
47   H        28.7677   -2.3090  -12.2154  H     
48   H        27.7837  -12.0047  -15.6129  H     
49   H        28.3744  -11.8482  -13.9535  H     
50   H        28.3549   -9.7061  -16.1332  H     
51   H        29.7599  -10.4301  -15.3475  H     
52   H        27.2042   -7.8593  -12.9734  H     
53   H        26.6922   -8.2496  -14.5918  H     
54   H        25.9005  -10.4808  -15.1483  H     
55   H        25.9179  -11.7860  -13.9846  H     
56   H        26.7809   -8.3634  -11.2579  H     
57   H        25.7811  -10.3089   -9.3441  H     
58   H        26.3370   -7.3335   -9.1064  H     
59   H        24.7860   -8.0507   -9.5212  H     
60   H        26.0174   -7.6518   -6.9857  H     
61   H        24.4373   -7.7364   -7.4552  H     
62   H        27.8235   -9.3634   -7.8893  H     
63   H        27.8796  -10.8511   -8.7948  H     
64   H        29.3054  -10.0511  -10.4384  H     
65   H        30.1360   -7.8410  -10.8373  H     
66   H        28.3913   -7.7230  -10.8940  H     
67   H        30.3476  -10.5025   -8.1538  H     
68   H        31.3127   -9.5140   -9.2398  H     
69   H        29.6677   -8.5027   -6.8563  H     
70   H        31.4201   -8.5420   -7.0021  H     
71   H        30.3960   -6.2440   -7.4032  H     
72   H        31.4079   -6.8237   -8.7395  H     
73   H        29.3867   -5.8251   -9.6577  H     
74   H        28.3409   -6.7839   -8.5932  H     
75   H        24.5727  -10.2044   -7.4047  H     
76   H        24.6761   -9.3354   -5.8596  H     
77   H        26.1504   -9.9455   -6.6133  H     
78   H        26.0611   -2.7273  -15.2101  H     
79   H        26.2994   -4.1898  -14.2681  H     
80   H        25.3616   -3.0112  -12.2538  H     
81   H        24.2107   -3.0759  -13.5927  H     
82   H        25.0852   -1.5660  -13.2482  H     
@<TRIPOS>BOND
     1    1    2 1
     2    1    6 2
     3    1    7 1
     4    2    3 2
     5    3    4 1
     6    3   35 1
     7    4    5 2
     8    5    6 1
     9    7    8 1
    10    7    9 1
    11    8   15 1
    12    8   16 1
    13    9   10 1
    14   10   11 1
    15   11   12 1
    16   12   13 1
    17   13   33 1
    18   14   15 1
    19   14   18 1
    20   16   17 1
    21   17   18 1
    22   17   19 1
    23   19   20 2
    24   19   21 am
    25   21   22 1
    26   22   23 1
    27   22   25 1
    28   23   24 1
    29   24   32 1
    30   25   26 1
    31   26   27 1
    32   26   28 1
    33   27   31 1
    34   28   29 1
    35   29   30 1
    36   30   31 1
    37   33   34 1
    38    2   36 1
    39    4   37 1
    40    5   38 1
    41    6   39 1
    42    7   40 1
    43    8   41 1
    44   10   42 1
    45   10   43 1
    46   11   44 1
    47   11   45 1
    48   12   46 1
    49   12   47 1
    50   14   48 1
    51   14   49 1
    52   15   50 1
    53   15   51 1
    54   16   52 1
    55   16   53 1
    56   18   54 1
    57   18   55 1
    58   21   56 1
    59   22   57 1
    60   23   58 1
    61   23   59 1
    62   24   60 1
    63   24   61 1
    64   25   62 1
    65   25   63 1
    66   26   64 1
    67   27   65 1
    68   27   66 1
    69   28   67 1
    70   28   68 1
    71   29   69 1
    72   29   70 1
    73   30   71 1
    74   30   72 1
    75   31   73 1
    76   31   74 1
    77   32   75 1
    78   32   76 1
    79   32   77 1
    80   33   78 1
    81   33   79 1
    82   34   80 1
    83   34   81 1
    84   34   82 1
@<TRIPOS>PROPERTY_DATA
  Total_Score	| 14.8088
  Crash		| -2.3914
  Polar		| 6.4962
  FragIndex	| 1
  FragRMSD	| 1.088

