@<TRIPOS>MOLECULE
BindingDB_50305456
 77 79 0 0 0
SMALL
NO_CHARGES


@<TRIPOS>ATOM
1    C        29.1387   -5.0705  -13.3357  C     
2    N        27.7396   -4.9031  -13.1227  N     
3    C        27.0641   -3.7713  -13.4059  C     
4    O        27.6832   -2.6872  -13.9422  O     
5    O        25.7498   -3.7286  -13.0784  O     
6    C        24.9006   -2.5987  -13.2732  C     
7    C        29.6379   -6.3921  -12.7188  C     
8    O        29.0462   -7.5954  -13.2633  O     
9    C        29.4118   -8.0205  -14.6010  C     
10   C        31.7314   -8.6291  -13.7495  C     
11   C        33.1225   -8.7571  -13.9393  C     
12   C        33.6921   -8.4555  -15.1926  C     
13   C        32.8776   -7.9896  -16.2384  C     
14   C        31.4918   -7.8443  -16.0383  C     
15   C        30.8937   -8.1741  -14.7968  C     
16   C        28.6413   -9.3332  -15.0161  C     
17   C        28.3643  -10.3399  -13.8517  C     
18   N        27.2368   -9.9733  -12.9872  N     
19   C        25.9912   -9.7347  -13.6959  C     
20   C        26.1640   -8.6855  -14.8233  C     
21   C        27.3075   -9.0791  -15.7824  C     
22   C        27.3335   -9.9584  -11.6404  C     
23   O        28.3784  -10.3130  -11.1237  O     
24   N        26.3385   -9.6376  -10.8137  N     
25   C        26.2398   -9.5848   -9.3655  C     
26   C        25.5382   -8.2471   -9.0222  C     
27   C        27.4654   -9.8964   -8.4268  C     
28   C        28.7283   -8.9534   -8.2472  C     
29   C        30.0182   -9.6385   -8.8266  C     
30   C        31.3100   -8.8145   -8.6247  C     
31   C        31.1486   -7.3939   -9.2155  C     
32   C        29.9470   -6.6720   -8.5599  C     
33   C        28.6192   -7.4634   -8.7220  C     
34   N        25.2951   -7.9954   -7.5878  N     
35   Cl       34.1027   -9.2580  -12.6519  Cl    
36   H        29.3528   -5.0443  -14.4056  H     
37   H        29.6811   -4.2503  -12.8544  H     
38   H        27.2524   -5.6292  -12.6981  H     
39   H        25.2818   -1.7344  -12.7259  H     
40   H        23.9004   -2.8351  -12.9099  H     
41   H        24.8551   -2.3597  -14.3356  H     
42   H        30.7287   -6.4150  -12.7723  H     
43   H        29.3796   -6.3764  -11.6611  H     
44   H        29.0773   -7.2306  -15.2772  H     
45   H        31.3301   -8.8358  -12.8311  H     
46   H        34.6958   -8.5632  -15.3478  H     
47   H        33.2981   -7.7571  -17.1403  H     
48   H        30.9206   -7.5022  -16.8135  H     
49   H        29.2736   -9.8582  -15.7408  H     
50   H        28.1322  -11.3130  -14.2938  H     
51   H        29.3013  -10.4755  -13.3140  H     
52   H        25.6584  -10.6805  -14.1354  H     
53   H        25.1779   -9.3859  -13.0631  H     
54   H        25.2341   -8.6042  -15.3944  H     
55   H        26.3880   -7.7121  -14.3790  H     
56   H        27.4376   -8.3088  -16.5468  H     
57   H        27.0126   -9.9942  -16.3085  H     
58   H        25.5005   -9.4359  -11.2514  H     
59   H        25.5021  -10.3602   -9.1323  H     
60   H        26.1616   -7.4599   -9.4140  H     
61   H        24.5785   -8.1834   -9.5400  H     
62   H        27.0467  -10.0351   -7.4245  H     
63   H        27.7931  -10.9056   -8.6905  H     
64   H        28.9082   -8.8852   -7.1670  H     
65   H        30.1614  -10.6163   -8.3563  H     
66   H        29.9093   -9.8040   -9.8962  H     
67   H        31.5347   -8.7588   -7.5579  H     
68   H        32.1488   -9.3188   -9.1129  H     
69   H        32.0594   -6.8187   -9.0382  H     
70   H        31.0033   -7.4585  -10.2971  H     
71   H        30.1557   -6.5339   -7.4946  H     
72   H        29.8360   -5.6790   -9.0032  H     
73   H        28.3234   -7.4515   -9.7718  H     
74   H        27.8702   -6.9035   -8.1392  H     
75   H        24.6545   -8.7053   -7.2157  H     
76   H        24.8832   -7.0671   -7.4670  H     
77   H        26.1722   -8.0130   -7.0572  H     
@<TRIPOS>BOND
     1    1    2 1
     2    1    7 1
     3    2    3 am
     4    3    4 2
     5    3    5 1
     6    5    6 1
     7    7    8 1
     8    8    9 1
     9    9   15 1
    10    9   16 1
    11   10   11 2
    12   10   15 1
    13   11   12 1
    14   11   35 1
    15   12   13 2
    16   13   14 1
    17   14   15 2
    18   16   17 1
    19   16   21 1
    20   17   18 1
    21   18   19 1
    22   18   22 1
    23   19   20 1
    24   20   21 1
    25   22   23 2
    26   22   24 am
    27   24   25 1
    28   25   26 1
    29   25   27 1
    30   26   34 1
    31   27   28 1
    32   28   29 1
    33   28   33 1
    34   29   30 1
    35   30   31 1
    36   31   32 1
    37   32   33 1
    38    1   36 1
    39    1   37 1
    40    2   38 1
    41    6   39 1
    42    6   40 1
    43    6   41 1
    44    7   42 1
    45    7   43 1
    46    9   44 1
    47   10   45 1
    48   12   46 1
    49   13   47 1
    50   14   48 1
    51   16   49 1
    52   17   50 1
    53   17   51 1
    54   19   52 1
    55   19   53 1
    56   20   54 1
    57   20   55 1
    58   21   56 1
    59   21   57 1
    60   24   58 1
    61   25   59 1
    62   26   60 1
    63   26   61 1
    64   27   62 1
    65   27   63 1
    66   28   64 1
    67   29   65 1
    68   29   66 1
    69   30   67 1
    70   30   68 1
    71   31   69 1
    72   31   70 1
    73   32   71 1
    74   32   72 1
    75   33   73 1
    76   33   74 1
    77   34   75 1
    78   34   76 1
    79   34   77 1
@<TRIPOS>PROPERTY_DATA
  Total_Score	| 10.6950
  Crash		| -3.3859
  Polar		| 4.6189
  FragIndex	| 1
  FragRMSD	| 1.258

