@<TRIPOS>MOLECULE
BindingDB_50382332
 78 80 0 0 0
SMALL
NO_CHARGES


@<TRIPOS>ATOM
1    C        28.7920   -9.8052  -14.6924  C     
2    C        28.2662  -10.4559  -13.3658  C     
3    N        26.8838  -10.1281  -13.0137  N     
4    C        25.9231  -10.3856  -14.0870  C     
5    C        26.3116   -9.6211  -15.3716  C     
6    C        27.7330  -10.0498  -15.8160  C     
7    C        27.4969   -3.2967  -12.9477  C     
8    N        28.6652   -3.9531  -12.8400  N     
9    O        27.5490   -1.9908  -13.3008  O     
10   O        26.2863   -3.8999  -12.7917  O     
11   C        24.9984   -3.2922  -12.9495  C     
12   C        28.8312   -5.3242  -12.4889  C     
13   C        28.2288   -6.2977  -13.5313  C     
14   O        28.7811   -7.6312  -13.3962  O     
15   C        29.2837   -8.3031  -14.5859  C     
16   C        30.7790   -8.1917  -14.6553  C     
17   C        31.4179   -7.7937  -15.8576  C     
18   C        32.8167   -7.8702  -15.9910  C     
19   C        33.5992   -8.3373  -14.9256  C     
20   C        32.9872   -8.6858  -13.7061  C     
21   C        31.5886   -8.5884  -13.5643  C     
22   C        26.5019   -9.6709  -11.8029  C     
23   O        25.3283   -9.4032  -11.5883  O     
24   N        27.3532   -9.4989  -10.7883  N     
25   C        27.2054   -8.8858   -9.4873  C     
26   C        25.7427   -8.5733   -9.0271  C     
27   C        28.1558   -7.6257   -9.4813  C     
28   C        29.2007   -7.5088   -8.3175  C     
29   C        30.2165   -8.6953   -8.2097  C     
30   C        31.3231   -8.6286   -9.2946  C     
31   O        31.9872   -7.3464   -9.3180  O     
32   C        31.1039   -6.2227   -9.5149  C     
33   C        30.0153   -6.1738   -8.4077  C     
34   N        25.5313   -8.3172   -7.5796  N     
35   C        25.5204   -9.5058   -6.6998  C     
36   Cl       33.9357   -9.2794  -12.4350  Cl    
37   H        29.6505  -10.4108  -15.0021  H     
38   H        28.3106  -11.5516  -13.4756  H     
39   H        28.9894  -10.2133  -12.5900  H     
40   H        25.9028  -11.4632  -14.2992  H     
41   H        24.8968  -10.1036  -13.8464  H     
42   H        25.5856   -9.8399  -16.1702  H     
43   H        26.2842   -8.5425  -15.1856  H     
44   H        27.9984   -9.5162  -16.7297  H     
45   H        27.6984  -11.1131  -16.0665  H     
46   H        29.4771   -3.4406  -12.9923  H     
47   H        25.0392   -2.1998  -12.9679  H     
48   H        24.3627   -3.6050  -12.1229  H     
49   H        24.5569   -3.6429  -13.8816  H     
50   H        29.8996   -5.5208  -12.4032  H     
51   H        28.3739   -5.4970  -11.5131  H     
52   H        27.1531   -6.3920  -13.3590  H     
53   H        28.3653   -5.8699  -14.5318  H     
54   H        28.8764   -7.7954  -15.4677  H     
55   H        30.8633   -7.5116  -16.6713  H     
56   H        33.2593   -7.6196  -16.8747  H     
57   H        34.6042   -8.4356  -15.0500  H     
58   H        31.1602   -8.8641  -12.6810  H     
59   H        28.2554   -9.7857  -10.9636  H     
60   H        27.5961   -9.6285   -8.7882  H     
61   H        25.3874   -7.7082   -9.6071  H     
62   H        25.1043   -9.4164   -9.3128  H     
63   H        28.7258   -7.5692  -10.4139  H     
64   H        27.5442   -6.7178   -9.4678  H     
65   H        28.6299   -7.4756   -7.3824  H     
66   H        30.7039   -8.6519   -7.2247  H     
67   H        29.7076   -9.6627   -8.2793  H     
68   H        32.0778   -9.3900   -9.0924  H     
69   H        30.8948   -8.8412  -10.2753  H     
70   H        31.7064   -5.3129   -9.4746  H     
71   H        30.6591   -6.2598  -10.5154  H     
72   H        29.3557   -5.3198   -8.5845  H     
73   H        30.5082   -5.9939   -7.4482  H     
74   H        26.2379   -7.6666   -7.2380  H     
75   H        24.6141   -7.8882   -7.4743  H     
76   H        24.7247  -10.1918   -6.9985  H     
77   H        26.4776  -10.0263   -6.7351  H     
78   H        25.3247   -9.1861   -5.6733  H     
@<TRIPOS>BOND
     1    1    2 1
     2    1    6 1
     3    1   15 1
     4    2    3 1
     5    3    4 1
     6    3   22 1
     7    4    5 1
     8    5    6 1
     9    7    8 am
    10    7    9 2
    11    7   10 1
    12    8   12 1
    13   10   11 1
    14   12   13 1
    15   13   14 1
    16   15   14 1
    17   15   16 1
    18   16   17 2
    19   16   21 1
    20   17   18 1
    21   18   19 2
    22   19   20 1
    23   20   21 2
    24   20   36 1
    25   22   23 2
    26   22   24 am
    27   25   24 1
    28   25   26 1
    29   25   27 1
    30   26   34 1
    31   27   28 1
    32   28   29 1
    33   28   33 1
    34   29   30 1
    35   30   31 1
    36   31   32 1
    37   32   33 1
    38   34   35 1
    39    1   37 1
    40    2   38 1
    41    2   39 1
    42    4   40 1
    43    4   41 1
    44    5   42 1
    45    5   43 1
    46    6   44 1
    47    6   45 1
    48    8   46 1
    49   11   47 1
    50   11   48 1
    51   11   49 1
    52   12   50 1
    53   12   51 1
    54   13   52 1
    55   13   53 1
    56   15   54 1
    57   17   55 1
    58   18   56 1
    59   19   57 1
    60   21   58 1
    61   24   59 1
    62   25   60 1
    63   26   61 1
    64   26   62 1
    65   27   63 1
    66   27   64 1
    67   28   65 1
    68   29   66 1
    69   29   67 1
    70   30   68 1
    71   30   69 1
    72   32   70 1
    73   32   71 1
    74   33   72 1
    75   33   73 1
    76   34   74 1
    77   34   75 1
    78   35   76 1
    79   35   77 1
    80   35   78 1
@<TRIPOS>PROPERTY_DATA
  Total_Score	| 12.2756
  Crash		| -2.5963
  Polar		| 4.7979
  FragIndex	| 1
  FragRMSD	| 1.088

