@<TRIPOS>MOLECULE
BindingDB_50305452
 80 82 0 0 0
SMALL
NO_CHARGES


@<TRIPOS>ATOM
1    C        28.8100   -4.6328  -12.4404  C     
2    N        28.5053   -3.3055  -12.8454  N     
3    C        27.2633   -2.8118  -13.0334  C     
4    O        27.1492   -1.5837  -13.5887  O     
5    O        26.1474   -3.4978  -12.6648  O     
6    C        24.8022   -3.0617  -12.8756  C     
7    C        28.6904   -5.6053  -13.6281  C     
8    O        29.5852   -6.7176  -13.4557  O     
9    C        29.6050   -7.7054  -14.5155  C     
10   C        31.8989   -8.4645  -13.7860  C     
11   C        33.2582   -8.7234  -14.0308  C     
12   C        33.7846   -8.5110  -15.3166  C     
13   C        32.9554   -8.0236  -16.3457  C     
14   C        31.5973   -7.7546  -16.0876  C     
15   C        31.0420   -7.9836  -14.8033  C     
16   C        28.8009   -8.9580  -14.0398  C     
17   C        27.3595   -8.5908  -13.5549  C     
18   N        26.6943   -9.7869  -13.0683  N     
19   C        26.4767  -10.7944  -14.1063  C     
20   C        27.8398  -11.2641  -14.6776  C     
21   C        28.6982  -10.0600  -15.1457  C     
22   C        26.4548  -10.0223  -11.7628  C     
23   O        25.9927  -11.1052  -11.4314  O     
24   N        26.7579   -9.1706  -10.7850  N     
25   C        26.6960   -9.3812   -9.3572  C     
26   C        25.7093   -8.3550   -8.7193  C     
27   C        28.1407   -9.3628   -8.7579  C     
28   C        28.8707   -7.9926   -8.5195  C     
29   C        29.8936   -8.0574   -7.3387  C     
30   C        31.1760   -8.8628   -7.6794  C     
31   C        31.8565   -8.3508   -8.9800  C     
32   C        30.8626   -8.2040  -10.1630  C     
33   C        29.5871   -7.4113   -9.7771  C     
34   N        25.3555   -8.4326   -7.2722  N     
35   C        25.7454   -9.6056   -6.4526  C     
36   Cl       34.2471   -9.2883  -12.7738  Cl    
37   H        29.8341   -4.6607  -12.0733  H     
38   H        28.1504   -4.9390  -11.6261  H     
39   H        29.2536   -2.7355  -13.0920  H     
40   H        24.6799   -2.0178  -12.5834  H     
41   H        24.1415   -3.6714  -12.2643  H     
42   H        24.5319   -3.1780  -13.9262  H     
43   H        27.6599   -5.9639  -13.7075  H     
44   H        28.9468   -5.0724  -14.5516  H     
45   H        29.1104   -7.3355  -15.4238  H     
46   H        31.5325   -8.6332  -12.8496  H     
47   H        34.7677   -8.7176  -15.5122  H     
48   H        33.3414   -7.8704  -17.2801  H     
49   H        31.0157   -7.3970  -16.8472  H     
50   H        29.3203   -9.3991  -13.1877  H     
51   H        27.4158   -7.8024  -12.8054  H     
52   H        26.7901   -8.1595  -14.3896  H     
53   H        25.9290  -11.6737  -13.7596  H     
54   H        25.8701  -10.3621  -14.9143  H     
55   H        28.3781  -11.8068  -13.8984  H     
56   H        27.6751  -11.9515  -15.5151  H     
57   H        28.2467   -9.6355  -16.0518  H     
58   H        29.6955  -10.4242  -15.4118  H     
59   H        27.0965   -8.3089  -11.0583  H     
60   H        26.2838  -10.3722   -9.1599  H     
61   H        26.1193   -7.3511   -8.8695  H     
62   H        24.7591   -8.4042   -9.2654  H     
63   H        28.0963   -9.8821   -7.8020  H     
64   H        28.7699   -9.9989   -9.3831  H     
65   H        28.0963   -7.2605   -8.2392  H     
66   H        30.1695   -7.0362   -7.0552  H     
67   H        29.4134   -8.5044   -6.4639  H     
68   H        31.8763   -8.7736   -6.8489  H     
69   H        30.9249   -9.9216   -7.7936  H     
70   H        32.3165   -7.3755   -8.7787  H     
71   H        32.6538   -9.0463   -9.2616  H     
72   H        31.3711   -7.6766  -10.9750  H     
73   H        30.5883   -9.1973  -10.5236  H     
74   H        28.9040   -7.3889  -10.6250  H     
75   H        29.8698   -6.3726   -9.5719  H     
76   H        25.7382   -7.6002   -6.7982  H     
77   H        24.3275   -8.3862   -7.2067  H     
78   H        25.4910  -10.5420   -6.9534  H     
79   H        25.1933   -9.5625   -5.5056  H     
80   H        26.8102   -9.5641   -6.2199  H     
@<TRIPOS>BOND
     1    1    2 1
     2    1    7 1
     3    2    3 am
     4    3    4 2
     5    3    5 1
     6    5    6 1
     7    7    8 1
     8    8    9 1
     9    9   15 1
    10    9   16 1
    11   10   11 2
    12   10   15 1
    13   11   12 1
    14   11   36 1
    15   12   13 2
    16   13   14 1
    17   14   15 2
    18   16   17 1
    19   16   21 1
    20   17   18 1
    21   18   19 1
    22   18   22 1
    23   19   20 1
    24   20   21 1
    25   22   23 2
    26   22   24 am
    27   24   25 1
    28   25   26 1
    29   25   27 1
    30   26   34 1
    31   27   28 1
    32   28   29 1
    33   28   33 1
    34   29   30 1
    35   30   31 1
    36   31   32 1
    37   32   33 1
    38   34   35 1
    39    1   37 1
    40    1   38 1
    41    2   39 1
    42    6   40 1
    43    6   41 1
    44    6   42 1
    45    7   43 1
    46    7   44 1
    47    9   45 1
    48   10   46 1
    49   12   47 1
    50   13   48 1
    51   14   49 1
    52   16   50 1
    53   17   51 1
    54   17   52 1
    55   19   53 1
    56   19   54 1
    57   20   55 1
    58   20   56 1
    59   21   57 1
    60   21   58 1
    61   24   59 1
    62   25   60 1
    63   26   61 1
    64   26   62 1
    65   27   63 1
    66   27   64 1
    67   28   65 1
    68   29   66 1
    69   29   67 1
    70   30   68 1
    71   30   69 1
    72   31   70 1
    73   31   71 1
    74   32   72 1
    75   32   73 1
    76   33   74 1
    77   33   75 1
    78   34   76 1
    79   34   77 1
    80   35   78 1
    81   35   79 1
    82   35   80 1
@<TRIPOS>PROPERTY_DATA
  Total_Score	| 13.5251
  Crash		| -2.3741
  Polar		| 6.3483
  FragIndex	| 1
  FragRMSD	| 0.565

