@<TRIPOS>MOLECULE
BindingDB_29930
 76 78 0 0 0
SMALL
NO_CHARGES


@<TRIPOS>ATOM
1    C        30.8974   -7.8719  -14.6866  C     
2    C        31.7306   -8.3500  -13.6435  C     
3    C        33.0951   -8.6217  -13.8631  C     
4    C        33.6544   -8.4025  -15.1379  C     
5    C        32.8495   -7.9187  -16.1815  C     
6    C        31.4855   -7.6471  -15.9564  C     
7    C        29.4339   -7.6403  -14.4561  C     
8    C        28.6727   -8.9348  -13.9975  C     
9    O        29.3415   -6.6052  -13.4436  O     
10   C        28.4559   -5.4968  -13.6841  C     
11   C        28.5196   -4.5079  -12.4954  C     
12   C        27.4272   -3.4132  -12.5277  C     
13   O        27.5978   -2.5144  -13.6186  O     
14   C        27.9578  -11.3383  -14.6012  C     
15   C        28.7506  -10.0850  -15.0517  C     
16   C        27.1720   -8.6760  -13.6448  C     
17   N        26.5546   -9.9065  -13.1659  N     
18   C        26.5168  -10.9686  -14.1660  C     
19   C        26.1918  -10.1241  -11.8871  C     
20   O        25.8465  -11.2403  -11.5364  O     
21   N        26.3034   -9.1979  -10.9331  N     
22   C        26.2462   -9.3822   -9.5073  C     
23   C        25.6023   -8.1069   -8.8839  C     
24   N        25.3426   -8.1075   -7.4196  N     
25   C        27.6521   -9.7501   -8.9157  C     
26   C        28.9609   -9.3246   -9.6728  C     
27   C        29.0307   -7.8631  -10.2053  C     
28   C        30.2523   -9.5821   -8.8290  C     
29   C        30.4783   -8.5344   -7.6998  C     
30   C        30.4381   -7.0786   -8.2390  C     
31   C        29.1715   -6.8119   -9.0808  C     
32   Cl       34.0492   -9.2393  -12.6073  Cl    
33   C        24.9470   -9.3893   -6.8029  C     
34   H        31.3414   -8.5104  -12.7118  H     
35   H        34.6434   -8.6044  -15.3124  H     
36   H        33.2541   -7.7686  -17.1095  H     
37   H        30.9216   -7.2957  -16.7335  H     
38   H        28.9645   -7.3128  -15.3957  H     
39   H        29.1477   -9.2947  -13.0784  H     
40   H        28.7459   -4.9843  -14.6066  H     
41   H        27.4291   -5.8580  -13.7912  H     
42   H        28.3978   -5.0698  -11.5683  H     
43   H        29.5069   -4.0376  -12.4707  H     
44   H        26.4382   -3.8734  -12.5968  H     
45   H        27.4681   -2.8342  -11.6035  H     
46   H        27.5317   -3.0646  -14.4274  H     
47   H        27.9295  -12.0650  -15.4180  H     
48   H        28.4748  -11.8006  -13.7572  H     
49   H        28.3518   -9.7329  -16.0086  H     
50   H        29.7924  -10.3750  -15.2154  H     
51   H        27.1086   -7.8661  -12.9253  H     
52   H        26.6423   -8.3233  -14.5334  H     
53   H        25.9516  -10.6322  -15.0398  H     
54   H        26.0313  -11.8862  -13.8240  H     
55   H        26.6082   -8.3069  -11.2054  H     
56   H        25.5536  -10.1968   -9.2867  H     
57   H        26.2536   -7.2559   -9.0781  H     
58   H        24.6566   -7.8968   -9.3961  H     
59   H        26.1659   -7.7590   -6.9255  H     
60   H        24.6047   -7.4160   -7.2471  H     
61   H        27.7104   -9.4038   -7.8811  H     
62   H        27.6844  -10.8423   -8.8554  H     
63   H        29.0337   -9.9843  -10.5412  H     
64   H        29.8883   -7.7724  -10.8739  H     
65   H        28.1371   -7.6450  -10.8127  H     
66   H        30.2287  -10.5817   -8.3867  H     
67   H        31.1189   -9.5474   -9.4946  H     
68   H        29.7185   -8.6500   -6.9217  H     
69   H        31.4518   -8.7082   -7.2344  H     
70   H        30.4539   -6.3771   -7.3986  H     
71   H        31.3267   -6.8908   -8.8523  H     
72   H        29.2342   -5.8124   -9.5204  H     
73   H        28.2920   -6.8318   -8.4328  H     
74   H        24.0733   -9.8180   -7.3002  H     
75   H        24.6987   -9.2193   -5.7504  H     
76   H        25.7692  -10.1076   -6.8446  H     
@<TRIPOS>BOND
     1    1    2 1
     2    1    6 2
     3    1    7 1
     4    2    3 2
     5    3    4 1
     6    3   32 1
     7    4    5 2
     8    5    6 1
     9    7    8 1
    10    7    9 1
    11    8   15 1
    12    8   16 1
    13    9   10 1
    14   10   11 1
    15   11   12 1
    16   12   13 1
    17   14   15 1
    18   14   18 1
    19   16   17 1
    20   17   18 1
    21   17   19 1
    22   19   20 2
    23   19   21 am
    24   21   22 1
    25   22   23 1
    26   22   25 1
    27   23   24 1
    28   24   33 1
    29   25   26 1
    30   26   27 1
    31   26   28 1
    32   27   31 1
    33   28   29 1
    34   29   30 1
    35   30   31 1
    36    2   34 1
    37    4   35 1
    38    5   36 1
    39    6   37 1
    40    7   38 1
    41    8   39 1
    42   10   40 1
    43   10   41 1
    44   11   42 1
    45   11   43 1
    46   12   44 1
    47   12   45 1
    48   13   46 1
    49   14   47 1
    50   14   48 1
    51   15   49 1
    52   15   50 1
    53   16   51 1
    54   16   52 1
    55   18   53 1
    56   18   54 1
    57   21   55 1
    58   22   56 1
    59   23   57 1
    60   23   58 1
    61   24   59 1
    62   24   60 1
    63   25   61 1
    64   25   62 1
    65   26   63 1
    66   27   64 1
    67   27   65 1
    68   28   66 1
    69   28   67 1
    70   29   68 1
    71   29   69 1
    72   30   70 1
    73   30   71 1
    74   31   72 1
    75   31   73 1
    76   33   74 1
    77   33   75 1
    78   33   76 1
@<TRIPOS>PROPERTY_DATA
  Total_Score	| 12.8246
  Crash		| -1.9808
  Polar		| 6.1997
  FragIndex	| 1
  FragRMSD	| 0.980

