@<TRIPOS>MOLECULE
BindingDB_50305463
 80 82 0 0 0
SMALL
NO_CHARGES


@<TRIPOS>ATOM
1    C        29.2968   -4.2993  -12.6102  C     
2    N        27.9007   -4.4690  -12.3745  N     
3    C        26.9153   -3.9421  -13.1301  C     
4    O        25.6401   -4.2832  -12.8324  O     
5    O        27.1764   -3.1127  -14.1730  O     
6    C        26.1986   -2.5857  -15.0686  C     
7    C        29.7977   -5.2108  -13.7569  C     
8    O        29.4918   -6.5769  -13.4075  O     
9    C        29.5712   -7.5645  -14.4580  C     
10   C        31.8572   -8.3414  -13.7533  C     
11   C        33.2026   -8.6698  -14.0117  C     
12   C        33.7228   -8.4967  -15.3063  C     
13   C        32.9035   -7.9925  -16.3333  C     
14   C        31.5462   -7.6821  -16.0726  C     
15   C        31.0055   -7.8546  -14.7736  C     
16   C        28.7806   -8.8399  -13.9956  C     
17   C        27.2914   -8.5353  -13.6278  C     
18   N        26.5975   -9.7581  -13.2347  N     
19   C        26.5375  -10.7573  -14.2942  C     
20   C        27.9729  -11.2054  -14.6544  C     
21   C        28.8395   -9.9896  -15.0594  C     
22   C        26.2027  -10.0345  -11.9760  C     
23   O        25.7836  -11.1604  -11.7065  O     
24   N        26.3068   -9.1736  -10.9611  N     
25   C        26.1992   -9.4788   -9.5579  C     
26   C        25.7478   -8.1997   -8.7807  C     
27   C        27.5508  -10.1090   -9.0980  C     
28   C        28.7894   -9.1430   -9.0663  C     
29   C        29.3696   -8.9739   -7.6282  C     
30   C        30.6492   -8.0889   -7.5763  C     
31   C        31.7312   -8.5925   -8.5665  C     
32   C        31.1664   -8.7089  -10.0045  C     
33   C        29.9067   -9.6188  -10.0423  C     
34   N        25.3619   -8.3044   -7.3426  N     
35   C        25.6829   -9.4793   -6.5150  C     
36   F        30.8200   -7.2543  -17.0685  F     
37   Cl       34.1749   -9.2950  -12.7740  Cl    
38   H        29.5227   -3.2519  -12.8313  H     
39   H        29.8289   -4.5749  -11.6976  H     
40   H        27.6359   -5.0539  -11.6445  H     
41   H        25.6991   -3.3941  -15.6075  H     
42   H        26.7000   -1.9383  -15.7880  H     
43   H        25.4553   -2.0065  -14.5171  H     
44   H        29.3030   -4.9198  -14.6882  H     
45   H        30.8759   -5.0722  -13.8742  H     
46   H        29.0472   -7.1720  -15.3318  H     
47   H        31.4940   -8.4649  -12.8072  H     
48   H        34.6921   -8.7459  -15.5144  H     
49   H        33.2830   -7.8819  -17.2752  H     
50   H        29.2555   -9.2158  -13.0832  H     
51   H        27.2725   -7.7686  -12.8488  H     
52   H        26.7786   -8.0900  -14.4904  H     
53   H        25.9553  -11.6482  -14.0330  H     
54   H        26.0452  -10.3285  -15.1754  H     
55   H        28.4222  -11.7016  -13.7913  H     
56   H        27.9406  -11.9245  -15.4758  H     
57   H        28.4912   -9.6117  -16.0221  H     
58   H        29.8662  -10.3294  -15.1805  H     
59   H        26.6122   -8.2825  -11.1793  H     
60   H        25.4059  -10.2188   -9.4100  H     
61   H        26.5065   -7.4305   -8.8848  H     
62   H        24.8561   -7.8120   -9.2805  H     
63   H        27.4293  -10.5628   -8.1137  H     
64   H        27.7508  -10.9451   -9.7822  H     
65   H        28.4801   -8.1452   -9.4139  H     
66   H        28.6152   -8.5338   -6.9781  H     
67   H        29.6235   -9.9502   -7.2134  H     
68   H        30.3922   -7.0521   -7.8105  H     
69   H        31.0516   -8.1169   -6.5605  H     
70   H        32.5779   -7.8970   -8.5748  H     
71   H        32.1001   -9.5726   -8.2408  H     
72   H        30.9010   -7.7113  -10.3643  H     
73   H        31.9366   -9.1160  -10.6647  H     
74   H        30.1946  -10.6504   -9.8044  H     
75   H        29.5142   -9.6026  -11.0611  H     
76   H        25.7933   -7.5052   -6.8779  H     
77   H        24.3481   -8.1815   -7.2875  H     
78   H        25.1246  -10.3496   -6.8471  H     
79   H        25.3822   -9.2651   -5.4810  H     
80   H        26.7640   -9.6904   -6.5256  H     
@<TRIPOS>BOND
     1    1    2 1
     2    1    7 1
     3    2    3 am
     4    3    4 2
     5    3    5 1
     6    5    6 1
     7    7    8 1
     8    8    9 1
     9    9   15 1
    10    9   16 1
    11   10   11 2
    12   10   15 1
    13   11   12 1
    14   11   37 1
    15   12   13 2
    16   13   14 1
    17   14   15 2
    18   14   36 1
    19   16   17 1
    20   16   21 1
    21   17   18 1
    22   18   19 1
    23   18   22 1
    24   19   20 1
    25   20   21 1
    26   22   23 2
    27   22   24 am
    28   24   25 1
    29   25   26 1
    30   25   27 1
    31   26   34 1
    32   27   28 1
    33   28   29 1
    34   28   33 1
    35   29   30 1
    36   30   31 1
    37   31   32 1
    38   32   33 1
    39   34   35 1
    40    1   38 1
    41    1   39 1
    42    2   40 1
    43    6   41 1
    44    6   42 1
    45    6   43 1
    46    7   44 1
    47    7   45 1
    48    9   46 1
    49   10   47 1
    50   12   48 1
    51   13   49 1
    52   16   50 1
    53   17   51 1
    54   17   52 1
    55   19   53 1
    56   19   54 1
    57   20   55 1
    58   20   56 1
    59   21   57 1
    60   21   58 1
    61   24   59 1
    62   25   60 1
    63   26   61 1
    64   26   62 1
    65   27   63 1
    66   27   64 1
    67   28   65 1
    68   29   66 1
    69   29   67 1
    70   30   68 1
    71   30   69 1
    72   31   70 1
    73   31   71 1
    74   32   72 1
    75   32   73 1
    76   33   74 1
    77   33   75 1
    78   34   76 1
    79   34   77 1
    80   35   78 1
    81   35   79 1
    82   35   80 1
@<TRIPOS>PROPERTY_DATA
  Total_Score	| 12.5423
  Crash		| -4.1671
  Polar		| 6.0144
  FragIndex	| 1
  FragRMSD	| 0.841

