@<TRIPOS>MOLECULE
BindingDB_50382334
 78 80 0 0 0
SMALL
NO_CHARGES


@<TRIPOS>ATOM
1    C        27.5936   -3.3711  -13.2363  C     
2    N        28.7987   -3.9328  -13.0077  N     
3    O        27.5468   -2.3316  -14.1046  O     
4    O        26.4535   -3.8019  -12.6354  O     
5    C        29.0614   -5.0334  -12.1265  C     
6    C        29.7301   -6.2410  -12.8254  C     
7    O        29.0770   -6.5760  -14.0584  O     
8    C        29.3728   -7.8419  -14.6964  C     
9    N        26.4456   -9.9492  -13.2349  N     
10   C        27.0946   -8.7718  -13.8076  C     
11   C        28.6133   -9.0655  -14.0508  C     
12   C        28.7452  -10.3513  -14.9389  C     
13   C        27.9241  -11.5418  -14.3860  C     
14   C        26.4633  -11.1170  -14.1103  C     
15   C        25.9483   -9.9906  -11.9884  C     
16   N        25.8985   -8.9505  -11.1630  N     
17   O        25.4958  -11.0588  -11.5555  O     
18   C        25.2865   -8.8812   -9.8670  C     
19   C        26.2554   -8.4447   -8.7260  C     
20   C        27.5183   -9.3574   -8.5394  C     
21   C        29.9491  -10.0084   -9.0338  C     
22   C        28.8320   -8.9483   -9.2933  C     
23   C        29.3515   -7.5337   -8.8764  C     
24   C        30.7907   -7.2277   -9.3756  C     
25   C        31.7515   -8.4101   -9.1164  C     
26   O        31.2111   -9.6425   -9.6235  O     
27   N        25.4802   -8.2686   -7.4574  N     
28   C        25.1914   -9.4500   -6.6154  C     
29   C        30.8566   -8.0424  -14.8606  C     
30   C        31.6662   -8.5062  -13.7931  C     
31   C        33.0550   -8.6838  -13.9503  C     
32   C        33.6640   -8.3916  -15.1919  C     
33   C        32.8781   -7.9236  -16.2553  C     
34   C        31.4899   -7.7432  -16.0951  C     
35   Cl       33.9881   -9.2346  -12.6484  Cl    
36   C        25.1449   -3.2634  -12.8656  C     
37   H        29.5612   -3.5556  -13.4788  H     
38   H        29.7332   -4.6740  -11.3449  H     
39   H        28.1397   -5.3664  -11.6384  H     
40   H        30.7794   -6.0040  -13.0234  H     
41   H        29.6748   -7.1020  -12.1581  H     
42   H        28.9342   -7.7235  -15.6893  H     
43   H        26.6112   -8.5189  -14.7572  H     
44   H        27.0029   -7.8844  -13.1830  H     
45   H        29.0521   -9.2825  -13.0709  H     
46   H        28.4016  -10.1344  -15.9550  H     
47   H        29.7924  -10.6558  -15.0039  H     
48   H        27.9385  -12.3659  -15.1016  H     
49   H        28.3770  -11.8948  -13.4575  H     
50   H        25.9333  -11.9819  -13.7063  H     
51   H        25.9663  -10.8769  -15.0529  H     
52   H        26.2394   -8.1086  -11.4915  H     
53   H        24.4957   -8.1309   -9.9457  H     
54   H        24.8110   -9.8269   -9.5956  H     
55   H        26.6018   -7.4416   -8.9829  H     
56   H        27.7617   -9.4078   -7.4710  H     
57   H        27.2450  -10.3736   -8.8402  H     
58   H        30.0887  -10.1711   -7.9609  H     
59   H        29.6526  -10.9626   -9.4726  H     
60   H        28.6322   -8.9378  -10.3683  H     
61   H        28.6830   -6.7653   -9.2705  H     
62   H        29.3451   -7.4469   -7.7852  H     
63   H        30.7733   -7.0254  -10.4513  H     
64   H        31.1685   -6.3303   -8.8743  H     
65   H        32.6983   -8.2157   -9.6247  H     
66   H        31.9586   -8.5019   -8.0462  H     
67   H        25.9761   -7.5940   -6.8762  H     
68   H        24.5765   -7.8569   -7.6970  H     
69   H        24.6776  -10.2268   -7.1802  H     
70   H        24.5344   -9.1405   -5.8003  H     
71   H        26.1085   -9.8603   -6.1878  H     
72   H        31.2421   -8.7213  -12.8879  H     
73   H        34.6706   -8.5188  -15.3164  H     
74   H        33.3225   -7.7117  -17.1573  H     
75   H        30.9482   -7.3755  -16.8822  H     
76   H        25.1268   -2.1887  -12.6761  H     
77   H        24.4410   -3.7495  -12.1934  H     
78   H        24.8394   -3.4517  -13.8949  H     
@<TRIPOS>BOND
     1    1    2 am
     2    1    3 2
     3    1    4 1
     4    2    5 1
     5    4   36 1
     6    5    6 1
     7    6    7 1
     8    8    7 1
     9    8   11 1
    10    8   29 1
    11    9   10 1
    12    9   14 1
    13    9   15 1
    14   10   11 1
    15   11   12 1
    16   12   13 1
    17   13   14 1
    18   15   16 am
    19   15   17 2
    20   16   18 1
    21   18   19 1
    22   19   20 1
    23   19   27 1
    24   22   20 1
    25   21   22 1
    26   21   26 1
    27   22   23 1
    28   23   24 1
    29   24   25 1
    30   25   26 1
    31   27   28 1
    32   29   30 1
    33   29   34 2
    34   30   31 2
    35   31   32 1
    36   31   35 1
    37   32   33 2
    38   33   34 1
    39    2   37 1
    40    5   38 1
    41    5   39 1
    42    6   40 1
    43    6   41 1
    44    8   42 1
    45   10   43 1
    46   10   44 1
    47   11   45 1
    48   12   46 1
    49   12   47 1
    50   13   48 1
    51   13   49 1
    52   14   50 1
    53   14   51 1
    54   16   52 1
    55   18   53 1
    56   18   54 1
    57   19   55 1
    58   20   56 1
    59   20   57 1
    60   21   58 1
    61   21   59 1
    62   22   60 1
    63   23   61 1
    64   23   62 1
    65   24   63 1
    66   24   64 1
    67   25   65 1
    68   25   66 1
    69   27   67 1
    70   27   68 1
    71   28   69 1
    72   28   70 1
    73   28   71 1
    74   30   72 1
    75   32   73 1
    76   33   74 1
    77   34   75 1
    78   36   76 1
    79   36   77 1
    80   36   78 1
@<TRIPOS>PROPERTY_DATA
  Total_Score	| 13.9174
  Crash		| -2.2472
  Polar		| 7.5288
  FragIndex	| 1
  FragRMSD	| 0.460

