@<TRIPOS>MOLECULE
BindingDB_50305462
 80 82 0 0 0
SMALL
NO_CHARGES


@<TRIPOS>ATOM
1    C        29.2813   -4.2340  -12.5945  C     
2    N        27.8700   -4.3709  -12.3562  N     
3    C        26.9026   -3.8851  -13.1344  C     
4    O        25.6162   -4.2035  -12.8072  O     
5    O        27.1443   -3.1038  -14.2176  O     
6    C        26.1623   -2.6108  -15.1290  C     
7    C        29.7507   -5.1287  -13.7596  C     
8    O        29.6428   -6.5128  -13.3644  O     
9    C        29.6587   -7.5304  -14.3883  C     
10   C        31.9850   -8.3692  -13.7495  C     
11   C        33.3139   -8.7113  -14.0833  C     
12   C        33.7671   -8.5472  -15.4073  C     
13   C        32.8982   -8.0299  -16.3828  C     
14   C        31.5746   -7.6941  -16.0487  C     
15   C        31.0848   -7.8766  -14.7287  C     
16   C        28.8185   -8.7580  -13.8899  C     
17   C        27.3765   -8.3719  -13.4213  C     
18   N        26.7081   -9.5534  -12.8922  N     
19   C        26.4701  -10.5815  -13.9043  C     
20   C        27.8247  -11.0758  -14.4784  C     
21   C        28.7217   -9.9007  -14.9532  C     
22   C        26.5148   -9.7653  -11.5698  C     
23   O        26.1395  -10.8718  -11.1811  O     
24   N        26.8102   -8.8420  -10.6513  N     
25   C        26.8310   -8.9654   -9.2159  C     
26   C        25.3992   -8.6922   -8.6829  C     
27   C        27.8782   -7.9687   -8.6096  C     
28   C        29.2944   -7.9740   -9.2613  C     
29   C        30.0091   -6.5866   -9.1151  C     
30   C        31.3583   -6.5841   -9.8608  C     
31   C        32.2926   -7.7456   -9.4079  C     
32   C        31.5972   -9.1362   -9.3844  C     
33   C        30.2185   -9.1068   -8.6873  C     
34   N        25.2259   -8.4704   -7.2184  N     
35   Cl       34.3745   -9.3346  -12.9153  Cl    
36   C        25.6653   -9.5627   -6.3346  C     
37   F        31.5985   -8.5202  -12.5065  F     
38   H        29.5239   -3.1893  -12.7895  H     
39   H        29.8070   -4.5454  -11.6945  H     
40   H        27.6089   -4.9035  -11.5791  H     
41   H        25.6949   -3.4412  -15.6600  H     
42   H        26.6532   -1.9677  -15.8574  H     
43   H        25.3930   -2.0418  -14.6012  H     
44   H        29.1391   -4.9205  -14.6423  H     
45   H        30.7955   -4.8950  -13.9962  H     
46   H        29.1344   -7.1474  -15.2669  H     
47   H        34.7209   -8.8033  -15.6572  H     
48   H        33.2333   -7.9035  -17.3411  H     
49   H        30.9635   -7.3196  -16.7805  H     
50   H        29.3077   -9.1863  -13.0083  H     
51   H        27.4660   -7.5640  -12.6965  H     
52   H        26.7999   -7.9508  -14.2478  H     
53   H        25.9184  -11.4433  -13.5284  H     
54   H        25.8653  -10.1582  -14.7097  H     
55   H        28.3499  -11.6441  -13.7021  H     
56   H        27.6415  -11.7540  -15.3184  H     
57   H        28.3172   -9.4965  -15.8825  H     
58   H        29.7223  -10.2878  -15.1613  H     
59   H        27.0188   -7.9577  -10.9814  H     
60   H        27.1377   -9.9789   -8.9473  H     
61   H        25.0146   -7.7829   -9.1569  H     
62   H        24.7297   -9.5012   -8.9921  H     
63   H        27.4527   -6.9553   -8.6882  H     
64   H        27.9871   -8.1939   -7.5429  H     
65   H        29.1601   -8.1580  -10.3444  H     
66   H        29.3727   -5.8120   -9.5495  H     
67   H        30.1678   -6.3436   -8.0638  H     
68   H        31.1621   -6.6724  -10.9346  H     
69   H        31.8687   -5.6263   -9.7092  H     
70   H        33.1493   -7.7903  -10.0795  H     
71   H        32.6617   -7.5315   -8.4063  H     
72   H        31.4704   -9.4826  -10.4139  H     
73   H        32.2514   -9.8475   -8.8701  H     
74   H        30.3571   -8.9803   -7.6100  H     
75   H        29.7370  -10.0754   -8.8450  H     
76   H        25.6739   -7.5954   -6.9339  H     
77   H        24.2263   -8.3486   -7.0901  H     
78   H        25.1525  -10.5029   -6.5839  H     
79   H        25.3954   -9.3093   -5.2962  H     
80   H        26.7539   -9.6855   -6.4074  H     
@<TRIPOS>BOND
     1    1    2 1
     2    1    7 1
     3    2    3 am
     4    3    4 2
     5    3    5 1
     6    5    6 1
     7    7    8 1
     8    8    9 1
     9    9   15 1
    10    9   16 1
    11   10   11 2
    12   10   15 1
    13   10   37 1
    14   11   12 1
    15   11   35 1
    16   12   13 2
    17   13   14 1
    18   14   15 2
    19   16   17 1
    20   16   21 1
    21   17   18 1
    22   18   19 1
    23   18   22 1
    24   19   20 1
    25   20   21 1
    26   22   23 2
    27   22   24 am
    28   24   25 1
    29   25   26 1
    30   25   27 1
    31   26   34 1
    32   27   28 1
    33   28   29 1
    34   28   33 1
    35   29   30 1
    36   30   31 1
    37   31   32 1
    38   32   33 1
    39   34   36 1
    40    1   38 1
    41    1   39 1
    42    2   40 1
    43    6   41 1
    44    6   42 1
    45    6   43 1
    46    7   44 1
    47    7   45 1
    48    9   46 1
    49   12   47 1
    50   13   48 1
    51   14   49 1
    52   16   50 1
    53   17   51 1
    54   17   52 1
    55   19   53 1
    56   19   54 1
    57   20   55 1
    58   20   56 1
    59   21   57 1
    60   21   58 1
    61   24   59 1
    62   25   60 1
    63   26   61 1
    64   26   62 1
    65   27   63 1
    66   27   64 1
    67   28   65 1
    68   29   66 1
    69   29   67 1
    70   30   68 1
    71   30   69 1
    72   31   70 1
    73   31   71 1
    74   32   72 1
    75   32   73 1
    76   33   74 1
    77   33   75 1
    78   34   76 1
    79   34   77 1
    80   36   78 1
    81   36   79 1
    82   36   80 1
@<TRIPOS>PROPERTY_DATA
  Total_Score	| 12.5169
  Crash		| -3.5091
  Polar		| 5.4898
  FragIndex	| 1
  FragRMSD	| 0.942

