@<TRIPOS>MOLECULE
BindingDB_29929
 79 81 0 0 0
SMALL
NO_CHARGES


@<TRIPOS>ATOM
1    C        31.0540   -7.9573  -14.9468  C     
2    C        31.8344   -8.4143  -13.8569  C     
3    C        33.2036   -8.7102  -14.0101  C     
4    C        33.8170   -8.5468  -15.2677  C     
5    C        33.0669   -8.0848  -16.3609  C     
6    C        31.6983   -7.7829  -16.1990  C     
7    C        29.6012   -7.6321  -14.7571  C     
8    C        28.7609   -8.9356  -14.4631  C     
9    O        29.5908   -6.6332  -13.7068  O     
10   C        28.7097   -5.4933  -13.8009  C     
11   C        29.3066   -4.3172  -12.9759  C     
12   C        28.3045   -3.1920  -12.6566  C     
13   O        27.6714   -2.6205  -13.8318  O     
14   C        26.3947   -3.1647  -14.2009  C     
15   C        26.8369  -10.5064  -15.2211  C     
16   C        27.6083   -9.1757  -15.4874  C     
17   C        28.1445   -9.0233  -13.0406  C     
18   N        27.2796  -10.1679  -12.7761  N     
19   C        27.1116  -11.1460  -13.8323  C     
20   C        26.6924  -10.3093  -11.5726  C     
21   O        25.9456  -11.2500  -11.3418  O     
22   N        26.9449   -9.4761  -10.5659  N     
23   C        26.4612   -9.5062   -9.2078  C     
24   C        25.6885   -8.1868   -8.8878  C     
25   N        25.3182   -8.0145   -7.4766  N     
26   C        27.6342   -9.8380   -8.2241  C     
27   C        28.9495   -8.9866   -8.1841  C     
28   C        30.1361   -9.6507   -8.9631  C     
29   C        28.7817   -7.4924   -8.6056  C     
30   C        30.0974   -6.6929   -8.4647  C     
31   C        31.2488   -7.3404   -9.2841  C     
32   C        31.4483   -8.8276   -8.8859  C     
33   C        25.2573   -2.6546  -13.2882  C     
34   Cl       34.0991   -9.2526  -12.6781  Cl    
35   H        31.4042   -8.5426  -12.9392  H     
36   H        34.8073   -8.7683  -15.3934  H     
37   H        33.5082   -7.9644  -17.2765  H     
38   H        31.1680   -7.4636  -17.0130  H     
39   H        29.2332   -7.1750  -15.6880  H     
40   H        29.4256   -9.7999  -14.5766  H     
41   H        28.5722   -5.1654  -14.8388  H     
42   H        27.7328   -5.7572  -13.3841  H     
43   H        29.7033   -4.7082  -12.0217  H     
44   H        30.1566   -3.8938  -13.5311  H     
45   H        27.5769   -3.5487  -11.9210  H     
46   H        28.8527   -2.3738  -12.1973  H     
47   H        26.1776   -2.8266  -15.2235  H     
48   H        26.3840   -4.2561  -14.2138  H     
49   H        25.7630  -10.3226  -15.3285  H     
50   H        27.1205  -11.2396  -15.9875  H     
51   H        26.9090   -8.3328  -15.4405  H     
52   H        28.0197   -9.2035  -16.5083  H     
53   H        28.9766   -9.0164  -12.3430  H     
54   H        27.5548   -8.1196  -12.8732  H     
55   H        26.3217  -11.8717  -13.6404  H     
56   H        28.0418  -11.7193  -13.8868  H     
57   H        27.5393   -8.7387  -10.7688  H     
58   H        25.7199  -10.3127   -9.0849  H     
59   H        26.2884   -7.3273   -9.1892  H     
60   H        24.7828   -8.1598   -9.4995  H     
61   H        24.7124   -8.8032   -7.1742  H     
62   H        24.8156   -7.1287   -7.3783  H     
63   H        26.1757   -7.9713   -6.9083  H     
64   H        27.2168   -9.8472   -7.2070  H     
65   H        27.9218  -10.8800   -8.4213  H     
66   H        29.2732   -8.9818   -7.1345  H     
67   H        30.3247  -10.6435   -8.5438  H     
68   H        29.8655   -9.7941  -10.0051  H     
69   H        28.4489   -7.4130   -9.6421  H     
70   H        28.0327   -7.0240   -7.9623  H     
71   H        29.9484   -5.6629   -8.8032  H     
72   H        30.3866   -6.6528   -7.4100  H     
73   H        31.0259   -7.2733  -10.3538  H     
74   H        32.1762   -6.7853   -9.1019  H     
75   H        31.8488   -8.8727   -7.8680  H     
76   H        32.1996   -9.2844   -9.5449  H     
77   H        25.3976   -3.0103  -12.2649  H     
78   H        24.2949   -3.0214  -13.6528  H     
79   H        25.2288   -1.5567  -13.2781  H     
@<TRIPOS>BOND
     1    1    2 1
     2    1    6 2
     3    1    7 1
     4    2    3 2
     5    3    4 1
     6    3   34 1
     7    4    5 2
     8    5    6 1
     9    7    8 1
    10    7    9 1
    11    8   16 1
    12    8   17 1
    13    9   10 1
    14   10   11 1
    15   11   12 1
    16   12   13 1
    17   13   14 1
    18   14   33 1
    19   15   16 1
    20   15   19 1
    21   17   18 1
    22   18   19 1
    23   18   20 1
    24   20   21 2
    25   20   22 am
    26   22   23 1
    27   23   24 1
    28   23   26 1
    29   24   25 1
    30   26   27 1
    31   27   28 1
    32   27   29 1
    33   28   32 1
    34   29   30 1
    35   30   31 1
    36   31   32 1
    37    2   35 1
    38    4   36 1
    39    5   37 1
    40    6   38 1
    41    7   39 1
    42    8   40 1
    43   10   41 1
    44   10   42 1
    45   11   43 1
    46   11   44 1
    47   12   45 1
    48   12   46 1
    49   14   47 1
    50   14   48 1
    51   15   49 1
    52   15   50 1
    53   16   51 1
    54   16   52 1
    55   17   53 1
    56   17   54 1
    57   19   55 1
    58   19   56 1
    59   22   57 1
    60   23   58 1
    61   24   59 1
    62   24   60 1
    63   25   61 1
    64   25   62 1
    65   25   63 1
    66   26   64 1
    67   26   65 1
    68   27   66 1
    69   28   67 1
    70   28   68 1
    71   29   69 1
    72   29   70 1
    73   30   71 1
    74   30   72 1
    75   31   73 1
    76   31   74 1
    77   32   75 1
    78   32   76 1
    79   33   77 1
    80   33   78 1
    81   33   79 1
@<TRIPOS>PROPERTY_DATA
  Total_Score	| 13.6935
  Crash		| -2.1303
  Polar		| 4.7768
  FragIndex	| 1
  FragRMSD	| 0.967

