@<TRIPOS>MOLECULE
BindingDB_50305455
 80 82 0 0 0
SMALL
NO_CHARGES


@<TRIPOS>ATOM
1    C        29.2562   -4.2775  -12.6719  C     
2    N        27.8569   -4.3921  -12.4216  N     
3    C        26.8776   -3.9194  -13.2208  C     
4    O        25.6012   -4.2305  -12.8991  O     
5    O        27.1419   -3.1303  -14.2963  O     
6    C        26.1700   -2.6253  -15.2168  C     
7    C        29.7076   -5.2326  -13.7969  C     
8    O        29.5041   -6.5962  -13.3652  O     
9    C        29.5927   -7.6301  -14.3727  C     
10   C        31.8773   -8.4909  -13.6994  C     
11   C        33.2162   -8.8054  -13.9934  C     
12   C        33.7405   -8.5279  -15.2670  C     
13   C        32.9159   -7.9489  -16.2554  C     
14   C        31.5774   -7.6341  -15.9554  C     
15   C        31.0316   -7.9136  -14.6800  C     
16   C        28.8024   -8.8904  -13.8894  C     
17   C        27.3148   -8.5495  -13.5500  C     
18   N        26.6078   -9.7548  -13.1462  N     
19   C        26.5350  -10.7744  -14.1821  C     
20   C        27.9698  -11.2499  -14.5238  C     
21   C        28.8747  -10.0597  -14.9251  C     
22   C        26.1921   -9.9894  -11.8821  C     
23   O        25.8711  -11.1315  -11.5651  O     
24   N        26.2056   -9.0742  -10.9118  N     
25   C        26.1878   -9.3429   -9.4891  C     
26   C        25.7208   -8.1179   -8.6372  C     
27   C        27.5828   -9.9266   -9.0944  C     
28   C        28.8086   -8.9830   -8.8423  C     
29   C        30.1496   -9.7354   -9.1697  C     
30   C        31.4109   -8.9008   -8.8380  C     
31   C        31.3862   -7.4724   -9.4726  C     
32   C        30.0355   -6.7560   -9.1652  C     
33   C        28.8285   -7.6115   -9.6326  C     
34   N        25.3267   -8.4035   -7.2506  N     
35   C        25.9442   -9.5720   -6.5736  C     
36   H        29.5247   -3.2429  -12.9086  H     
37   H        29.7838   -4.5505  -11.7565  H     
38   H        27.5831   -4.9302  -11.6632  H     
39   H        25.6904   -3.4472  -15.7493  H     
40   H        26.6690   -1.9845  -15.9439  H     
41   H        25.4107   -2.0466  -14.6890  H     
42   H        29.1313   -5.0065  -14.7005  H     
43   H        30.7688   -5.0671  -14.0063  H     
44   H        29.0791   -7.2857  -15.2794  H     
45   H        31.5126   -8.7068  -12.7682  H     
46   H        33.8089   -9.2333  -13.2781  H     
47   H        34.7071   -8.7666  -15.4867  H     
48   H        33.2917   -7.7655  -17.1840  H     
49   H        30.9984   -7.2080  -16.6864  H     
50   H        29.2637   -9.2531  -12.9632  H     
51   H        27.2897   -7.7722  -12.7927  H     
52   H        26.8302   -8.1158  -14.4290  H     
53   H        25.9344  -11.6507  -13.9089  H     
54   H        26.0673  -10.3563  -15.0825  H     
55   H        28.4019  -11.7473  -13.6450  H     
56   H        27.9317  -11.9733  -15.3399  H     
57   H        28.5732   -9.7021  -15.9114  H     
58   H        29.8985  -10.4247  -15.0009  H     
59   H        26.3747   -8.1656  -11.1811  H     
60   H        25.4355  -10.1323   -9.3078  H     
61   H        26.4776   -7.3610   -8.5939  H     
62   H        24.8497   -7.6905   -9.1439  H     
63   H        27.4329  -10.5343   -8.2007  H     
64   H        27.8617  -10.6564   -9.8569  H     
65   H        28.8038   -8.7620   -7.7679  H     
66   H        30.1989  -10.6666   -8.5894  H     
67   H        30.1729  -10.0000  -10.2339  H     
68   H        31.5141   -8.8074   -7.7412  H     
69   H        32.3070   -9.4243   -9.2253  H     
70   H        32.2157   -6.8755   -9.0749  H     
71   H        31.4960   -7.5562  -10.5659  H     
72   H        29.9775   -6.5531   -8.0814  H     
73   H        30.0179   -5.7939   -9.6949  H     
74   H        28.9047   -7.8097  -10.7130  H     
75   H        27.9425   -7.0051   -9.4813  H     
76   H        25.6164   -7.5582   -6.7250  H     
77   H        24.2980   -8.4614   -7.2062  H     
78   H        25.6619  -10.5258   -7.0275  H     
79   H        25.6091   -9.5703   -5.5391  H     
80   H        27.0370   -9.4779   -6.6079  H     
@<TRIPOS>BOND
     1    1    2 1
     2    1    7 1
     3    2    3 am
     4    3    4 2
     5    3    5 1
     6    5    6 1
     7    7    8 1
     8    8    9 1
     9    9   15 1
    10    9   16 1
    11   10   11 2
    12   10   15 1
    13   11   12 1
    14   12   13 2
    15   13   14 1
    16   14   15 2
    17   16   17 1
    18   16   21 1
    19   17   18 1
    20   18   19 1
    21   18   22 1
    22   19   20 1
    23   20   21 1
    24   22   23 2
    25   22   24 am
    26   24   25 1
    27   25   26 1
    28   25   27 1
    29   26   34 1
    30   27   28 1
    31   28   29 1
    32   28   33 1
    33   29   30 1
    34   30   31 1
    35   31   32 1
    36   32   33 1
    37   34   35 1
    38    1   36 1
    39    1   37 1
    40    2   38 1
    41    6   39 1
    42    6   40 1
    43    6   41 1
    44    7   42 1
    45    7   43 1
    46    9   44 1
    47   10   45 1
    48   11   46 1
    49   12   47 1
    50   13   48 1
    51   14   49 1
    52   16   50 1
    53   17   51 1
    54   17   52 1
    55   19   53 1
    56   19   54 1
    57   20   55 1
    58   20   56 1
    59   21   57 1
    60   21   58 1
    61   24   59 1
    62   25   60 1
    63   26   61 1
    64   26   62 1
    65   27   63 1
    66   27   64 1
    67   28   65 1
    68   29   66 1
    69   29   67 1
    70   30   68 1
    71   30   69 1
    72   31   70 1
    73   31   71 1
    74   32   72 1
    75   32   73 1
    76   33   74 1
    77   33   75 1
    78   34   76 1
    79   34   77 1
    80   35   78 1
    81   35   79 1
    82   35   80 1
@<TRIPOS>PROPERTY_DATA
  Total_Score	| 13.0155
  Crash		| -3.1690
  Polar		| 5.9612
  FragIndex	| 1
  FragRMSD	| 0.803

