@<TRIPOS>MOLECULE
BindingDB_50305458
 83 85 0 0 0
SMALL
NO_CHARGES


@<TRIPOS>ATOM
1    C        29.4145   -4.4332  -12.5711  C     
2    N        28.0153   -4.3627  -12.3067  N     
3    C        27.1691   -3.4756  -12.8694  C     
4    O        27.6062   -2.4973  -13.6978  O     
5    O        25.8508   -3.5865  -12.5728  O     
6    C        24.8022   -2.7589  -13.0818  C     
7    C        29.7098   -5.3053  -13.8086  C     
8    O        29.3786   -6.6709  -13.4941  O     
9    C        29.5254   -7.6548  -14.5403  C     
10   C        31.7969   -8.4170  -13.7140  C     
11   C        33.1600   -8.6963  -13.9216  C     
12   C        33.7296   -8.4878  -15.1911  C     
13   C        32.9420   -7.9871  -16.2407  C     
14   C        31.5799   -7.7039  -16.0310  C     
15   C        30.9820   -7.9334  -14.7675  C     
16   C        28.7223   -8.9375  -14.1256  C     
17   C        27.2344   -8.6454  -13.7383  C     
18   N        26.5883   -9.8817  -13.3109  N     
19   C        26.5065  -10.8915  -14.3536  C     
20   C        27.9351  -11.2990  -14.7922  C     
21   C        28.7574  -10.0536  -15.2186  C     
22   C        26.2327  -10.1286  -12.0407  C     
23   O        25.9899  -11.2774  -11.6764  O     
24   N        26.2243   -9.1931  -11.0919  N     
25   C        26.2617   -9.3909   -9.6668  C     
26   C        25.7531   -8.1006   -8.9500  C     
27   C        27.6797   -9.8738   -9.1973  C     
28   C        28.9732   -9.2958   -9.8700  C     
29   C        28.9542   -7.7804  -10.2406  C     
30   C        29.1299   -6.8354   -9.0261  C     
31   C        30.4009   -7.1978   -8.2185  C     
32   C        30.4157   -8.6907   -7.8025  C     
33   C        30.2429   -9.6142   -9.0333  C     
34   N        25.1852   -8.2289   -7.5853  N     
35   Cl       34.1011   -9.2959  -12.6496  Cl    
36   C        25.9614   -8.8370   -6.4733  C     
37   C        25.6818  -10.3436   -6.2751  C     
38   H        29.8288   -3.4309  -12.7155  H     
39   H        29.9037   -4.8746  -11.6989  H     
40   H        27.6276   -5.0409  -11.7320  H     
41   H        24.9973   -1.7113  -12.8443  H     
42   H        23.8593   -3.0577  -12.6199  H     
43   H        24.7238   -2.8804  -14.1636  H     
44   H        29.1219   -4.9474  -14.6593  H     
45   H        30.7728   -5.2221  -14.0440  H     
46   H        29.0569   -7.2690  -15.4536  H     
47   H        31.3963   -8.5712  -12.7857  H     
48   H        34.7160   -8.6948  -15.3550  H     
49   H        33.3556   -7.8368  -17.1624  H     
50   H        31.0237   -7.3352  -16.8070  H     
51   H        29.2000   -9.3476  -13.2350  H     
52   H        27.2095   -7.8723  -12.9731  H     
53   H        26.7106   -8.2291  -14.6039  H     
54   H        25.9683  -11.7914  -14.0496  H     
55   H        25.9625  -10.4917  -15.2160  H     
56   H        28.4378  -11.7989  -13.9576  H     
57   H        27.8811  -12.0081  -15.6238  H     
58   H        28.3518   -9.6679  -16.1576  H     
59   H        29.7870  -10.3717  -15.4051  H     
60   H        26.3070   -8.2742  -11.3852  H     
61   H        25.5314  -10.1594   -9.4041  H     
62   H        26.5036   -7.3145   -8.9560  H     
63   H        24.9082   -7.7291   -9.5329  H     
64   H        27.7634   -9.7488   -8.1165  H     
65   H        27.7145  -10.9547   -9.3523  H     
66   H        29.1002   -9.8560  -10.7912  H     
67   H        29.7836   -7.5924  -10.9285  H     
68   H        28.0447   -7.5113  -10.7719  H     
69   H        29.2036   -5.7974   -9.3699  H     
70   H        28.2649   -6.8998   -8.3639  H     
71   H        31.2887   -6.9812   -8.8229  H     
72   H        30.4343   -6.5757   -7.3205  H     
73   H        31.3616   -8.9207   -7.2974  H     
74   H        29.6129   -8.8725   -7.0862  H     
75   H        30.2333  -10.6560   -8.7054  H     
76   H        31.1091   -9.4824   -9.6876  H     
77   H        24.9825   -7.2690   -7.2847  H     
78   H        24.2811   -8.6937   -7.6515  H     
79   H        27.0401   -8.6754   -6.5902  H     
80   H        25.6648   -8.3127   -5.5572  H     
81   H        24.6016  -10.5347   -6.2529  H     
82   H        26.1158  -10.6512   -5.3134  H     
83   H        26.1345  -10.9389   -7.0774  H     
@<TRIPOS>BOND
     1    1    2 1
     2    1    7 1
     3    2    3 am
     4    3    4 2
     5    3    5 1
     6    5    6 1
     7    7    8 1
     8    8    9 1
     9    9   15 1
    10    9   16 1
    11   10   11 2
    12   10   15 1
    13   11   12 1
    14   11   35 1
    15   12   13 2
    16   13   14 1
    17   14   15 2
    18   16   17 1
    19   16   21 1
    20   17   18 1
    21   18   19 1
    22   18   22 1
    23   19   20 1
    24   20   21 1
    25   22   23 2
    26   22   24 am
    27   24   25 1
    28   25   26 1
    29   25   27 1
    30   26   34 1
    31   27   28 1
    32   28   29 1
    33   28   33 1
    34   29   30 1
    35   30   31 1
    36   31   32 1
    37   32   33 1
    38   34   36 1
    39   36   37 1
    40    1   38 1
    41    1   39 1
    42    2   40 1
    43    6   41 1
    44    6   42 1
    45    6   43 1
    46    7   44 1
    47    7   45 1
    48    9   46 1
    49   10   47 1
    50   12   48 1
    51   13   49 1
    52   14   50 1
    53   16   51 1
    54   17   52 1
    55   17   53 1
    56   19   54 1
    57   19   55 1
    58   20   56 1
    59   20   57 1
    60   21   58 1
    61   21   59 1
    62   24   60 1
    63   25   61 1
    64   26   62 1
    65   26   63 1
    66   27   64 1
    67   27   65 1
    68   28   66 1
    69   29   67 1
    70   29   68 1
    71   30   69 1
    72   30   70 1
    73   31   71 1
    74   31   72 1
    75   32   73 1
    76   32   74 1
    77   33   75 1
    78   33   76 1
    79   34   77 1
    80   34   78 1
    81   36   79 1
    82   36   80 1
    83   37   81 1
    84   37   82 1
    85   37   83 1
@<TRIPOS>PROPERTY_DATA
  Total_Score	| 15.2135
  Crash		| -2.3484
  Polar		| 6.8741
  FragIndex	| 1
  FragRMSD	| 0.800

