@<TRIPOS>MOLECULE
BindingDB_50382331
 78 80 0 0 0
SMALL
NO_CHARGES


@<TRIPOS>ATOM
1    C        28.8574   -9.7215  -14.4932  C     
2    C        28.3192  -10.1930  -13.1043  C     
3    N        26.9572   -9.7619  -12.8041  N     
4    C        25.9825  -10.0922  -13.8441  C     
5    C        26.4042   -9.5374  -15.2251  C     
6    C        27.8081  -10.0642  -15.5966  C     
7    C        27.4668   -3.2226  -13.0989  C     
8    N        28.6620   -3.8203  -12.9729  N     
9    O        27.4604   -2.0061  -13.6957  O     
10   O        26.2835   -3.7665  -12.6912  O     
11   C        24.9950   -3.1890  -12.9114  C     
12   C        28.8877   -5.1598  -12.5517  C     
13   C        28.3505   -6.1589  -13.6193  C     
14   O        28.9697   -7.4423  -13.4211  O     
15   C        29.3675   -8.2248  -14.5694  C     
16   C        30.8582   -8.1559  -14.6992  C     
17   C        31.4576   -7.7672  -15.9229  C     
18   C        32.8444   -7.8801  -16.1049  C     
19   C        33.6533   -8.3483  -15.0613  C     
20   C        31.6974   -8.5806  -13.6388  C     
21   C        26.5796   -9.2810  -11.6066  C     
22   O        25.3979   -9.0230  -11.4158  O     
23   N        27.3960   -9.1030  -10.5781  N     
24   C        27.1535   -8.6848   -9.2147  C     
25   C        25.6650   -8.4425   -8.7806  C     
26   C        28.0561   -7.4376   -8.9276  C     
27   C        29.5722   -7.6579   -8.5472  C     
28   C        30.5566   -6.9215   -9.5115  C     
29   O        31.9220   -6.9683   -9.0349  O     
30   C        32.4456   -8.3030   -8.8834  C     
31   C        31.5777   -9.1743   -7.9448  C     
32   C        30.0845   -9.1296   -8.3807  C     
33   N        25.4256   -8.4266   -7.3092  N     
34   C        25.8979   -9.5770   -6.5097  C     
35   C        33.0864   -8.6953  -13.8248  C     
36   Cl       34.0634   -9.3112  -12.5964  Cl    
37   H        29.7060  -10.3840  -14.7272  H     
38   H        28.3135  -11.2909  -13.0975  H     
39   H        29.0519   -9.8931  -12.3561  H     
40   H        25.8838  -11.1807  -13.8981  H     
41   H        24.9833   -9.6919  -13.6559  H     
42   H        25.6665   -9.8518  -15.9808  H     
43   H        26.4136   -8.4384  -15.1944  H     
44   H        28.1082   -9.6442  -16.5614  H     
45   H        27.7441  -11.1489  -15.7272  H     
46   H        29.4489   -3.3070  -13.2522  H     
47   H        24.9751   -2.1475  -12.5799  H     
48   H        24.2367   -3.7392  -12.3529  H     
49   H        24.7545   -3.2282  -13.9778  H     
50   H        29.9676   -5.2914  -12.4641  H     
51   H        28.4191   -5.3326  -11.5659  H     
52   H        27.2702   -6.2920  -13.4785  H     
53   H        28.5273   -5.7649  -14.6429  H     
54   H        28.9110   -7.7579  -15.4448  H     
55   H        30.8744   -7.4668  -16.7099  H     
56   H        33.2537   -7.6580  -17.0080  H     
57   H        34.6577   -8.4505  -15.2142  H     
58   H        31.2847   -8.8726  -12.7447  H     
59   H        28.3160   -9.3243  -10.7536  H     
60   H        27.4877   -9.5557   -8.6336  H     
61   H        25.0331   -9.2285   -9.2074  H     
62   H        25.3157   -7.4786   -9.1707  H     
63   H        27.9976   -6.7912   -9.8232  H     
64   H        27.6230   -6.8551   -8.1115  H     
65   H        29.7222   -7.1971   -7.5593  H     
66   H        30.2792   -5.8662   -9.5808  H     
67   H        30.4972   -7.3518  -10.5098  H     
68   H        32.5258   -8.7754   -9.8742  H     
69   H        33.4560   -8.2254   -8.4653  H     
70   H        31.9363  -10.2074   -7.9615  H     
71   H        31.6739   -8.7972   -6.9271  H     
72   H        29.5124   -9.6475   -7.6120  H     
73   H        29.9950   -9.6822   -9.3201  H     
74   H        25.8135   -7.5876   -6.8841  H     
75   H        24.4194   -8.3704   -7.2007  H     
76   H        26.9858   -9.5841   -6.4408  H     
77   H        25.5649  -10.5278   -6.9336  H     
78   H        25.4984   -9.4770   -5.5067  H     
@<TRIPOS>BOND
     1    1    2 1
     2    1    6 1
     3    1   15 1
     4    2    3 1
     5    3    4 1
     6    3   21 1
     7    4    5 1
     8    5    6 1
     9    7    8 am
    10    7    9 2
    11    7   10 1
    12    8   12 1
    13   10   11 1
    14   12   13 1
    15   13   14 1
    16   15   14 1
    17   15   16 1
    18   16   17 2
    19   16   20 1
    20   17   18 1
    21   18   19 2
    22   19   35 1
    23   20   35 2
    24   21   22 2
    25   21   23 am
    26   24   23 1
    27   24   25 1
    28   24   26 1
    29   25   33 1
    30   26   27 1
    31   27   28 1
    32   27   32 1
    33   28   29 1
    34   29   30 1
    35   30   31 1
    36   31   32 1
    37   33   34 1
    38   35   36 1
    39    1   37 1
    40    2   38 1
    41    2   39 1
    42    4   40 1
    43    4   41 1
    44    5   42 1
    45    5   43 1
    46    6   44 1
    47    6   45 1
    48    8   46 1
    49   11   47 1
    50   11   48 1
    51   11   49 1
    52   12   50 1
    53   12   51 1
    54   13   52 1
    55   13   53 1
    56   15   54 1
    57   17   55 1
    58   18   56 1
    59   19   57 1
    60   20   58 1
    61   23   59 1
    62   24   60 1
    63   25   61 1
    64   25   62 1
    65   26   63 1
    66   26   64 1
    67   27   65 1
    68   28   66 1
    69   28   67 1
    70   30   68 1
    71   30   69 1
    72   31   70 1
    73   31   71 1
    74   32   72 1
    75   32   73 1
    76   33   74 1
    77   33   75 1
    78   34   76 1
    79   34   77 1
    80   34   78 1
@<TRIPOS>PROPERTY_DATA
  Total_Score	| 13.1936
  Crash		| -2.4876
  Polar		| 5.3224
  FragIndex	| 1
  FragRMSD	| 1.033

