@<TRIPOS>MOLECULE
BindingDB_11431
 58 61 0 0 0
SMALL
NO_CHARGES


@<TRIPOS>ATOM
1    C        11.4433  -10.3489   11.7639  C     
2    C        11.7824   -9.5283   10.7408  C     
3    C        12.8915   -8.6684   10.8413  C     
4    C        13.2103   -9.4369   13.0439  C     
5    C        13.7131   -9.5799   14.3252  C     
6    C        12.8974  -10.5341   14.9150  C     
7    N        10.5458  -11.3402   11.6119  N     
8    C         9.5192  -11.4665   10.7256  C     
9    C         8.7695  -10.3829   10.2165  C     
10   C         9.1887  -12.7664   10.2796  C     
11   C         8.2387  -12.9625    9.2615  C     
12   C         7.5532  -11.8688    8.7046  C     
13   C         7.7915  -10.5763    9.2274  C     
14   S         6.3948  -12.0796    7.4223  S     
15   O         6.3548  -13.5947    6.9393  O     
16   O         4.9234  -11.9237    8.0166  O     
17   N         6.5768  -11.0631    6.0791  N     
18   C         7.2065  -11.5990    4.9026  C     
19   C         6.5457   -9.6376    6.2737  C     
20   N        12.1615  -10.2829   12.9097  N     
21   N        13.5911   -8.6341   12.0112  N     
22   N        11.9704  -10.9278   14.0257  N     
23   N        13.3115   -7.8399    9.8517  N     
24   C        12.6897   -7.5947    8.5791  C     
25   C        12.7712   -8.8039    7.5933  C     
26   C        13.2823   -6.3190    7.9197  C     
27   C        14.7167   -6.5396    7.3584  C     
28   C        14.7951   -7.7537    6.3942  C     
29   C        14.2075   -9.0302    7.0557  C     
30   N        14.1095   -7.4615    5.1209  N     
31   Cl       15.0129   -8.7609   15.0245  Cl    
32   H        11.3095   -9.6076    9.8764  H     
33   H        12.9779  -10.8650   15.8756  H     
34   H        10.6673  -12.1073   12.2080  H     
35   H         8.9209   -9.4291   10.5712  H     
36   H         9.7119  -13.5715   10.6377  H     
37   H         8.0700  -13.9126    8.9216  H     
38   H         7.2782   -9.7676    8.8862  H     
39   H         8.2673  -11.7660    5.0934  H     
40   H         7.1075  -10.9165    4.0547  H     
41   H         6.7431  -12.5402    4.6163  H     
42   H         5.9218   -9.3463    7.1165  H     
43   H         6.1358   -9.1439    5.3836  H     
44   H         7.5527   -9.2560    6.4362  H     
45   H        14.0893   -7.3036   10.0594  H     
46   H        11.6303   -7.3774    8.7676  H     
47   H        12.4499   -9.7306    8.0761  H     
48   H        12.1026   -8.6195    6.7497  H     
49   H        12.6301   -6.0031    7.0995  H     
50   H        13.3064   -5.4993    8.6457  H     
51   H        15.0347   -5.6344    6.8298  H     
52   H        15.4073   -6.6965    8.1881  H     
53   H        15.8405   -7.9534    6.1632  H     
54   H        14.8498   -9.3290    7.8860  H     
55   H        14.2029   -9.8468    6.3349  H     
56   H        13.1468   -7.1838    5.2985  H     
57   H        14.1215   -8.2935    4.5314  H     
58   H        14.6013   -6.7017    4.6406  H     
@<TRIPOS>BOND
     1    1    2 2
     2    1    7 1
     3    1   20 1
     4    2    3 1
     5    3   21 2
     6    3   23 1
     7    4    5 2
     8    4   20 1
     9    4   21 1
    10    5    6 1
    11    5   31 1
    12    6   22 2
    13    7    8 1
    14    8    9 1
    15    8   10 2
    16    9   13 2
    17   10   11 1
    18   11   12 2
    19   12   13 1
    20   12   14 1
    21   14   15 2
    22   14   16 2
    23   14   17 1
    24   17   18 1
    25   17   19 1
    26   20   22 1
    27   24   23 1
    28   24   25 1
    29   24   26 1
    30   25   29 1
    31   26   27 1
    32   27   28 1
    33   28   29 1
    34   28   30 1
    35    2   32 1
    36    6   33 1
    37    7   34 1
    38    9   35 1
    39   10   36 1
    40   11   37 1
    41   13   38 1
    42   18   39 1
    43   18   40 1
    44   18   41 1
    45   19   42 1
    46   19   43 1
    47   19   44 1
    48   23   45 1
    49   24   46 1
    50   25   47 1
    51   25   48 1
    52   26   49 1
    53   26   50 1
    54   27   51 1
    55   27   52 1
    56   28   53 1
    57   29   54 1
    58   29   55 1
    59   30   56 1
    60   30   57 1
    61   30   58 1
@<TRIPOS>PROPERTY_DATA
  Total_Score	| 10.1083
  Crash		| -1.7800
  Polar		| 3.3868
  FragIndex	| 1
  FragRMSD	| 0.535

