@<TRIPOS>MOLECULE
BindingDB_11430
 59 62 0 0 0
SMALL
NO_CHARGES


@<TRIPOS>ATOM
1    C        11.7547  -10.5361   11.5423  C     
2    C        12.2409   -9.8728   10.4645  C     
3    C        13.2203   -8.8756   10.6234  C     
4    C        13.2831   -9.3788   12.9231  C     
5    C        13.6221   -9.3432   14.2610  C     
6    C        12.7801  -10.2713   14.8574  C     
7    N        10.8133  -11.4794   11.4146  N     
8    C         9.7536  -11.5139   10.5633  C     
9    C         9.1187  -12.7590   10.3681  C     
10   C         9.2562  -10.3875    9.8620  C     
11   C         8.1982  -10.5154    8.9398  C     
12   C         7.6303  -11.7864    8.6863  C     
13   C         8.0771  -12.8983    9.4348  C     
14   S         6.3884  -11.9833    7.4692  S     
15   O         6.2496  -13.5293    7.0942  O     
16   O         4.9681  -11.7060    8.1369  O     
17   N         6.5237  -11.0991    6.0275  N     
18   C         6.5694   -9.6649    6.0916  C     
19   C         7.0819  -11.7585    4.8802  C     
20   N        12.3048  -10.3026   12.7591  N     
21   N        13.7314   -8.6547   11.8662  N     
22   N        11.9985  -10.8275   13.9133  N     
23   N        13.7117   -8.0755    9.6445  N     
24   C        13.3923   -8.0701    8.2449  C     
25   C        14.6349   -8.5711    7.4582  C     
26   C        12.9692   -6.6495    7.7810  C     
27   C        12.7167   -6.6137    6.2482  C     
28   C        13.9454   -7.1281    5.4484  C     
29   C        14.3974   -8.5356    5.9270  C     
30   N        13.6324   -7.1546    4.0128  N     
31   C        14.5194   -8.5871   14.8178  C     
32   N        15.3169   -7.9170   15.3046  N     
33   H        11.9194  -10.1245    9.5593  H     
34   H        12.7418  -10.4966   15.8525  H     
35   H        10.9167  -12.2633   11.9842  H     
36   H         9.4533  -13.5880   10.8642  H     
37   H         9.6640   -9.4617   10.0192  H     
38   H         7.8599   -9.6793    8.4413  H     
39   H         7.6618  -13.8275    9.2952  H     
40   H         5.9392   -9.2739    6.8946  H     
41   H         6.2154   -9.2262    5.1537  H     
42   H         7.6032   -9.3505    6.2729  H     
43   H         8.1514  -11.9165    5.0344  H     
44   H         6.9469  -11.1675    3.9723  H     
45   H         6.6027  -12.7244    4.7040  H     
46   H        14.3957   -7.4454    9.9195  H     
47   H        12.5634   -8.7381    8.0112  H     
48   H        15.5050   -7.9515    7.6980  H     
49   H        14.8532   -9.5971    7.7610  H     
50   H        12.0507   -6.3643    8.3021  H     
51   H        13.7441   -5.9219    8.0397  H     
52   H        11.8448   -7.2323    6.0145  H     
53   H        12.4892   -5.5890    5.9456  H     
54   H        14.7693   -6.4228    5.5948  H     
55   H        15.3254   -8.8144    5.4233  H     
56   H        13.6367   -9.2775    5.6677  H     
57   H        13.0440   -7.9651    3.7987  H     
58   H        14.5020   -7.2110    3.4820  H     
59   H        13.1366   -6.2992    3.7545  H     
@<TRIPOS>BOND
     1    1    2 2
     2    1    7 1
     3    1   20 1
     4    2    3 1
     5    3   21 2
     6    3   23 1
     7    4    5 2
     8    4   20 1
     9    4   21 1
    10    5    6 1
    11    5   31 1
    12    6   22 2
    13    7    8 1
    14    8    9 1
    15    8   10 2
    16    9   13 2
    17   10   11 1
    18   11   12 2
    19   12   13 1
    20   12   14 1
    21   14   15 2
    22   14   16 2
    23   14   17 1
    24   17   18 1
    25   17   19 1
    26   20   22 1
    27   24   23 1
    28   24   25 1
    29   24   26 1
    30   25   29 1
    31   26   27 1
    32   27   28 1
    33   28   29 1
    34   28   30 1
    35   31   32 3
    36    2   33 1
    37    6   34 1
    38    7   35 1
    39    9   36 1
    40   10   37 1
    41   11   38 1
    42   13   39 1
    43   18   40 1
    44   18   41 1
    45   18   42 1
    46   19   43 1
    47   19   44 1
    48   19   45 1
    49   23   46 1
    50   24   47 1
    51   25   48 1
    52   25   49 1
    53   26   50 1
    54   26   51 1
    55   27   52 1
    56   27   53 1
    57   28   54 1
    58   29   55 1
    59   29   56 1
    60   30   57 1
    61   30   58 1
    62   30   59 1
@<TRIPOS>PROPERTY_DATA
  Total_Score	| 9.8588
  Crash		| -1.8266
  Polar		| 2.6195
  FragIndex	| 1
  FragRMSD	| 0.650

