@<TRIPOS>MOLECULE
BindingDB_50281998
 21 21 0 0 0
SMALL
NO_CHARGES


@<TRIPOS>ATOM
1    C        55.1061   13.0951   27.2479  C     
2    C        55.5034   11.9401   27.9243  C     
3    C        54.6378   10.9073   28.0855  C     
4    C        54.9544    9.6798   28.7922  C     
5    O        55.1444    8.6643   27.8062  O     
6    C        56.2107    9.7836   29.7022  C     
7    O        56.6257    8.4915   30.1430  O     
8    C        57.3526   10.5033   28.9357  C     
9    O        58.5453   10.5950   29.7120  O     
10   C        56.8639   11.9084   28.4939  C     
11   O        55.8677   14.2145   27.2427  O     
12   O        53.9536   13.1809   26.5431  O     
13   H        53.7422   10.9474   27.6667  H     
14   H        54.1099    9.4021   29.4327  H     
15   H        54.2962    8.1604   27.7728  H     
16   H        55.9445   10.3651   30.5950  H     
17   H        57.0494    8.6450   31.0074  H     
18   H        57.6042    9.9243   28.0431  H     
19   H        58.2500   10.6785   30.6466  H     
20   H        57.5833   12.2788   27.7567  H     
21   H        56.8910   12.5848   29.3511  H     
@<TRIPOS>BOND
     1    1    2 1
     2    1   11 2
     3    1   12 1
     4    2    3 2
     5    2   10 1
     6    3    4 1
     7    4    5 1
     8    4    6 1
     9    6    7 1
    10    6    8 1
    11    8    9 1
    12    8   10 1
    13    3   13 1
    14    4   14 1
    15    5   15 1
    16    6   16 1
    17    7   17 1
    18    8   18 1
    19    9   19 1
    20   10   20 1
    21   10   21 1
@<TRIPOS>PROPERTY_DATA
  Total_Score	| 11.6693
  Crash		| -0.6318
  Polar		| 10.3043
  FragIndex	| 1
  FragRMSD	| 0.936

