@<TRIPOS>MOLECULE
BindingDB_50281989
 29 29 0 0 0
SMALL
NO_CHARGES


@<TRIPOS>ATOM
1    P        59.5633   14.6146   32.0491  P     
2    C        55.5884   11.9061   27.9157  C     
3    C        57.2456   10.9390   29.5561  C     
4    C        54.6488   10.9803   28.2331  C     
5    C        55.1898   13.1107   27.3254  C     
6    C        56.0990    9.9244   29.9406  C     
7    C        58.2679   13.5710   32.1508  C     
8    C        54.9963    9.7248   28.8519  C     
9    C        58.4069   12.3638   31.3188  C     
10   C        57.0088   11.6121   28.1700  C     
11   O        57.3672   11.9974   30.5302  O     
12   O        60.0525   14.6960   30.5862  O     
13   O        59.2324   15.9965   32.3547  O     
14   O        56.0009   14.1982   27.3078  O     
15   O        54.0023   13.2300   26.6722  O     
16   O        59.4868   11.5684   31.4800  O     
17   O        60.7965   14.1662   32.8732  O     
18   O        56.6439    8.6412   30.2816  O     
19   O        55.4142    8.8314   27.8280  O     
20   H        58.2054   10.3953   29.5136  H     
21   H        53.6843   11.1476   28.0660  H     
22   H        55.6053   10.3147   30.8444  H     
23   H        58.1528   13.2711   33.2008  H     
24   H        57.3645   14.1163   31.8589  H     
25   H        54.1211    9.2847   29.3323  H     
26   H        57.3418   10.9402   27.3893  H     
27   H        57.6214   12.5013   28.1073  H     
28   H        57.1125    8.7841   31.1319  H     
29   H        54.6696    8.1801   27.7216  H     
@<TRIPOS>BOND
     1    1    7 1
     2    1   12 1
     3    1   13 2
     4    1   17 1
     5    2    4 2
     6    2    5 1
     7    2   10 1
     8    3    6 1
     9    3   10 1
    10    3   11 1
    11    4    8 1
    12    5   14 1
    13    5   15 2
    14    6    8 1
    15    6   18 1
    16    7    9 1
    17    8   19 1
    18    9   11 1
    19    9   16 2
    20    3   20 1
    21    4   21 1
    22    6   22 1
    23    7   23 1
    24    7   24 1
    25    8   25 1
    26   10   26 1
    27   10   27 1
    28   18   28 1
    29   19   29 1
@<TRIPOS>PROPERTY_DATA
  Total_Score	| 11.3203
  Crash		| -2.4810
  Polar		| 10.1393
  FragIndex	| 1
  FragRMSD	| 0.644

