@<TRIPOS>MOLECULE
BindingDB_50281342
 27 27 0 0 0
SMALL
NO_CHARGES


@<TRIPOS>ATOM
1    C        55.6172   11.8813   28.0195  C     
2    C        57.3168   10.2347   29.0515  C     
3    C        54.6456   10.9588   28.2044  C     
4    C        59.1659    9.1877   30.3370  C     
5    C        56.0784    9.6628   29.8017  C     
6    O        58.5482   10.2797   29.8192  O     
7    C        55.3237   13.0697   27.3470  C     
8    C        54.8517    9.6743   28.8494  C     
9    C        56.9718   11.6809   28.5712  C     
10   C        59.9649    9.4257   31.4457  C     
11   O        54.2247   13.2014   26.5689  O     
12   O        60.6490   10.5883   31.5349  O     
13   C        59.1155    7.9664   29.7743  C     
14   O        56.2736    8.3287   30.2552  O     
15   O        56.1817   14.1138   27.3291  O     
16   O        60.2366    8.4994   32.3956  O     
17   O        55.0179    8.7158   27.8032  O     
18   H        57.4961    9.6346   28.1543  H     
19   H        53.7352   11.1148   27.8307  H     
20   H        55.8609   10.2836   30.6772  H     
21   H        53.9614    9.4092   29.4297  H     
22   H        57.7134   11.9545   27.8147  H     
23   H        57.0921   12.3683   29.4136  H     
24   H        59.5979    7.1908   30.1633  H     
25   H        58.6004    7.8087   28.9434  H     
26   H        56.7820    8.4100   31.0849  H     
27   H        54.1728    8.2224   27.7572  H     
@<TRIPOS>BOND
     1    1    3 2
     2    1    7 1
     3    1    9 1
     4    2    5 1
     5    2    6 1
     6    2    9 1
     7    3    8 1
     8    4    6 1
     9    4   10 1
    10    4   13 2
    11    5    8 1
    12    5   14 1
    13    7   11 2
    14    7   15 1
    15    8   17 1
    16   10   12 2
    17   10   16 1
    18    2   18 1
    19    3   19 1
    20    5   20 1
    21    8   21 1
    22    9   22 1
    23    9   23 1
    24   13   24 1
    25   13   25 1
    26   14   26 1
    27   17   27 1
@<TRIPOS>PROPERTY_DATA
  Total_Score	| 16.4545
  Crash		| -0.7680
  Polar		| 14.2017
  FragIndex	| 1
  FragRMSD	| 0.217

