@<TRIPOS>MOLECULE
BindingDB_50281995
 22 22 0 0 0
SMALL
NO_CHARGES


@<TRIPOS>ATOM
1    P        54.3662    9.4552   31.1337  P     
2    C        55.8092   11.9441   27.7404  C     
3    C        55.3564   13.0616   27.0430  C     
4    C        55.0404   10.8374   27.8444  C     
5    O        55.0624   10.3410   30.0737  O     
6    O        54.6920   10.0687   32.5079  O     
7    O        52.9425    9.5518   30.9342  O     
8    O        55.9716   14.2573   27.1644  O     
9    C        55.3585    9.7740   28.7849  C     
10   O        54.2183   13.0595   26.3101  O     
11   O        54.8549    7.9944   31.1225  O     
12   C        57.0969   11.9772   28.4520  C     
13   C        57.8147   10.5961   28.4365  C     
14   C        56.8704    9.3944   28.7562  C     
15   H        54.1842   10.7654   27.3422  H     
16   H        54.7442    8.8952   28.5419  H     
17   H        57.7815   12.7125   28.0191  H     
18   H        56.9122   12.2717   29.4899  H     
19   H        58.2439   10.4485   27.4409  H     
20   H        58.6419   10.6130   29.1508  H     
21   H        57.1544    8.9604   29.7200  H     
22   H        57.0240    8.6109   28.0099  H     
@<TRIPOS>BOND
     1    1    5 1
     2    1    6 1
     3    1    7 2
     4    1   11 1
     5    2    3 1
     6    2    4 2
     7    2   12 1
     8    3    8 1
     9    3   10 2
    10    4    9 1
    11    5    9 1
    12    9   14 1
    13   12   13 1
    14   13   14 1
    15    4   15 1
    16    9   16 1
    17   12   17 1
    18   12   18 1
    19   13   19 1
    20   13   20 1
    21   14   21 1
    22   14   22 1
@<TRIPOS>PROPERTY_DATA
  Total_Score	| 5.4242
  Crash		| -3.3742
  Polar		| 4.9498
  FragIndex	| 1
  FragRMSD	| 1.041

