@<TRIPOS>MOLECULE
BindingDB_50281991
 25 25 0 0 0
SMALL
NO_CHARGES


@<TRIPOS>ATOM
1    P        55.8057    6.5772   26.6815  P     
2    C        55.7164   11.8457   27.8110  C     
3    C        55.2089   13.0080   27.2422  C     
4    C        55.0188   10.6794   27.7597  C     
5    C        54.5254    7.5741   27.0472  C     
6    O        56.0324    6.5342   25.2351  O     
7    O        54.0831   13.0270   26.4983  O     
8    O        57.1450    7.0155   27.2840  O     
9    O        55.5453    5.1232   27.1185  O     
10   O        54.6615    8.3297   28.2738  O     
11   C        55.5746    9.4414   28.3140  C     
12   O        55.8700   14.1904   27.3068  O     
13   C        57.0312   11.8124   28.4684  C     
14   C        57.0044   11.0005   29.7982  C     
15   C        56.0690    9.7391   29.7596  C     
16   H        54.0965   10.6610   27.4026  H     
17   H        54.3149    8.2349   26.2020  H     
18   H        53.6654    6.9291   27.1483  H     
19   H        56.4773    9.1950   27.7467  H     
20   H        57.7450   11.3434   27.7837  H     
21   H        57.4210   12.8123   28.6817  H     
22   H        58.0229   10.6887   30.0501  H     
23   H        56.6579   11.6514   30.6014  H     
24   H        55.1980    9.9102   30.3917  H     
25   H        56.5974    8.8680   30.1503  H     
@<TRIPOS>BOND
     1    1    5 1
     2    1    6 2
     3    1    8 1
     4    1    9 1
     5    2    3 1
     6    2    4 2
     7    2   13 1
     8    3    7 2
     9    3   12 1
    10    4   11 1
    11    5   10 1
    12   10   11 1
    13   11   15 1
    14   13   14 1
    15   14   15 1
    16    4   16 1
    17    5   17 1
    18    5   18 1
    19   11   19 1
    20   13   20 1
    21   13   21 1
    22   14   22 1
    23   14   23 1
    24   15   24 1
    25   15   25 1
@<TRIPOS>PROPERTY_DATA
  Total_Score	| 4.0903
  Crash		| -5.1623
  Polar		| 6.0916
  FragIndex	| 1
  FragRMSD	| 0.531

