@<TRIPOS>MOLECULE
BindingDB_50281988
 24 24 0 0 0
SMALL
NO_CHARGES


@<TRIPOS>ATOM
1    C        55.0102    9.4567   28.4161  C     
2    P        54.5304    7.6031   26.5465  P     
3    C        55.4921   11.8082   27.7533  C     
4    C        54.6918   10.7159   27.7733  C     
5    C        56.1273    9.6401   29.5098  C     
6    O        55.4756    8.4844   27.4395  O     
7    C        55.0851   12.9917   27.1296  C     
8    C        57.2983   10.4451   28.9187  C     
9    C        56.7876   11.8292   28.4593  C     
10   O        53.3352    8.3410   25.9089  O     
11   O        55.3446    7.1207   25.4630  O     
12   O        53.9694   13.0647   26.3615  O     
13   O        54.0121    6.3405   27.2483  O     
14   O        56.5489    8.3794   30.0307  O     
15   O        55.7813   14.1440   27.2403  O     
16   O        58.3645   10.5897   29.8565  O     
17   H        54.1233    9.0688   28.9430  H     
18   H        53.8322   10.7340   27.2871  H     
19   H        55.6964   10.1951   30.3522  H     
20   H        57.7050    9.9166   28.0522  H     
21   H        57.5563   12.2672   27.8016  H     
22   H        56.6866   12.4875   29.3292  H     
23   H        56.9364    8.5759   30.9279  H     
24   H        57.9617   10.7658   30.7212  H     
@<TRIPOS>BOND
     1    1    4 1
     2    1    5 1
     3    1    6 1
     4    2    6 1
     5    2   10 1
     6    2   11 2
     7    2   13 1
     8    3    4 2
     9    3    7 1
    10    3    9 1
    11    5    8 1
    12    5   14 1
    13    7   12 2
    14    7   15 1
    15    8    9 1
    16    8   16 1
    17    1   17 1
    18    4   18 1
    19    5   19 1
    20    8   20 1
    21    9   21 1
    22    9   22 1
    23   14   23 1
    24   16   24 1
@<TRIPOS>PROPERTY_DATA
  Total_Score	| 10.4872
  Crash		| -3.5522
  Polar		| 11.7593
  FragIndex	| 1
  FragRMSD	| 0.293

