@<TRIPOS>MOLECULE
BindingDB_50281343
 29 29 0 0 0
SMALL
NO_CHARGES


@<TRIPOS>ATOM
1    C        55.0101    9.4246   28.3957  C     
2    C        55.6138   11.7354   27.6598  C     
3    P        54.3772    7.6075   26.4803  P     
4    C        54.8099   10.6483   27.6108  C     
5    C        56.1157    9.5816   29.4901  C     
6    O        55.1762    8.1614   27.6997  O     
7    C        55.2132   12.9426   27.0819  C     
8    C        57.3524   10.3018   28.8895  C     
9    C        56.8872   11.7042   28.3970  C     
10   C        59.9899    9.5104   31.4286  C     
11   O        53.2896    8.4470   26.0420  O     
12   O        58.4418   10.4923   29.8296  O     
13   O        54.1997   13.0191   26.1903  O     
14   O        60.7965   10.5693   31.6464  O     
15   O        55.2820    7.1808   25.3142  O     
16   O        53.7269    6.2914   26.9546  O     
17   C        59.2897    9.3633   30.1465  C     
18   O        56.4599    8.3139   30.0349  O     
19   O        55.8157   14.1167   27.3863  O     
20   O        59.8108    8.6048   32.4139  O     
21   H        54.0762    9.2830   28.9480  H     
22   H        53.9706   10.6869   27.0790  H     
23   H        55.7198   10.1868   30.3140  H     
24   H        57.6863    9.7315   28.0172  H     
25   H        57.6806   12.1048   27.7591  H     
26   H        56.7937   12.3661   29.2645  H     
27   H        60.0555    9.2913   29.3761  H     
28   H        58.7284    8.4252   30.1223  H     
29   H        56.7859    8.5022   30.9395  H     
@<TRIPOS>BOND
     1    1    4 1
     2    1    5 1
     3    1    6 1
     4    2    4 2
     5    2    7 1
     6    2    9 1
     7    3    6 1
     8    3   11 2
     9    3   15 1
    10    3   16 1
    11    5    8 1
    12    5   18 1
    13    7   13 2
    14    7   19 1
    15    8    9 1
    16    8   12 1
    17   10   14 2
    18   10   17 1
    19   10   20 1
    20   12   17 1
    21    1   21 1
    22    4   22 1
    23    5   23 1
    24    8   24 1
    25    9   25 1
    26    9   26 1
    27   17   27 1
    28   17   28 1
    29   18   29 1
@<TRIPOS>PROPERTY_DATA
  Total_Score	| 14.3331
  Crash		| -3.9621
  Polar		| 15.6939
  FragIndex	| 1
  FragRMSD	| 0.366

