@<TRIPOS>MOLECULE
BindingDB_50280242
 24 24 0 0 0
SMALL
NO_CHARGES


@<TRIPOS>ATOM
1    P        54.4948    7.6095   26.5834  P     
2    C        54.9868    9.4606   28.4380  C     
3    C        55.5019   11.8183   27.7425  C     
4    C        54.7020   10.7266   27.7501  C     
5    C        56.1034    9.6579   29.5163  C     
6    C        55.0974   13.0060   27.1271  C     
7    O        55.4273    8.4788   27.4766  O     
8    C        57.2945   10.4310   28.8917  C     
9    C        56.7984   11.8271   28.4453  C     
10   O        53.2799    8.3583   25.9754  O     
11   O        55.3504    7.1185   25.4107  O     
12   O        54.0135    6.4353   27.2899  O     
13   O        55.7844   14.1616   27.2466  O     
14   O        53.9907   13.0786   26.3543  O     
15   O        56.5353    8.4203   30.0823  O     
16   O        58.4139   10.5524   29.7739  O     
17   H        54.0842    9.1268   28.9689  H     
18   H        53.8415   10.7396   27.2461  H     
19   H        55.6946   10.2502   30.3443  H     
20   H        57.6583    9.8806   28.0178  H     
21   H        57.5696   12.2479   27.7930  H     
22   H        56.7244   12.4717   29.3254  H     
23   H        56.9385    8.6540   30.9496  H     
24   H        58.0332   10.6421   30.6781  H     
@<TRIPOS>BOND
     1    1    7 1
     2    1   10 1
     3    1   11 1
     4    1   12 2
     5    2    4 1
     6    2    5 1
     7    2    7 1
     8    3    4 2
     9    3    6 1
    10    3    9 1
    11    5    8 1
    12    5   15 1
    13    6   13 1
    14    6   14 2
    15    8    9 1
    16    8   16 1
    17    2   17 1
    18    4   18 1
    19    5   19 1
    20    8   20 1
    21    9   21 1
    22    9   22 1
    23   15   23 1
    24   16   24 1
@<TRIPOS>PROPERTY_DATA
  Total_Score	| 10.6904
  Crash		| -3.6127
  Polar		| 12.1327
  FragIndex	| 1
  FragRMSD	| 0.278

