@<TRIPOS>MOLECULE
BindingDB_50283578
 29 29 0 0 0
SMALL
NO_CHARGES


@<TRIPOS>ATOM
1    C        55.0124    9.3305   28.3279  C     
2    P        54.4231    7.5390   26.4819  P     
3    C        55.5517   11.7178   27.8088  C     
4    C        54.7214   10.6481   27.7723  C     
5    C        56.1674    9.3682   29.3706  C     
6    C        55.1545   12.9452   27.2545  C     
7    O        55.4266    8.4383   27.2692  O     
8    C        57.3704   10.2138   28.8628  C     
9    C        56.8619   11.6379   28.4852  C     
10   C        59.8861    9.4194   31.4744  C     
11   O        55.2058    6.9290   25.3023  O     
12   O        53.9465    6.4408   27.2830  O     
13   O        58.4383   10.3457   29.8292  O     
14   O        55.9003   14.0686   27.3569  O     
15   O        54.0156   13.0887   26.5358  O     
16   O        59.8636    8.5832   32.5311  O     
17   O        60.6164   10.5503   31.5736  O     
18   O        53.2280    8.3134   25.8916  O     
19   C        59.1331    9.1370   30.2445  C     
20   O        55.6841    9.8777   30.6112  O     
21   H        54.1250    8.9499   28.8406  H     
22   H        53.8500   10.7267   27.2992  H     
23   H        56.4915    8.3474   29.5580  H     
24   H        57.7679    9.7446   27.9514  H     
25   H        57.6289   12.0959   27.8518  H     
26   H        56.7952   12.2406   29.3964  H     
27   H        59.8298    8.8267   29.4557  H     
28   H        58.4439    8.2999   30.4586  H     
29   H        56.4861   10.0391   31.1464  H     
@<TRIPOS>BOND
     1    1    4 1
     2    1    5 1
     3    1    7 1
     4    2    7 1
     5    2   11 1
     6    2   12 2
     7    2   18 1
     8    3    4 2
     9    3    6 1
    10    3    9 1
    11    5    8 1
    12    5   20 1
    13    6   14 1
    14    6   15 2
    15    8    9 1
    16    8   13 1
    17   10   16 1
    18   10   17 2
    19   10   19 1
    20   13   19 1
    21    1   21 1
    22    4   22 1
    23    5   23 1
    24    8   24 1
    25    9   25 1
    26    9   26 1
    27   19   27 1
    28   19   28 1
    29   20   29 1
@<TRIPOS>PROPERTY_DATA
  Total_Score	| 13.2250
  Crash		| -4.7434
  Polar		| 15.4628
  FragIndex	| 1
  FragRMSD	| 0.627

