@<TRIPOS>MOLECULE
BindingDB_50281994
 27 27 0 0 0
SMALL
NO_CHARGES


@<TRIPOS>ATOM
1    C        55.6150   11.8764   28.0080  C     
2    C        57.3221   10.2289   29.0268  C     
3    C        54.6441   10.9535   28.1992  C     
4    C        59.1708    9.1863   30.3177  C     
5    C        55.3133   13.0696   27.3483  C     
6    C        56.0876    9.6713   29.7963  C     
7    O        58.5548   10.2750   29.7890  O     
8    C        59.9826    9.4393   31.4146  C     
9    C        54.8524    9.6752   28.8557  C     
10   C        56.9761   11.6743   28.5436  C     
11   O        56.1695   14.1159   27.3339  O     
12   O        60.2493    8.5320   32.3848  O     
13   O        54.1946   13.2159   26.6007  O     
14   O        60.6070   10.6325   31.5195  O     
15   C        59.0782    7.9503   29.7945  C     
16   O        56.2765    8.3450   30.2718  O     
17   O        55.0040    8.7036   27.8202  O     
18   H        57.5037    9.6186   28.1344  H     
19   H        53.7307   11.1083   27.8312  H     
20   H        55.8810   10.3072   30.6645  H     
21   H        53.9675    9.4202   29.4481  H     
22   H        57.7113   11.9442   27.7775  H     
23   H        57.1060   12.3650   29.3832  H     
24   H        59.5556    7.1746   30.1916  H     
25   H        58.5090    7.7785   29.0024  H     
26   H        56.7561    8.4409   31.1185  H     
27   H        54.1446    8.2337   27.7667  H     
@<TRIPOS>BOND
     1    1    3 2
     2    1    5 1
     3    1   10 1
     4    2    6 1
     5    2    7 1
     6    2   10 1
     7    3    9 1
     8    4    7 1
     9    4    8 1
    10    4   15 2
    11    5   11 1
    12    5   13 2
    13    6    9 1
    14    6   16 1
    15    8   12 1
    16    8   14 2
    17    9   17 1
    18    2   18 1
    19    3   19 1
    20    6   20 1
    21    9   21 1
    22   10   22 1
    23   10   23 1
    24   15   24 1
    25   15   25 1
    26   16   26 1
    27   17   27 1
@<TRIPOS>PROPERTY_DATA
  Total_Score	| 16.3394
  Crash		| -0.8135
  Polar		| 14.1030
  FragIndex	| 1
  FragRMSD	| 0.212

