@<TRIPOS>MOLECULE
BindingDB_50281987
 26 26 0 0 0
SMALL
NO_CHARGES


@<TRIPOS>ATOM
1    C        54.7435    7.3963   27.0339  C     
2    C        55.6439   11.8783   27.8922  C     
3    C        54.0151    7.9582   25.8788  C     
4    C        56.1148    6.8910   26.7460  C     
5    C        55.1955   13.0421   27.2630  C     
6    C        55.0174   10.6910   27.7140  C     
7    O        54.6824    8.2992   28.1741  O     
8    C        55.5584    9.4547   28.2802  C     
9    O        54.2778    7.5473   24.6200  O     
10   O        56.4224    6.2494   25.5958  O     
11   O        54.1114   13.0589   26.4546  O     
12   O        52.7614    8.4164   26.0915  O     
13   O        57.1104    7.0049   27.6610  O     
14   O        55.8846   14.2049   27.3187  O     
15   C        56.8763   11.9015   28.6979  C     
16   C        56.8522   10.9418   29.9299  C     
17   C        55.9052    9.7128   29.7684  C     
18   H        54.1672    6.5157   27.3152  H     
19   H        54.1654   10.6411   27.2077  H     
20   H        56.5071    9.2550   27.7839  H     
21   H        57.6944   11.5997   28.0379  H     
22   H        57.1192   12.9024   29.0593  H     
23   H        57.8719   10.5940   30.1191  H     
24   H        56.5385   11.5020   30.8126  H     
25   H        54.9757    9.8985   30.3136  H     
26   H        56.3715    8.8305   30.2104  H     
@<TRIPOS>BOND
     1    1    3 1
     2    1    4 1
     3    1    7 1
     4    2    5 1
     5    2    6 2
     6    2   15 1
     7    3    9 2
     8    3   12 1
     9    4   10 2
    10    4   13 1
    11    5   11 2
    12    5   14 1
    13    6    8 1
    14    7    8 1
    15    8   17 1
    16   15   16 1
    17   16   17 1
    18    1   18 1
    19    6   19 1
    20    8   20 1
    21   15   21 1
    22   15   22 1
    23   16   23 1
    24   16   24 1
    25   17   25 1
    26   17   26 1
@<TRIPOS>PROPERTY_DATA
  Total_Score	| 4.8417
  Crash		| -7.8635
  Polar		| 10.2714
  FragIndex	| 1
  FragRMSD	| 0.557

