@<TRIPOS>MOLECULE
BindingDB_50281345
 26 26 0 0 0
SMALL
NO_CHARGES


@<TRIPOS>ATOM
1    C        55.6217   11.8894   27.9503  C     
2    C        54.6803   10.9371   28.1387  C     
3    C        56.1712    9.7223   29.7423  C     
4    C        55.2908   13.0802   27.2901  C     
5    C        54.9174    9.6919   28.8261  C     
6    C        57.3881   10.2920   28.9737  C     
7    C        56.9977   11.7251   28.4745  C     
8    C        59.9784    9.4091   31.3983  C     
9    O        58.5329   10.3891   29.8323  O     
10   O        54.1534   13.1914   26.5507  O     
11   O        59.7866    8.5953   32.4659  O     
12   C        59.2931    9.2024   30.1026  C     
13   O        56.4567    8.4187   30.2351  O     
14   O        56.0770   14.1801   27.3308  O     
15   O        55.0657    8.6846   27.8292  O     
16   O        60.6703   10.5564   31.5898  O     
17   H        53.7702   11.0665   27.7675  H     
18   H        55.9481   10.3640   30.6092  H     
19   H        54.0494    9.4452   29.4462  H     
20   H        57.5899    9.6747   28.0964  H     
21   H        57.7208   12.0083   27.6933  H     
22   H        57.1225   12.4433   29.3064  H     
23   H        60.0591    9.0483   29.3400  H     
24   H        58.6851    8.2915   30.1612  H     
25   H        56.8918    8.5472   31.1051  H     
26   H        54.2214    8.1777   27.8289  H     
@<TRIPOS>BOND
     1    1    2 2
     2    1    4 1
     3    1    7 1
     4    2    5 1
     5    3    5 1
     6    3    6 1
     7    3   13 1
     8    4   10 2
     9    4   14 1
    10    5   15 1
    11    6    7 1
    12    6    9 1
    13    8   11 2
    14    8   12 1
    15    8   16 1
    16    9   12 1
    17    2   17 1
    18    3   18 1
    19    5   19 1
    20    6   20 1
    21    7   21 1
    22    7   22 1
    23   12   23 1
    24   12   24 1
    25   13   25 1
    26   15   26 1
@<TRIPOS>PROPERTY_DATA
  Total_Score	| 15.9572
  Crash		| -0.9081
  Polar		| 14.4419
  FragIndex	| 1
  FragRMSD	| 0.139

