@<TRIPOS>MOLECULE
BindingDB_50281346
 26 26 0 0 0
SMALL
NO_CHARGES


@<TRIPOS>ATOM
1    C        55.5487   11.9005   27.9398  C     
2    C        57.2469   10.3842   29.1194  C     
3    C        59.0719    9.3343   30.4066  C     
4    C        54.6400   10.9018   28.0234  C     
5    N        58.3468   10.3961   30.0134  N     
6    C        56.0092    9.7402   29.7911  C     
7    C        55.2340   13.0768   27.2536  C     
8    C        54.8435    9.6710   28.7506  C     
9    C        59.9441    9.4739   31.4415  C     
10   C        56.8526   11.8131   28.6291  C     
11   O        58.9537    8.2198   29.8735  O     
12   O        54.1367   13.1833   26.4596  O     
13   O        60.2067    8.4851   32.3475  O     
14   O        56.2755    8.4210   30.2698  O     
15   O        55.9580   14.2023   27.3870  O     
16   O        60.6838   10.6143   31.5210  O     
17   O        55.1158    8.6514   27.7871  O     
18   H        57.5158    9.8025   28.2334  H     
19   H        53.7861   10.9781   27.5516  H     
20   H        58.5012   11.2051   30.5356  H     
21   H        55.6769   10.3492   30.6506  H     
22   H        53.9285    9.4086   29.2947  H     
23   H        57.6554   12.1584   27.9604  H     
24   H        56.8332   12.5055   29.4879  H     
25   H        56.7870    8.5635   31.1091  H     
26   H        54.2996    8.1163   27.7039  H     
@<TRIPOS>BOND
     1    1    4 2
     2    1    7 1
     3    1   10 1
     4    2    5 1
     5    2    6 1
     6    2   10 1
     7    3    5 am
     8    3    9 1
     9    3   11 2
    10    4    8 1
    11    6    8 1
    12    6   14 1
    13    7   12 2
    14    7   15 1
    15    8   17 1
    16    9   13 2
    17    9   16 1
    18    2   18 1
    19    4   19 1
    20    5   20 1
    21    6   21 1
    22    8   22 1
    23   10   23 1
    24   10   24 1
    25   14   25 1
    26   17   26 1
@<TRIPOS>PROPERTY_DATA
  Total_Score	| 15.4043
  Crash		| -1.0536
  Polar		| 14.1224
  FragIndex	| 1
  FragRMSD	| 0.163

