@<TRIPOS>MOLECULE
BindingDB_50281993
 29 29 0 0 0
SMALL
NO_CHARGES


@<TRIPOS>ATOM
1    C        54.9480    9.4334   28.4594  C     
2    P        54.4907    7.6302   26.5856  P     
3    C        55.5188   11.7724   27.7738  C     
4    C        54.6738   10.7091   27.7907  C     
5    C        56.0228    9.6156   29.5750  C     
6    C        55.1409   12.9690   27.1584  C     
7    O        55.4433    8.4710   27.4942  O     
8    C        57.2707   10.3202   28.9632  C     
9    C        56.8185   11.7286   28.4692  C     
10   C        59.9144    9.4379   31.4114  C     
11   O        53.9582    6.3905   27.3262  O     
12   O        53.3895    8.3628   26.0097  O     
13   O        58.3682   10.4630   29.8903  O     
14   O        54.0294   13.0856   26.4040  O     
15   O        55.8754   14.0978   27.2633  O     
16   O        60.6881   10.5331   31.5943  O     
17   O        59.8146    8.5679   32.4440  O     
18   O        55.3380    7.0973   25.4117  O     
19   C        59.1421    9.2704   30.1705  C     
20   O        56.3412    8.3637   30.1719  O     
21   H        54.0352    9.0755   28.9481  H     
22   H        53.8102   10.7635   27.3015  H     
23   H        55.6050   10.2448   30.3717  H     
24   H        57.6055    9.7620   28.0785  H     
25   H        57.6013   12.1088   27.8032  H     
26   H        56.7579   12.4029   29.3295  H     
27   H        59.8313    9.1098   29.3424  H     
28   H        58.5205    8.3783   30.2740  H     
29   H        56.6903    8.5876   31.0579  H     
@<TRIPOS>BOND
     1    1    4 1
     2    1    5 1
     3    1    7 1
     4    2    7 1
     5    2   11 1
     6    2   12 2
     7    2   18 1
     8    3    4 2
     9    3    6 1
    10    3    9 1
    11    5    8 1
    12    5   20 1
    13    6   14 1
    14    6   15 2
    15    8    9 1
    16    8   13 1
    17   10   16 1
    18   10   17 2
    19   10   19 1
    20   13   19 1
    21    1   21 1
    22    4   22 1
    23    5   23 1
    24    8   24 1
    25    9   25 1
    26    9   26 1
    27   19   27 1
    28   19   28 1
    29   20   29 1
@<TRIPOS>PROPERTY_DATA
  Total_Score	| 14.4030
  Crash		| -4.1729
  Polar		| 16.1046
  FragIndex	| 1
  FragRMSD	| 0.975

