@<TRIPOS>MOLECULE
BindingDB_16699
 92 95 0 0 0
SMALL
NO_CHARGES


@<TRIPOS>ATOM
1    C        32.1140   47.0315    5.9660  C     
2    C        31.1531   46.3882    6.7675  C     
3    C        30.5802   45.1787    6.3305  C     
4    C        30.9630   44.6260    5.0956  C     
5    C        31.9192   45.2662    4.2632  C     
6    C        32.4878   46.4778    4.7297  C     
7    C        32.3882   44.6718    2.9725  C     
8    F        30.7925   46.9050    7.9117  F     
9    C        33.6919   43.8680    3.1922  C     
10   N        31.3989   43.8159    2.3860  N     
11   C        30.5486   44.1189    1.4112  C     
12   O        30.6080   45.2233    0.8695  O     
13   C        29.5231   43.2334    1.0542  C     
14   C        27.1771   42.8348    0.3348  C     
15   C        28.2462   43.7069    0.6670  C     
16   C        29.7359   41.8360    1.0643  C     
17   C        28.7025   40.9396    0.7283  C     
18   C        27.4333   41.4422    0.3825  C     
19   N        25.9484   43.3312   -0.0856  N     
20   C        25.2780   42.7792   -1.2407  C     
21   C        25.4692   46.2724    0.1111  C     
22   S        25.1858   44.6082    0.7410  S     
23   O        23.6119   44.3322    0.7227  O     
24   O        25.4663   44.5627    2.3013  O     
25   C        28.9832   39.6009    0.5772  C     
26   O        29.5111   39.2742   -0.4786  O     
27   N        28.7789   38.7319    1.5683  N     
28   C        29.0818   37.3245    1.5304  C     
29   C        30.0667   36.9398    2.6821  C     
30   C        31.3801   37.6343    2.6016  C     
31   C        31.5478   38.9203    3.1702  C     
32   C        32.4838   37.0204    1.9599  C     
33   C        33.7192   37.6823    1.8790  C     
34   C        33.8731   38.9621    2.4435  C     
35   C        32.7832   39.5811    3.0907  C     
36   C        27.7496   36.5114    1.4753  C     
37   N        27.4313   35.6791    2.6739  N     
38   C        26.6532   34.4264    2.4721  C     
39   C        27.2814   33.4961    1.5257  C     
40   O        26.5945   33.0121    0.6338  O     
41   N        28.5382   33.0844    1.6889  N     
42   C        25.1569   34.7446    2.1790  C     
43   C        29.2620   32.1026    0.9301  C     
44   C        28.8166   31.9267   -0.4760  C     
45   C        28.0700   30.4845   -2.3226  C     
46   C        27.9539   31.6141   -3.1700  C     
47   C        28.2542   32.8864   -2.6677  C     
48   C        28.7076   33.0451   -1.3404  C     
49   C        28.4968   30.6488   -0.9962  C     
50   H        32.5441   47.9036    6.2869  H     
51   H        29.8876   44.6991    6.9099  H     
52   H        30.5325   43.7478    4.8077  H     
53   H        33.1892   46.9635    4.1649  H     
54   H        32.6305   45.4741    2.2666  H     
55   H        34.4841   44.5210    3.5571  H     
56   H        34.0258   43.4204    2.2570  H     
57   H        33.5352   43.0719    3.9213  H     
58   H        31.2272   42.9849    2.8535  H     
59   H        28.0914   44.7151    0.6244  H     
60   H        30.6611   41.4559    1.2734  H     
61   H        26.6935   40.7773    0.1364  H     
62   H        25.9967   42.5818   -2.0410  H     
63   H        24.5219   43.4522   -1.6552  H     
64   H        24.7819   41.8424   -0.9735  H     
65   H        26.5381   46.4936    0.1382  H     
66   H        24.9338   46.9956    0.7283  H     
67   H        25.1098   46.3329   -0.9174  H     
68   H        28.3867   39.0671    2.3856  H     
69   H        29.6271   37.0815    0.6006  H     
70   H        29.6082   37.1505    3.6475  H     
71   H        30.2440   35.8620    2.6495  H     
72   H        30.7661   39.3751    3.6446  H     
73   H        32.3887   36.0923    1.5488  H     
74   H        34.5069   37.2312    1.4096  H     
75   H        34.7707   39.4455    2.3827  H     
76   H        32.8949   40.5072    3.5019  H     
77   H        26.8944   37.1747    1.3146  H     
78   H        27.7930   35.8748    0.5876  H     
79   H        28.3035   35.3958    3.1289  H     
80   H        26.9270   36.2698    3.3480  H     
81   H        26.6862   33.9108    3.4341  H     
82   H        29.0278   33.4530    2.4419  H     
83   H        24.7832   35.4928    2.8848  H     
84   H        24.5460   33.8406    2.2783  H     
85   H        25.0441   35.1340    1.1596  H     
86   H        30.3095   32.4151    0.9049  H     
87   H        29.2292   31.1612    1.4849  H     
88   H        27.8313   29.5553   -2.6889  H     
89   H        27.6389   31.4990   -4.1381  H     
90   H        28.1515   33.7111   -3.2777  H     
91   H        28.9042   33.9790   -0.9922  H     
92   H        28.5645   29.8144   -0.4012  H     
@<TRIPOS>BOND
     1    1    2 2
     2    1    6 1
     3    2    3 1
     4    2    8 1
     5    3    4 2
     6    4    5 1
     7    5    6 2
     8    5    7 1
     9    7    9 1
    10    7   10 1
    11   10   11 am
    12   11   12 2
    13   11   13 1
    14   13   15 2
    15   13   16 1
    16   14   15 1
    17   14   18 2
    18   14   19 1
    19   16   17 2
    20   17   18 1
    21   17   25 1
    22   19   20 1
    23   19   22 1
    24   21   22 1
    25   22   23 2
    26   22   24 2
    27   25   26 2
    28   25   27 am
    29   27   28 1
    30   28   29 1
    31   28   36 1
    32   29   30 1
    33   30   31 1
    34   30   32 2
    35   31   35 2
    36   32   33 1
    37   33   34 2
    38   34   35 1
    39   36   37 1
    40   37   38 1
    41   38   39 1
    42   38   42 1
    43   39   40 2
    44   39   41 am
    45   41   43 1
    46   43   44 1
    47   44   48 2
    48   44   49 1
    49   45   46 1
    50   45   49 2
    51   46   47 2
    52   47   48 1
    53    1   50 1
    54    3   51 1
    55    4   52 1
    56    6   53 1
    57    7   54 1
    58    9   55 1
    59    9   56 1
    60    9   57 1
    61   10   58 1
    62   15   59 1
    63   16   60 1
    64   18   61 1
    65   20   62 1
    66   20   63 1
    67   20   64 1
    68   21   65 1
    69   21   66 1
    70   21   67 1
    71   27   68 1
    72   28   69 1
    73   29   70 1
    74   29   71 1
    75   31   72 1
    76   32   73 1
    77   33   74 1
    78   34   75 1
    79   35   76 1
    80   36   77 1
    81   36   78 1
    82   37   79 1
    83   37   80 1
    84   38   81 1
    85   41   82 1
    86   42   83 1
    87   42   84 1
    88   42   85 1
    89   43   86 1
    90   43   87 1
    91   45   88 1
    92   46   89 1
    93   47   90 1
    94   48   91 1
    95   49   92 1
@<TRIPOS>PROPERTY_DATA
  Total_Score	| 13.3539
  Crash		| -3.5815
  Polar		| 3.9983
  FragIndex	| 1
  FragRMSD	| 0.471

