@<TRIPOS>MOLECULE
BindingDB_16039
 72 74 0 0 0
SMALL
NO_CHARGES


@<TRIPOS>ATOM
1    C        32.0959   47.1170    5.7876  C     
2    C        31.2324   46.4368    6.6631  C     
3    C        30.6660   45.2096    6.2743  C     
4    C        30.9522   44.6698    5.0072  C     
5    C        32.3851   46.5760    4.5234  C     
6    C        31.8167   45.3474    4.1094  C     
7    C        32.1840   44.7899    2.7678  C     
8    C        33.4880   43.9566    2.8642  C     
9    N        31.1349   43.9766    2.2132  N     
10   C        30.2957   44.3005    1.2341  C     
11   O        30.3866   45.3911    0.6863  O     
12   C        29.2412   43.4533    0.8829  C     
13   C        26.8926   43.1361    0.1571  C     
14   C        27.9815   43.9712    0.4947  C     
15   C        29.4008   42.0478    0.8791  C     
16   C        28.3364   41.1813    0.5439  C     
17   C        27.0886   41.7389    0.1960  C     
18   N        25.6913   43.6655   -0.2361  N     
19   C        25.0966   43.2904   -1.4850  C     
20   C        25.1566   46.5381    0.0922  C     
21   S        24.9320   44.8523    0.7061  S     
22   O        23.3831   44.4842    0.7603  O     
23   O        25.4025   44.7825    2.2248  O     
24   F        30.9615   46.9386    7.8396  F     
25   C        28.5674   39.7148    0.4669  C     
26   O        29.5492   39.2857    1.4259  O     
27   C        30.0696   37.9415    1.2474  C     
28   C        31.0028   37.5273    2.4415  C     
29   C        32.5227   37.4200    2.0425  C     
30   C        33.1709   38.6565    1.5137  C     
31   C        33.1648   38.9490    0.1251  C     
32   C        33.8562   40.0689   -0.3772  C     
33   C        34.5706   40.9089    0.4935  C     
34   C        34.5863   40.6315    1.8725  C     
35   C        33.8857   39.5205    2.3786  C     
36   N        30.8832   38.4970    3.5558  N     
37   C        30.5566   36.1555    3.0394  C     
38   H        32.5171   48.0048    6.0661  H     
39   H        30.0446   44.7068    6.9114  H     
40   H        30.5298   43.7767    4.7495  H     
41   H        33.0193   47.0818    3.9046  H     
42   H        32.3896   45.6179    2.0734  H     
43   H        34.3041   44.5737    3.2577  H     
44   H        33.7793   43.6020    1.8711  H     
45   H        33.3428   43.0980    3.5215  H     
46   H        30.9653   43.1347    2.6651  H     
47   H        27.8431   44.9802    0.4547  H     
48   H        30.3219   41.6417    1.0986  H     
49   H        26.3238   41.1111   -0.0508  H     
50   H        25.8199   43.4123   -2.2915  H     
51   H        24.2228   43.8895   -1.7406  H     
52   H        24.7795   42.2490   -1.4528  H     
53   H        26.2223   46.7837    0.0694  H     
54   H        24.6452   47.2421    0.7518  H     
55   H        24.7472   46.6233   -0.9149  H     
56   H        27.6417   39.1652    0.6763  H     
57   H        28.8905   39.4717   -0.5520  H     
58   H        29.2271   37.2368    1.1439  H     
59   H        30.6476   37.9096    0.3098  H     
60   H        33.0996   37.0821    2.9114  H     
61   H        32.6241   36.6254    1.2982  H     
62   H        32.6772   38.3245   -0.5271  H     
63   H        33.8500   40.2688   -1.3804  H     
64   H        35.0864   41.7117    0.1246  H     
65   H        35.1151   41.2425    2.5045  H     
66   H        33.9209   39.3347    3.3845  H     
67   H        31.1687   39.4294    3.2443  H     
68   H        31.4802   38.2148    4.3410  H     
69   H        29.9157   38.5338    3.8777  H     
70   H        29.5146   36.1943    3.3541  H     
71   H        31.1580   35.8881    3.9170  H     
72   H        30.6710   35.3684    2.2955  H     
@<TRIPOS>BOND
     1    1    2 2
     2    1    5 1
     3    2    3 1
     4    2   24 1
     5    3    4 2
     6    4    6 1
     7    5    6 2
     8    6    7 1
     9    7    8 1
    10    7    9 1
    11    9   10 am
    12   10   11 2
    13   10   12 1
    14   12   14 2
    15   12   15 1
    16   13   14 1
    17   13   17 2
    18   13   18 1
    19   15   16 2
    20   16   17 1
    21   16   25 1
    22   18   19 1
    23   18   21 1
    24   20   21 1
    25   21   22 2
    26   21   23 2
    27   25   26 1
    28   26   27 1
    29   27   28 1
    30   28   29 1
    31   28   36 1
    32   28   37 1
    33   29   30 1
    34   30   31 2
    35   30   35 1
    36   31   32 1
    37   32   33 2
    38   33   34 1
    39   34   35 2
    40    1   38 1
    41    3   39 1
    42    4   40 1
    43    5   41 1
    44    7   42 1
    45    8   43 1
    46    8   44 1
    47    8   45 1
    48    9   46 1
    49   14   47 1
    50   15   48 1
    51   17   49 1
    52   19   50 1
    53   19   51 1
    54   19   52 1
    55   20   53 1
    56   20   54 1
    57   20   55 1
    58   25   56 1
    59   25   57 1
    60   27   58 1
    61   27   59 1
    62   29   60 1
    63   29   61 1
    64   31   62 1
    65   32   63 1
    66   33   64 1
    67   34   65 1
    68   35   66 1
    69   36   67 1
    70   36   68 1
    71   36   69 1
    72   37   70 1
    73   37   71 1
    74   37   72 1
@<TRIPOS>PROPERTY_DATA
  Total_Score	| 15.8656
  Crash		| -1.7809
  Polar		| 5.4894
  FragIndex	| 1
  FragRMSD	| 0.212

