@<TRIPOS>MOLECULE
BindingDB_16037
 71 73 0 0 0
SMALL
NO_CHARGES


@<TRIPOS>ATOM
1    C        32.1943   47.0564    5.7746  C     
2    C        31.2242   46.4846    6.6084  C     
3    C        30.6436   45.2516    6.2653  C     
4    C        31.0338   44.5982    5.0724  C     
5    C        32.5796   46.4032    4.5868  C     
6    C        32.0039   45.1668    4.2166  C     
7    C        32.4951   44.4868    2.9747  C     
8    C        33.7799   43.6769    3.2723  C     
9    N        31.5116   43.6172    2.4041  N     
10   C        30.4758   43.9800    1.6440  C     
11   O        30.3587   45.1589    1.3210  O     
12   C        29.5062   43.0515    1.2527  C     
13   C        27.1806   42.5803    0.4496  C     
14   C        28.2033   43.4808    0.8272  C     
15   C        29.7670   41.6660    1.2194  C     
16   C        28.7833   40.7278    0.8519  C     
17   C        27.4875   41.2026    0.4793  C     
18   N        25.9419   43.0509   -0.0044  N     
19   C        25.2928   42.4119   -1.1240  C     
20   C        25.6238   46.0269   -0.0965  C     
21   S        25.1976   44.4326    0.6367  S     
22   O        23.6033   44.2738    0.4929  O     
23   O        25.3343   44.5124    2.2184  O     
24   F        30.8637   47.0933    7.7096  F     
25   C        29.0967   39.3785    0.7902  C     
26   O        29.8082   38.9881   -0.1343  O     
27   N        28.7167   38.5732    1.7760  N     
28   C        30.2372   37.2913    3.1891  C     
29   O        30.4764   38.5964    3.7220  O     
30   C        27.7603   36.5704    2.7235  C     
31   O        26.6855   37.4715    3.0363  O     
32   C        29.0723   37.2117    2.1218  C     
33   C        29.5609   36.3627    0.8782  C     
34   C        29.4458   34.8568    0.9078  C     
35   C        30.2306   34.0745    1.7892  C     
36   C        30.1723   32.6643    1.7689  C     
37   C        29.3403   32.0148    0.8395  C     
38   C        28.5656   32.7657   -0.0579  C     
39   C        28.6258   34.1763   -0.0268  C     
40   H        32.6339   47.9430    6.0233  H     
41   H        29.9443   44.8205    6.8734  H     
42   H        30.5978   43.7055    4.8580  H     
43   H        33.2927   46.8337    3.9955  H     
44   H        32.7672   45.2431    2.2283  H     
45   H        34.5661   44.3317    3.6555  H     
46   H        34.1450   43.2089    2.3568  H     
47   H        33.5800   42.8987    4.0110  H     
48   H        31.4965   42.7092    2.7446  H     
49   H        28.0282   44.4852    0.7920  H     
50   H        30.6943   41.3116    1.4699  H     
51   H        26.7765   40.5085    0.2186  H     
52   H        26.0067   42.2554   -1.9422  H     
53   H        24.4541   42.9998   -1.5314  H     
54   H        24.8903   41.4451   -0.8127  H     
55   H        26.6970   46.2028    0.0157  H     
56   H        25.0760   46.8294    0.4062  H     
57   H        25.3719   46.0316   -1.1607  H     
58   H        28.2342   39.0343    2.4840  H     
59   H        31.1922   36.9803    2.7501  H     
60   H        30.0399   36.6222    4.0326  H     
61   H        31.2126   38.4603    4.3745  H     
62   H        27.9862   35.9927    3.6274  H     
63   H        27.3180   35.8758    2.0001  H     
64   H        27.0304   38.0710    3.7206  H     
65   H        28.9934   36.7117    0.0192  H     
66   H        30.6058   36.5730    0.6485  H     
67   H        30.8602   34.5238    2.4592  H     
68   H        30.7412   32.1213    2.4124  H     
69   H        29.3100   30.9938    0.8122  H     
70   H        27.9674   32.2960   -0.7387  H     
71   H        28.0505   34.6960   -0.6918  H     
@<TRIPOS>BOND
     1    1    2 2
     2    1    5 1
     3    2    3 1
     4    2   24 1
     5    3    4 2
     6    4    6 1
     7    5    6 2
     8    6    7 1
     9    7    8 1
    10    7    9 1
    11    9   10 am
    12   10   11 2
    13   10   12 1
    14   12   14 2
    15   12   15 1
    16   13   14 1
    17   13   17 2
    18   13   18 1
    19   15   16 2
    20   16   17 1
    21   16   25 1
    22   18   19 1
    23   18   21 1
    24   20   21 1
    25   21   22 2
    26   21   23 2
    27   25   26 2
    28   25   27 am
    29   27   32 1
    30   28   29 1
    31   28   32 1
    32   30   31 1
    33   30   32 1
    34   32   33 1
    35   33   34 1
    36   34   35 1
    37   34   39 2
    38   35   36 2
    39   36   37 1
    40   37   38 2
    41   38   39 1
    42    1   40 1
    43    3   41 1
    44    4   42 1
    45    5   43 1
    46    7   44 1
    47    8   45 1
    48    8   46 1
    49    8   47 1
    50    9   48 1
    51   14   49 1
    52   15   50 1
    53   17   51 1
    54   19   52 1
    55   19   53 1
    56   19   54 1
    57   20   55 1
    58   20   56 1
    59   20   57 1
    60   27   58 1
    61   28   59 1
    62   28   60 1
    63   29   61 1
    64   30   62 1
    65   30   63 1
    66   31   64 1
    67   33   65 1
    68   33   66 1
    69   35   67 1
    70   36   68 1
    71   37   69 1
    72   38   70 1
    73   39   71 1
@<TRIPOS>PROPERTY_DATA
  Total_Score	| 11.0553
  Crash		| -4.1397
  Polar		| 6.1758
  FragIndex	| 1
  FragRMSD	| 0.569

