@<TRIPOS>MOLECULE
BindingDB_16698
 86 89 0 0 0
SMALL
NO_CHARGES


@<TRIPOS>ATOM
1    C        31.8184   47.2824    6.1737  C     
2    C        30.9576   46.4708    6.9251  C     
3    C        30.5971   45.2002    6.4430  C     
4    C        31.1047   44.7525    5.2077  C     
5    C        31.9706   45.5609    4.4330  C     
6    C        32.3202   46.8329    4.9361  C     
7    C        32.5020   45.0819    3.1209  C     
8    F        30.4809   46.8949    8.0629  F     
9    C        33.9060   44.4444    3.2720  C     
10   N        31.5904   44.1402    2.5200  N     
11   C        30.4922   44.4192    1.8166  C     
12   O        30.2442   45.6002    1.5931  O     
13   C        29.6008   43.4232    1.3769  C     
14   C        27.3789   42.8046    0.4723  C     
15   C        28.3016   43.7714    0.9251  C     
16   C        29.9504   42.0468    1.3622  C     
17   C        29.0600   41.0416    0.9073  C     
18   C        27.7767   41.4492    0.4625  C     
19   N        26.1305   43.1851    0.0398  N     
20   C        25.4892   42.4877   -1.0505  C     
21   C        25.7470   46.1180   -0.0427  C     
22   S        25.3488   44.5330    0.7205  S     
23   O        23.7830   44.2679    0.6499  O     
24   O        25.6115   44.6146    2.2909  O     
25   C        29.4452   39.6962    0.8557  C     
26   O        28.9284   38.9696    0.0136  O     
27   N        30.3627   39.1875    1.6744  N     
28   C        31.0048   37.8977    1.5648  C     
29   C        32.5169   38.0419    1.9287  C     
30   C        33.2251   39.2050    1.3235  C     
31   C        33.1698   39.4420   -0.0696  C     
32   C        34.0015   40.0791    2.1217  C     
33   C        34.7079   41.1513    1.5410  C     
34   C        34.6206   41.3848    0.1617  C     
35   C        33.8569   40.5252   -0.6479  C     
36   C        30.3320   36.8113    2.4630  C     
37   N        28.8525   36.7945    2.3655  N     
38   C        28.1676   35.4684    2.3273  C     
39   C        28.6838   34.6360    1.2319  C     
40   O        28.7353   35.0723    0.0929  O     
41   N        29.1485   33.4188    1.4928  N     
42   C        26.6386   35.7282    2.2371  C     
43   C        29.8476   32.5876    0.5645  C     
44   C        31.0966   31.9419    1.2002  C     
45   C        29.9162   31.0649    0.7694  C     
46   H        32.0867   48.2020    6.5212  H     
47   H        29.9629   44.6044    6.9779  H     
48   H        30.8382   43.8214    4.8801  H     
49   H        32.9381   47.4479    4.4023  H     
50   H        32.6379   45.9209    2.4312  H     
51   H        34.5968   45.1534    3.7351  H     
52   H        34.2964   44.1720    2.2912  H     
53   H        33.8617   43.5448    3.8883  H     
54   H        31.7302   43.2118    2.7626  H     
55   H        28.0121   44.7552    0.9119  H     
56   H        30.8924   41.7656    1.6493  H     
57   H        27.1009   40.7437    0.1574  H     
58   H        26.1442   42.5111   -1.9285  H     
59   H        24.5351   42.9358   -1.3412  H     
60   H        25.2942   41.4426   -0.7813  H     
61   H        26.8058   46.3317    0.0867  H     
62   H        25.1552   46.9090    0.4216  H     
63   H        25.5143   46.0763   -1.1072  H     
64   H        30.7102   39.7849    2.3611  H     
65   H        30.9551   37.5408    0.5303  H     
66   H        32.6061   38.0766    3.0197  H     
67   H        33.0483   37.1450    1.5994  H     
68   H        32.6410   38.8210   -0.6807  H     
69   H        34.0717   39.9429    3.1335  H     
70   H        35.2838   41.7576    2.1270  H     
71   H        35.1355   42.1598   -0.2576  H     
72   H        33.8069   40.6827   -1.6558  H     
73   H        30.7312   35.8278    2.1872  H     
74   H        30.6038   36.9896    3.5087  H     
75   H        28.5075   37.3159    3.1722  H     
76   H        28.5676   37.3136    1.5361  H     
77   H        28.3283   34.9420    3.2758  H     
78   H        29.0113   33.0637    2.3853  H     
79   H        26.2975   36.2875    3.1112  H     
80   H        26.0932   34.7821    2.2027  H     
81   H        26.3963   36.3077    1.3451  H     
82   H        30.0778   32.9746   -0.4315  H     
83   H        31.9796   31.8099    0.5755  H     
84   H        31.2174   31.9768    2.2838  H     
85   H        29.2879   30.6703    1.5707  H     
86   H        30.0514   30.4833   -0.1438  H     
@<TRIPOS>BOND
     1    1    2 2
     2    1    6 1
     3    2    3 1
     4    2    8 1
     5    3    4 2
     6    4    5 1
     7    5    6 2
     8    5    7 1
     9    7    9 1
    10    7   10 1
    11   10   11 am
    12   11   12 2
    13   11   13 1
    14   13   15 2
    15   13   16 1
    16   14   15 1
    17   14   18 2
    18   14   19 1
    19   16   17 2
    20   17   18 1
    21   17   25 1
    22   19   20 1
    23   19   22 1
    24   21   22 1
    25   22   23 2
    26   22   24 2
    27   25   26 2
    28   25   27 am
    29   27   28 1
    30   28   29 1
    31   28   36 1
    32   29   30 1
    33   30   31 1
    34   30   32 2
    35   31   35 2
    36   32   33 1
    37   33   34 2
    38   34   35 1
    39   36   37 1
    40   37   38 1
    41   38   39 1
    42   38   42 1
    43   39   40 2
    44   39   41 am
    45   41   43 1
    46   43   44 1
    47   43   45 1
    48   44   45 1
    49    1   46 1
    50    3   47 1
    51    4   48 1
    52    6   49 1
    53    7   50 1
    54    9   51 1
    55    9   52 1
    56    9   53 1
    57   10   54 1
    58   15   55 1
    59   16   56 1
    60   18   57 1
    61   20   58 1
    62   20   59 1
    63   20   60 1
    64   21   61 1
    65   21   62 1
    66   21   63 1
    67   27   64 1
    68   28   65 1
    69   29   66 1
    70   29   67 1
    71   31   68 1
    72   32   69 1
    73   33   70 1
    74   34   71 1
    75   35   72 1
    76   36   73 1
    77   36   74 1
    78   37   75 1
    79   37   76 1
    80   38   77 1
    81   41   78 1
    82   42   79 1
    83   42   80 1
    84   42   81 1
    85   43   82 1
    86   44   83 1
    87   44   84 1
    88   45   85 1
    89   45   86 1
@<TRIPOS>PROPERTY_DATA
  Total_Score	| 13.6545
  Crash		| -3.2497
  Polar		| 5.4616
  FragIndex	| 1
  FragRMSD	| 0.684

