@<TRIPOS>MOLECULE
BindingDB_16411
 79 81 0 0 0
SMALL
NO_CHARGES


@<TRIPOS>ATOM
1    C        27.5374   42.9074    0.3201  C     
2    C        28.4872   43.8567    0.7834  C     
3    C        29.7742   43.4934    1.2586  C     
4    C        30.1254   42.1265    1.2270  C     
5    C        29.2560   41.1479    0.7087  C     
6    C        27.9753   41.5573    0.2583  C     
7    C        30.6649   44.4514    1.7530  C     
8    O        30.5805   45.6130    1.3614  O     
9    N        31.5619   44.1314    2.6829  N     
10   C        32.4870   45.0032    3.3503  C     
11   C        29.6722   39.8175    0.6365  C     
12   O        29.4482   39.1972   -0.3891  O     
13   N        30.3389   39.2650    1.6499  N     
14   C        30.9252   37.9476    1.7049  C     
15   C        28.7452   36.5905    2.3411  C     
16   C        32.4606   38.0437    2.0089  C     
17   C        30.1630   37.0860    2.7688  C     
18   O        30.9016   35.9111    3.1235  O     
19   N        26.2288   43.2912   -0.0571  N     
20   C        23.6960   44.8682    0.4738  C     
21   S        25.4946   44.6903    0.5738  S     
22   O        25.7679   44.8282    2.1398  O     
23   O        26.0168   45.9881   -0.1688  O     
24   C        33.8172   44.2481    3.5873  C     
25   C        33.2039   39.1422    1.3356  C     
26   C        33.2460   39.2248   -0.0755  C     
27   C        33.9550   40.2588   -0.7162  C     
28   C        34.6680   41.2038    0.0458  C     
29   C        34.6578   41.1195    1.4484  C     
30   C        33.9203   40.1067    2.0887  C     
31   C        31.9291   45.5070    4.6427  C     
32   C        32.2278   46.8268    5.0640  C     
33   C        31.1692   44.6856    5.5101  C     
34   C        30.7185   45.1678    6.7550  C     
35   C        31.0361   46.4748    7.1583  C     
36   C        31.7939   47.3060    6.3115  C     
37   F        30.6387   46.9197    8.3249  F     
38   N        27.7482   37.6882    2.2226  N     
39   C        26.3596   37.3297    1.8331  C     
40   C        25.5735   36.5605    2.9167  C     
41   C        25.4440   42.4758   -0.9599  C     
42   H        28.2457   44.8480    0.7867  H     
43   H        31.0624   41.8478    1.5347  H     
44   H        27.3430   40.8282   -0.0847  H     
45   H        31.5110   43.2247    3.0276  H     
46   H        32.7288   45.8492    2.6940  H     
47   H        30.4492   39.8111    2.4406  H     
48   H        30.8249   37.4414    0.7404  H     
49   H        28.8106   36.0522    1.3892  H     
50   H        28.3984   35.8888    3.1077  H     
51   H        32.5930   38.1237    3.0892  H     
52   H        32.9277   37.1033    1.7055  H     
53   H        30.0545   37.6633    3.6924  H     
54   H        31.6150   36.2073    3.7329  H     
55   H        23.3734   44.8359   -0.5673  H     
56   H        23.3982   45.8241    0.9030  H     
57   H        23.2209   44.0693    1.0354  H     
58   H        33.6489   43.3230    4.1463  H     
59   H        34.5160   44.8714    4.1473  H     
60   H        34.2766   44.0055    2.6285  H     
61   H        32.7577   38.5317   -0.6491  H     
62   H        33.9705   40.3165   -1.7361  H     
63   H        35.1967   41.9441   -0.4216  H     
64   H        35.1936   41.7929    2.0010  H     
65   H        33.9278   40.0702    3.1114  H     
66   H        32.7809   47.4455    4.4693  H     
67   H        30.9377   43.7278    5.2473  H     
68   H        30.1677   44.5588    7.3646  H     
69   H        32.0310   48.2556    6.6057  H     
70   H        27.7248   38.2042    3.1066  H     
71   H        28.0813   38.3155    1.4919  H     
72   H        25.8285   38.2627    1.6346  H     
73   H        26.3658   36.7473    0.9031  H     
74   H        26.0116   35.5750    3.0852  H     
75   H        24.5410   36.4161    2.5906  H     
76   H        25.5733   37.1209    3.8540  H     
77   H        26.0346   42.2262   -1.8473  H     
78   H        24.5371   42.9567   -1.3139  H     
79   H        25.1395   41.5569   -0.4561  H     
@<TRIPOS>BOND
     1    1    2 1
     2    1    6 2
     3    1   19 1
     4    2    3 2
     5    3    4 1
     6    3    7 1
     7    4    5 2
     8    5    6 1
     9    5   11 1
    10    7    8 2
    11    7    9 am
    12    9   10 1
    13   10   24 1
    14   10   31 1
    15   11   12 2
    16   11   13 am
    17   13   14 1
    18   14   16 1
    19   14   17 1
    20   15   17 1
    21   15   38 1
    22   16   25 1
    23   17   18 1
    24   19   21 1
    25   19   41 1
    26   20   21 1
    27   21   22 2
    28   21   23 2
    29   25   26 2
    30   25   30 1
    31   26   27 1
    32   27   28 2
    33   28   29 1
    34   29   30 2
    35   31   32 1
    36   31   33 2
    37   32   36 2
    38   33   34 1
    39   34   35 2
    40   35   36 1
    41   35   37 1
    42   38   39 1
    43   39   40 1
    44    2   42 1
    45    4   43 1
    46    6   44 1
    47    9   45 1
    48   10   46 1
    49   13   47 1
    50   14   48 1
    51   15   49 1
    52   15   50 1
    53   16   51 1
    54   16   52 1
    55   17   53 1
    56   18   54 1
    57   20   55 1
    58   20   56 1
    59   20   57 1
    60   24   58 1
    61   24   59 1
    62   24   60 1
    63   26   61 1
    64   27   62 1
    65   28   63 1
    66   29   64 1
    67   30   65 1
    68   32   66 1
    69   33   67 1
    70   34   68 1
    71   36   69 1
    72   38   70 1
    73   38   71 1
    74   39   72 1
    75   39   73 1
    76   40   74 1
    77   40   75 1
    78   40   76 1
    79   41   77 1
    80   41   78 1
    81   41   79 1
@<TRIPOS>PROPERTY_DATA
  Total_Score	| 13.7469
  Crash		| -3.8737
  Polar		| 5.9620
  FragIndex	| 1
  FragRMSD	| 1.038

