@<TRIPOS>MOLECULE
BindingDB_16036
 72 74 0 0 0
SMALL
NO_CHARGES


@<TRIPOS>ATOM
1    C        30.6809   45.2788    6.5182  C     
2    C        31.2940   46.4767    6.9247  C     
3    C        32.1502   47.1539    6.0376  C     
4    C        32.3863   46.6347    4.7511  C     
5    C        30.9230   44.7596    5.2299  C     
6    C        31.7766   45.4347    4.3185  C     
7    C        32.0850   44.9153    2.9476  C     
8    C        33.4002   44.0936    2.9530  C     
9    N        31.0253   44.1041    2.4169  N     
10   C        30.2115   44.3851    1.3988  C     
11   O        30.2918   45.4814    0.8447  O     
12   C        29.2112   43.4899    1.0051  C     
13   C        26.9057   43.0972    0.1851  C     
14   C        27.9585   43.9685    0.5418  C     
15   C        29.4058   42.0847    1.0627  C     
16   C        28.3785   41.1799    0.7139  C     
17   C        27.1367   41.7091    0.2831  C     
18   N        25.6918   43.5799   -0.2604  N     
19   C        25.1171   43.1018   -1.4945  C     
20   C        25.0455   46.4293   -0.1240  C     
21   S        24.8744   44.7893    0.6083  S     
22   O        23.3396   44.3748    0.6506  O     
23   O        25.3096   44.8113    2.1411  O     
24   F        31.0700   46.9610    8.1160  F     
25   C        28.5626   39.7717    0.8615  C     
26   O        27.4648   38.9611    0.7804  O     
27   O        29.7840   39.2367    1.1824  O     
28   C        30.0268   37.8223    1.4478  C     
29   C        31.0848   37.6527    2.5926  C     
30   C        31.0140   38.8478    3.5985  C     
31   N        30.7362   36.4383    3.3655  N     
32   O        29.8637   39.6674    3.3478  O     
33   C        32.5398   37.4057    2.0537  C     
34   C        33.2605   38.5758    1.4665  C     
35   C        33.1190   38.9111    0.0971  C     
36   C        33.7943   40.0208   -0.4478  C     
37   C        34.6431   40.7971    0.3579  C     
38   C        34.8183   40.4589    1.7109  C     
39   C        34.1374   39.3537    2.2583  C     
40   H        30.0571   44.7806    7.1610  H     
41   H        32.6077   48.0225    6.3256  H     
42   H        33.0145   47.1460    4.1266  H     
43   H        30.4646   43.8856    4.9647  H     
44   H        32.2595   45.7662    2.2774  H     
45   H        34.2354   44.7120    3.2895  H     
46   H        33.6279   43.7371    1.9460  H     
47   H        33.3146   43.2299    3.6171  H     
48   H        30.8559   43.2720    2.8885  H     
49   H        27.8016   44.9778    0.4632  H     
50   H        30.3124   41.7177    1.3675  H     
51   H        26.3739   41.0735    0.0436  H     
52   H        25.8549   43.1722   -2.2955  H     
53   H        24.2428   43.6790   -1.8065  H     
54   H        24.8017   42.0622   -1.3961  H     
55   H        26.0911   46.7303   -0.1139  H     
56   H        24.4571   47.1500    0.4403  H     
57   H        24.6892   46.3970   -1.1509  H     
58   H        29.0921   37.3385    1.7607  H     
59   H        30.3511   37.3105    0.5374  H     
60   H        31.0042   38.4992    4.6367  H     
61   H        31.8855   39.4995    3.4789  H     
62   H        29.8884   36.6241    3.9069  H     
63   H        31.4978   36.1983    4.0096  H     
64   H        30.5793   35.6564    2.7238  H     
65   H        29.1093   39.2597    3.8313  H     
66   H        33.1438   36.9899    2.8699  H     
67   H        32.4943   36.6124    1.2977  H     
68   H        32.5295   38.3437   -0.5186  H     
69   H        33.6767   40.2602   -1.4345  H     
70   H        35.1368   41.5995   -0.0400  H     
71   H        35.4487   41.0175    2.2943  H     
72   H        34.2880   39.1224    3.2418  H     
@<TRIPOS>BOND
     1    1    2 2
     2    1    5 1
     3    2    3 1
     4    2   24 1
     5    3    4 2
     6    4    6 1
     7    5    6 2
     8    6    7 1
     9    7    8 1
    10    7    9 1
    11    9   10 am
    12   10   11 2
    13   10   12 1
    14   12   14 2
    15   12   15 1
    16   13   14 1
    17   13   17 2
    18   13   18 1
    19   15   16 2
    20   16   17 1
    21   16   25 1
    22   18   19 1
    23   18   21 1
    24   20   21 1
    25   21   22 2
    26   21   23 2
    27   25   26 2
    28   25   27 1
    29   27   28 1
    30   28   29 1
    31   29   30 1
    32   29   31 1
    33   29   33 1
    34   30   32 1
    35   33   34 1
    36   34   35 1
    37   34   39 2
    38   35   36 2
    39   36   37 1
    40   37   38 2
    41   38   39 1
    42    1   40 1
    43    3   41 1
    44    4   42 1
    45    5   43 1
    46    7   44 1
    47    8   45 1
    48    8   46 1
    49    8   47 1
    50    9   48 1
    51   14   49 1
    52   15   50 1
    53   17   51 1
    54   19   52 1
    55   19   53 1
    56   19   54 1
    57   20   55 1
    58   20   56 1
    59   20   57 1
    60   28   58 1
    61   28   59 1
    62   30   60 1
    63   30   61 1
    64   31   62 1
    65   31   63 1
    66   31   64 1
    67   32   65 1
    68   33   66 1
    69   33   67 1
    70   35   68 1
    71   36   69 1
    72   37   70 1
    73   38   71 1
    74   39   72 1
@<TRIPOS>PROPERTY_DATA
  Total_Score	| 14.3270
  Crash		| -2.9061
  Polar		| 5.5657
  FragIndex	| 1
  FragRMSD	| 0.670

