@<TRIPOS>MOLECULE
BindingDB_16410
 73 75 0 0 0
SMALL
NO_CHARGES


@<TRIPOS>ATOM
1    C        27.3115   42.9940    0.3545  C     
2    C        28.2415   43.9251    0.9045  C     
3    C        29.5770   43.5958    1.2430  C     
4    C        29.9816   42.2592    1.0265  C     
5    C        29.1100   41.2739    0.5170  C     
6    C        27.7989   41.6686    0.1688  C     
7    C        30.4626   44.5390    1.7917  C     
8    O        30.1454   45.7245    1.8217  O     
9    N        31.6392   44.1868    2.3133  N     
10   C        32.5714   45.0103    3.0342  C     
11   C        29.5500   39.9622    0.3474  C     
12   O        29.0584   39.2908   -0.5502  O     
13   N        30.4943   39.4303    1.1262  N     
14   C        31.0858   38.1194    0.9853  C     
15   C        30.7420   36.0568    2.6865  C     
16   C        32.5944   38.1268    1.4140  C     
17   C        30.1567   36.9968    1.5937  C     
18   O        28.8880   37.4893    2.0472  O     
19   N        25.9915   43.3435   -0.0023  N     
20   C        23.5467   45.1460    0.1822  C     
21   S        25.2590   44.7622    0.5927  S     
22   O        25.3342   44.7719    2.1833  O     
23   O        26.0491   46.0313    0.0479  O     
24   C        33.9072   44.2452    3.2349  C     
25   C        33.3984   39.3357    1.0527  C     
26   C        33.5867   39.7292   -0.2953  C     
27   C        34.3033   40.8922   -0.6218  C     
28   C        34.8688   41.6710    0.3989  C     
29   C        34.7445   41.2701    1.7403  C     
30   C        34.0164   40.1108    2.0654  C     
31   N        30.9080   36.6891    4.0079  N     
32   C        32.0391   45.4678    4.3582  C     
33   C        32.4697   46.6993    4.9060  C     
34   C        31.1433   44.6779    5.1210  C     
35   C        30.6686   45.1158    6.3704  C     
36   C        31.0970   46.3504    6.8907  C     
37   C        32.0071   47.1364    6.1620  C     
38   F        30.6533   46.7621    8.0479  F     
39   C        25.2070   42.5182   -0.8984  C     
40   H        27.9417   44.8829    1.0633  H     
41   H        30.9486   41.9929    1.2211  H     
42   H        27.1727   40.9526   -0.2049  H     
43   H        31.8786   43.2517    2.2488  H     
44   H        32.8010   45.8745    2.4017  H     
45   H        30.8291   39.9696    1.8599  H     
46   H        31.1294   37.9184   -0.0981  H     
47   H        30.0553   35.2147    2.8224  H     
48   H        31.7042   35.6475    2.3579  H     
49   H        32.6495   37.9907    2.4818  H     
50   H        33.0874   37.2700    0.9465  H     
51   H        29.8904   36.3349    0.7627  H     
52   H        29.0212   37.8384    2.9617  H     
53   H        23.4228   45.2164   -0.9011  H     
54   H        23.2727   46.1044    0.6206  H     
55   H        22.8877   44.3711    0.5769  H     
56   H        33.7668   43.3551    3.8515  H     
57   H        34.6449   44.8896    3.7162  H     
58   H        34.3111   43.9368    2.2696  H     
59   H        33.1784   39.1773   -1.0535  H     
60   H        34.3978   41.1761   -1.5938  H     
61   H        35.3637   42.5331    0.1718  H     
62   H        35.1632   41.8291    2.4851  H     
63   H        33.9447   39.8313    3.0493  H     
64   H        31.5912   37.4501    3.9888  H     
65   H        31.2592   35.9951    4.6696  H     
66   H        30.0110   37.0582    4.3222  H     
67   H        33.1290   47.2839    4.3938  H     
68   H        30.8205   43.7754    4.7666  H     
69   H        30.0139   44.5347    6.8982  H     
70   H        32.3364   48.0280    6.5429  H     
71   H        25.7934   42.2818   -1.7888  H     
72   H        24.2853   42.9786   -1.2438  H     
73   H        24.9350   41.5852   -0.4000  H     
@<TRIPOS>BOND
     1    1    2 1
     2    1    6 2
     3    1   19 1
     4    2    3 2
     5    3    4 1
     6    3    7 1
     7    4    5 2
     8    5    6 1
     9    5   11 1
    10    7    8 2
    11    7    9 am
    12    9   10 1
    13   10   24 1
    14   10   32 1
    15   11   12 2
    16   11   13 am
    17   13   14 1
    18   14   16 1
    19   14   17 1
    20   15   17 1
    21   15   31 1
    22   16   25 1
    23   17   18 1
    24   19   21 1
    25   19   39 1
    26   20   21 1
    27   21   22 2
    28   21   23 2
    29   25   26 2
    30   25   30 1
    31   26   27 1
    32   27   28 2
    33   28   29 1
    34   29   30 2
    35   32   33 1
    36   32   34 2
    37   33   37 2
    38   34   35 1
    39   35   36 2
    40   36   37 1
    41   36   38 1
    42    2   40 1
    43    4   41 1
    44    6   42 1
    45    9   43 1
    46   10   44 1
    47   13   45 1
    48   14   46 1
    49   15   47 1
    50   15   48 1
    51   16   49 1
    52   16   50 1
    53   17   51 1
    54   18   52 1
    55   20   53 1
    56   20   54 1
    57   20   55 1
    58   24   56 1
    59   24   57 1
    60   24   58 1
    61   26   59 1
    62   27   60 1
    63   28   61 1
    64   29   62 1
    65   30   63 1
    66   31   64 1
    67   31   65 1
    68   31   66 1
    69   33   67 1
    70   34   68 1
    71   35   69 1
    72   37   70 1
    73   39   71 1
    74   39   72 1
    75   39   73 1
@<TRIPOS>PROPERTY_DATA
  Total_Score	| 13.3841
  Crash		| -4.4193
  Polar		| 5.6846
  FragIndex	| 1
  FragRMSD	| 1.016

