@<TRIPOS>MOLECULE
BindingDB_16689
 67 69 0 0 0
SMALL
NO_CHARGES


@<TRIPOS>ATOM
1    C        32.1531   47.0680    5.9046  C     
2    C        31.1901   46.4482    6.7220  C     
3    C        30.6265   45.2238    6.3224  C     
4    C        31.0186   44.6301    5.1071  C     
5    C        31.9767   45.2443    4.2636  C     
6    C        32.5357   46.4722    4.6894  C     
7    C        32.4208   44.6353    2.9664  C     
8    F        30.8249   47.0034    7.8469  F     
9    C        33.7381   43.8316    3.1447  C     
10   N        31.4166   43.7753    2.3956  N     
11   C        30.5297   44.0952    1.4529  C     
12   O        30.5450   45.2189    0.9624  O     
13   C        29.5274   43.1913    1.0871  C     
14   C        27.1807   42.7657    0.3822  C     
15   C        28.2362   43.6503    0.7193  C     
16   C        29.7680   41.7941    1.0558  C     
17   C        28.7453   40.8794    0.7302  C     
18   C        27.4623   41.3772    0.4041  C     
19   N        25.9320   43.2505    0.0032  N     
20   C        25.2394   42.6811   -1.1283  C     
21   C        25.5659   46.1982    0.0726  C     
22   S        25.2225   44.5798    0.7910  S     
23   O        23.6384   44.3682    0.8110  O     
24   O        25.5560   44.5814    2.3426  O     
25   C        29.0253   39.5384    0.6249  C     
26   O        29.6921   39.1739   -0.3335  O     
27   N        28.6606   38.6941    1.5877  N     
28   C        28.8744   37.2718    1.5986  C     
29   C        29.9200   36.8467    2.6819  C     
30   C        31.2379   37.5416    2.5742  C     
31   C        31.4098   38.8482    3.1028  C     
32   C        32.3544   36.9042    1.9835  C     
33   C        33.6019   37.5483    1.9173  C     
34   C        33.7533   38.8485    2.4394  C     
35   C        32.6552   39.4964    3.0321  C     
36   C        27.4984   36.5800    1.8396  C     
37   O        27.4649   35.2681    1.2798  O     
38   H        32.5797   47.9507    6.1945  H     
39   H        29.9312   44.7666    6.9151  H     
40   H        30.5880   43.7441    4.8468  H     
41   H        33.2337   46.9425    4.1102  H     
42   H        32.6424   45.4375    2.2537  H     
43   H        34.5226   44.4648    3.5751  H     
44   H        34.0936   43.4613    2.1751  H     
45   H        33.5702   42.9750    3.8081  H     
46   H        31.2837   42.9255    2.8541  H     
47   H        28.0567   44.6578    0.6970  H     
48   H        30.7093   41.4416    1.2634  H     
49   H        26.7338   40.7074    0.1460  H     
50   H        25.9211   42.6044   -1.9836  H     
51   H        24.3835   43.2775   -1.4475  H     
52   H        24.8691   41.6827   -0.8792  H     
53   H        26.6330   46.4134    0.1443  H     
54   H        25.0073   46.9749    0.6031  H     
55   H        25.2678   46.1992   -0.9798  H     
56   H        28.2085   39.0626    2.3621  H     
57   H        29.2421   36.9265    0.6262  H     
58   H        29.5145   37.0268    3.6806  H     
59   H        30.0708   35.7603    2.6126  H     
60   H        30.6259   39.3248    3.5495  H     
61   H        32.2646   35.9558    1.6065  H     
62   H        34.4038   37.0724    1.4988  H     
63   H        34.6597   39.3172    2.3940  H     
64   H        32.7657   40.4307    3.4211  H     
65   H        27.2829   36.5031    2.9117  H     
66   H        26.6860   37.1579    1.3793  H     
67   H        27.1741   35.4131    0.3530  H     
@<TRIPOS>BOND
     1    1    2 2
     2    1    6 1
     3    2    3 1
     4    2    8 1
     5    3    4 2
     6    4    5 1
     7    5    6 2
     8    5    7 1
     9    7    9 1
    10    7   10 1
    11   10   11 am
    12   11   12 2
    13   11   13 1
    14   13   15 2
    15   13   16 1
    16   14   15 1
    17   14   18 2
    18   14   19 1
    19   16   17 2
    20   17   18 1
    21   17   25 1
    22   19   20 1
    23   19   22 1
    24   21   22 1
    25   22   23 2
    26   22   24 2
    27   25   26 2
    28   25   27 am
    29   27   28 1
    30   28   29 1
    31   28   36 1
    32   29   30 1
    33   30   31 1
    34   30   32 2
    35   31   35 2
    36   32   33 1
    37   33   34 2
    38   34   35 1
    39   36   37 1
    40    1   38 1
    41    3   39 1
    42    4   40 1
    43    6   41 1
    44    7   42 1
    45    9   43 1
    46    9   44 1
    47    9   45 1
    48   10   46 1
    49   15   47 1
    50   16   48 1
    51   18   49 1
    52   20   50 1
    53   20   51 1
    54   20   52 1
    55   21   53 1
    56   21   54 1
    57   21   55 1
    58   27   56 1
    59   28   57 1
    60   29   58 1
    61   29   59 1
    62   31   60 1
    63   32   61 1
    64   33   62 1
    65   34   63 1
    66   35   64 1
    67   36   65 1
    68   36   66 1
    69   37   67 1
@<TRIPOS>PROPERTY_DATA
  Total_Score	| 11.5546
  Crash		| -2.4129
  Polar		| 3.9501
  FragIndex	| 1
  FragRMSD	| 0.464

