@<TRIPOS>MOLECULE
BindingDB_16038
 73 75 0 0 0
SMALL
NO_CHARGES


@<TRIPOS>ATOM
1    C        32.2001   47.0530    5.8463  C     
2    C        31.2904   46.4187    6.7145  C     
3    C        30.6715   45.2232    6.3199  C     
4    C        30.9511   44.6662    5.0552  C     
5    C        32.4818   46.4913    4.5866  C     
6    C        31.8579   45.2916    4.1631  C     
7    C        32.1900   44.7190    2.8209  C     
8    C        33.4685   43.8478    2.8927  C     
9    N        31.1231   43.9149    2.2870  N     
10   C        30.2574   44.2585    1.3318  C     
11   O        30.3571   45.3610    0.8025  O     
12   C        29.1899   43.4302    0.9789  C     
13   C        26.8606   43.1922    0.1584  C     
14   C        27.9526   43.9904    0.5664  C     
15   C        29.3043   42.0147    0.9801  C     
16   C        28.2368   41.1861    0.5707  C     
17   C        27.0263   41.7931    0.1620  C     
18   N        25.6821   43.7566   -0.2775  N     
19   C        25.1035   43.3701   -1.5386  C     
20   C        25.0762   46.6093    0.0708  C     
21   S        24.8938   44.9173    0.6707  S     
22   O        23.3579   44.4846    0.7144  O     
23   O        25.3330   44.8127    2.1917  O     
24   F        31.0247   46.9367    7.8808  F     
25   C        28.3535   39.7084    0.4396  C     
26   O        29.1223   39.0558    1.4702  O     
27   C        30.4433   38.6372    1.0816  C     
28   C        31.1570   37.8447    2.2230  C     
29   C        32.6872   37.6122    1.9321  C     
30   C        33.4307   38.7966    1.4051  C     
31   C        33.3903   39.1024    0.0348  C     
32   C        33.9637   40.3067   -0.4552  C     
33   C        34.6083   41.1823    0.4339  C     
34   C        34.6813   40.8707    1.8016  C     
35   C        34.0873   39.6908    2.2952  C     
36   N        31.0084   38.6114    3.4825  N     
37   C        30.4330   36.4667    2.4274  C     
38   O        31.1822   35.4992    3.1617  O     
39   H        32.6605   47.9190    6.1314  H     
40   H        30.0141   44.7475    6.9463  H     
41   H        30.4772   43.7979    4.8001  H     
42   H        33.1484   46.9674    3.9753  H     
43   H        32.4212   45.5381    2.1322  H     
44   H        34.3203   44.4324    3.2500  H     
45   H        33.7104   43.4743    1.8949  H     
46   H        33.3200   42.9959    3.5615  H     
47   H        30.9582   43.0717    2.7440  H     
48   H        27.8460   45.0073    0.5517  H     
49   H        30.1890   41.5882    1.2513  H     
50   H        26.2537   41.1979   -0.1456  H     
51   H        25.8654   43.3981   -2.3206  H     
52   H        24.2876   44.0289   -1.8496  H     
53   H        24.6963   42.3581   -1.4752  H     
54   H        26.1341   46.8646    0.0004  H     
55   H        24.5926   47.2954    0.7608  H     
56   H        24.6203   46.7020   -0.9126  H     
57   H        27.3627   39.2536    0.5276  H     
58   H        28.7066   39.4986   -0.5770  H     
59   H        30.4019   38.0082    0.1873  H     
60   H        31.0235   39.5358    0.8311  H     
61   H        33.1800   37.2676    2.8526  H     
62   H        32.8006   36.7925    1.2135  H     
63   H        32.9146   38.4937   -0.6283  H     
64   H        33.8870   40.5373   -1.4488  H     
65   H        35.0187   42.0483    0.0798  H     
66   H        35.1412   41.5131    2.4405  H     
67   H        34.1298   39.4902    3.2948  H     
68   H        31.3600   39.5671    3.3627  H     
69   H        31.5346   38.1571    4.2304  H     
70   H        30.0222   38.6451    3.7601  H     
71   H        29.4779   36.6130    2.9465  H     
72   H        30.2150   36.0116    1.4567  H     
73   H        31.4953   35.9317    3.9837  H     
@<TRIPOS>BOND
     1    1    2 2
     2    1    5 1
     3    2    3 1
     4    2   24 1
     5    3    4 2
     6    4    6 1
     7    5    6 2
     8    6    7 1
     9    7    8 1
    10    7    9 1
    11    9   10 am
    12   10   11 2
    13   10   12 1
    14   12   14 2
    15   12   15 1
    16   13   14 1
    17   13   17 2
    18   13   18 1
    19   15   16 2
    20   16   17 1
    21   16   25 1
    22   18   19 1
    23   18   21 1
    24   20   21 1
    25   21   22 2
    26   21   23 2
    27   25   26 1
    28   26   27 1
    29   27   28 1
    30   28   29 1
    31   28   36 1
    32   28   37 1
    33   29   30 1
    34   30   31 2
    35   30   35 1
    36   31   32 1
    37   32   33 2
    38   33   34 1
    39   34   35 2
    40   37   38 1
    41    1   39 1
    42    3   40 1
    43    4   41 1
    44    5   42 1
    45    7   43 1
    46    8   44 1
    47    8   45 1
    48    8   46 1
    49    9   47 1
    50   14   48 1
    51   15   49 1
    52   17   50 1
    53   19   51 1
    54   19   52 1
    55   19   53 1
    56   20   54 1
    57   20   55 1
    58   20   56 1
    59   25   57 1
    60   25   58 1
    61   27   59 1
    62   27   60 1
    63   29   61 1
    64   29   62 1
    65   31   63 1
    66   32   64 1
    67   33   65 1
    68   34   66 1
    69   35   67 1
    70   36   68 1
    71   36   69 1
    72   36   70 1
    73   37   71 1
    74   37   72 1
    75   38   73 1
@<TRIPOS>PROPERTY_DATA
  Total_Score	| 16.3161
  Crash		| -1.9370
  Polar		| 6.9898
  FragIndex	| 1
  FragRMSD	| 0.274

