@<TRIPOS>MOLECULE
BindingDB_16412
 85 87 0 0 0
SMALL
NO_CHARGES


@<TRIPOS>ATOM
1    C        27.3883   42.7229    0.4487  C     
2    C        28.2993   43.7033    0.9082  C     
3    C        29.6252   43.3949    1.3008  C     
4    C        30.0455   42.0489    1.2348  C     
5    C        29.1901   41.0213    0.7646  C     
6    C        27.8767   41.3892    0.3670  C     
7    C        30.4872   44.4005    1.7349  C     
8    O        30.4213   45.5126    1.2193  O     
9    N        31.3186   44.1848    2.7503  N     
10   C        32.2331   45.1210    3.3475  C     
11   C        29.6533   39.7038    0.6672  C     
12   O        29.2221   38.9934   -0.2294  O     
13   N        30.5925   39.2407    1.4915  N     
14   C        31.2705   37.9688    1.4649  C     
15   C        29.3104   36.2066    1.5572  C     
16   C        32.7651   38.1549    1.8797  C     
17   C        30.4765   36.9210    2.3299  C     
18   O        31.3264   35.9075    2.8773  O     
19   N        26.0864   43.0694    0.0780  N     
20   C        25.6706   45.9908   -0.1775  C     
21   S        25.3083   44.4538    0.6916  S     
22   O        23.7255   44.2575    0.6326  O     
23   O        25.5633   44.6254    2.2496  O     
24   C        33.6238   44.4498    3.4390  C     
25   C        33.4260   39.3931    1.3644  C     
26   C        33.5768   39.6373   -0.0242  C     
27   C        34.1676   40.8309   -0.4879  C     
28   C        34.6761   41.7689    0.4287  C     
29   C        34.5765   41.5190    1.8092  C     
30   C        33.9352   40.3561    2.2707  C     
31   C        31.7901   45.6115    4.6924  C     
32   C        32.2193   46.8816    5.1482  C     
33   C        30.9721   44.8375    5.5524  C     
34   C        30.5817   45.3307    6.8132  C     
35   C        31.0092   46.5989    7.2421  C     
36   C        31.8377   47.3732    6.4106  C     
37   F        30.6369   47.0616    8.4049  F     
38   N        27.9535   36.4501    2.1192  N     
39   C        27.0140   35.3204    2.4147  C     
40   C        27.3565   34.7484    3.8204  C     
41   C        25.5823   35.9460    2.4285  C     
42   C        27.0300   34.1688    1.3543  C     
43   C        25.3564   42.2568   -0.8585  C     
44   H        27.9953   44.6738    0.9618  H     
45   H        31.0136   41.8170    1.4732  H     
46   H        27.2455   40.6581    0.0337  H     
47   H        31.2735   43.3056    3.1609  H     
48   H        32.3495   45.9853    2.6834  H     
49   H        30.8610   39.8370    2.2090  H     
50   H        31.3102   37.5989    0.4328  H     
51   H        29.2672   36.5521    0.5248  H     
52   H        29.5287   35.1382    1.4839  H     
53   H        32.8148   38.1373    2.9721  H     
54   H        33.3481   37.3005    1.5257  H     
55   H        30.0588   37.4386    3.2015  H     
56   H        31.6859   36.2522    3.7251  H     
57   H        26.7452   46.1770   -0.1737  H     
58   H        25.1577   46.8176    0.3150  H     
59   H        25.3209   45.9087   -1.2067  H     
60   H        33.5802   43.5606    4.0712  H     
61   H        34.3592   45.1401    3.8556  H     
62   H        33.9583   44.1592    2.4420  H     
63   H        33.2403   38.9578   -0.7089  H     
64   H        34.2376   41.0145   -1.4926  H     
65   H        35.1186   42.6288    0.0958  H     
66   H        34.9711   42.1837    2.4770  H     
67   H        33.8444   40.2168    3.2780  H     
68   H        32.8161   47.4656    4.5583  H     
69   H        30.6527   43.9081    5.2718  H     
70   H        29.9818   44.7595    7.4129  H     
71   H        32.1605   48.2921    6.7207  H     
72   H        28.0614   36.9795    2.9925  H     
73   H        27.4739   37.0701    1.4606  H     
74   H        28.3662   34.3353    3.8147  H     
75   H        26.6616   33.9551    4.1014  H     
76   H        27.3153   35.5341    4.5787  H     
77   H        25.5200   36.7580    3.1574  H     
78   H        24.8280   35.1983    2.6844  H     
79   H        25.3380   36.3560    1.4433  H     
80   H        26.9586   34.5745    0.3454  H     
81   H        26.1878   33.4852    1.5054  H     
82   H        27.9446   33.5762    1.4202  H     
83   H        25.9494   42.1091   -1.7589  H     
84   H        24.4020   42.6905   -1.1800  H     
85   H        25.1435   41.2875   -0.4060  H     
@<TRIPOS>BOND
     1    1    2 1
     2    1    6 2
     3    1   19 1
     4    2    3 2
     5    3    4 1
     6    3    7 1
     7    4    5 2
     8    5    6 1
     9    5   11 1
    10    7    8 2
    11    7    9 am
    12    9   10 1
    13   10   24 1
    14   10   31 1
    15   11   12 2
    16   11   13 am
    17   13   14 1
    18   14   16 1
    19   14   17 1
    20   15   17 1
    21   15   38 1
    22   16   25 1
    23   17   18 1
    24   19   21 1
    25   19   43 1
    26   20   21 1
    27   21   22 2
    28   21   23 2
    29   25   26 2
    30   25   30 1
    31   26   27 1
    32   27   28 2
    33   28   29 1
    34   29   30 2
    35   31   32 1
    36   31   33 2
    37   32   36 2
    38   33   34 1
    39   34   35 2
    40   35   36 1
    41   35   37 1
    42   38   39 1
    43   39   40 1
    44   39   41 1
    45   39   42 1
    46    2   44 1
    47    4   45 1
    48    6   46 1
    49    9   47 1
    50   10   48 1
    51   13   49 1
    52   14   50 1
    53   15   51 1
    54   15   52 1
    55   16   53 1
    56   16   54 1
    57   17   55 1
    58   18   56 1
    59   20   57 1
    60   20   58 1
    61   20   59 1
    62   24   60 1
    63   24   61 1
    64   24   62 1
    65   26   63 1
    66   27   64 1
    67   28   65 1
    68   29   66 1
    69   30   67 1
    70   32   68 1
    71   33   69 1
    72   34   70 1
    73   36   71 1
    74   38   72 1
    75   38   73 1
    76   40   74 1
    77   40   75 1
    78   40   76 1
    79   41   77 1
    80   41   78 1
    81   41   79 1
    82   42   80 1
    83   42   81 1
    84   42   82 1
    85   43   83 1
    86   43   84 1
    87   43   85 1
@<TRIPOS>PROPERTY_DATA
  Total_Score	| 14.8243
  Crash		| -3.8214
  Polar		| 5.1532
  FragIndex	| 1
  FragRMSD	| 0.742

