@<TRIPOS>MOLECULE
BindingDB_16040
 71 73 0 0 0
SMALL
NO_CHARGES


@<TRIPOS>ATOM
1    C        30.6271   45.2676    6.5541  C     
2    C        31.2141   46.4933    6.9188  C     
3    C        32.1262   47.1142    6.0476  C     
4    C        32.4219   46.5276    4.8028  C     
5    C        30.9331   44.6817    5.3094  C     
6    C        31.8338   45.3006    4.4058  C     
7    C        32.2747   44.6410    3.1371  C     
8    C        33.5136   43.7383    3.3981  C     
9    N        31.2250   43.8737    2.5055  N     
10   C        30.3160   44.3089    1.6415  C     
11   O        30.2817   45.5194    1.3983  O     
12   C        29.3226   43.4795    1.1014  C     
13   C        27.0691   43.2017    0.1027  C     
14   C        28.0997   44.0121    0.6271  C     
15   C        29.4954   42.0699    1.0200  C     
16   C        28.5007   41.2298    0.4562  C     
17   C        27.3112   41.8133   -0.0114  C     
18   N        25.8591   43.7320   -0.2738  N     
19   C        25.2306   43.3485   -1.5112  C     
20   C        25.2523   46.5236    0.1376  C     
21   S        25.0473   44.8327    0.7248  S     
22   O        23.5101   44.4156    0.7364  O     
23   O        25.5119   44.7122    2.2426  O     
24   F        30.9452   47.0398    8.0776  F     
25   C        28.6603   39.7553    0.3167  C     
26   O        29.5543   39.1942    1.2818  O     
27   C        29.9739   37.9038    1.3812  C     
28   C        30.8979   37.5472    2.4879  C     
29   C        32.3548   37.3646    1.9455  C     
30   C        33.0876   38.5762    1.4531  C     
31   C        33.9639   39.3191    2.2884  C     
32   C        34.7150   40.3891    1.7661  C     
33   C        34.5711   40.7810    0.4293  C     
34   C        33.7385   40.0411   -0.4274  C     
35   C        33.0013   38.9625    0.0921  C     
36   N        30.8342   38.6093    3.5152  N     
37   C        30.4093   36.2609    3.2332  C     
38   O        29.6711   37.0020    0.4079  O     
39   H        29.9782   44.7987    7.1925  H     
40   H        32.5818   47.9947    6.3169  H     
41   H        33.1030   46.9941    4.1980  H     
42   H        30.4987   43.7829    5.0740  H     
43   H        32.6050   45.4177    2.4358  H     
44   H        34.2118   44.2287    4.0928  H     
45   H        34.0546   43.5997    2.4661  H     
46   H        33.2107   42.7607    3.8160  H     
47   H        31.1894   42.9318    2.7455  H     
48   H        27.9370   45.0218    0.6806  H     
49   H        30.3654   41.6489    1.3543  H     
50   H        26.5779   41.2151   -0.3930  H     
51   H        25.9388   43.4579   -2.3343  H     
52   H        24.3592   43.9663   -1.7560  H     
53   H        24.8949   42.3096   -1.4614  H     
54   H        26.3118   46.7669    0.0969  H     
55   H        24.7533   47.2119    0.8106  H     
56   H        24.8242   46.6157   -0.8578  H     
57   H        27.6908   39.2698    0.4700  H     
58   H        29.0122   39.5333   -0.6964  H     
59   H        32.9667   36.8968    2.7271  H     
60   H        32.3161   36.6316    1.1295  H     
61   H        34.0893   39.0437    3.2611  H     
62   H        35.3947   40.8710    2.3437  H     
63   H        35.1040   41.5644    0.0452  H     
64   H        33.6973   40.2624   -1.4213  H     
65   H        32.3994   38.4412   -0.5500  H     
66   H        31.0862   39.5157    3.1113  H     
67   H        31.4737   38.3889    4.2774  H     
68   H        29.8837   38.6623    3.8880  H     
69   H        29.3987   36.3953    3.6229  H     
70   H        31.0672   36.0465    4.0775  H     
71   H        30.4130   35.3928    2.5706  H     
@<TRIPOS>BOND
     1    1    2 2
     2    1    5 1
     3    2    3 1
     4    2   24 1
     5    3    4 2
     6    4    6 1
     7    5    6 2
     8    6    7 1
     9    7    8 1
    10    7    9 1
    11    9   10 am
    12   10   11 2
    13   10   12 1
    14   12   14 2
    15   12   15 1
    16   13   14 1
    17   13   17 2
    18   13   18 1
    19   15   16 2
    20   16   17 1
    21   16   25 1
    22   18   19 1
    23   18   21 1
    24   20   21 1
    25   21   22 2
    26   21   23 2
    27   25   26 1
    28   26   27 1
    29   27   28 1
    30   27   38 2
    31   28   29 1
    32   28   36 1
    33   28   37 1
    34   29   30 1
    35   30   31 2
    36   30   35 1
    37   31   32 1
    38   32   33 2
    39   33   34 1
    40   34   35 2
    41    1   39 1
    42    3   40 1
    43    4   41 1
    44    5   42 1
    45    7   43 1
    46    8   44 1
    47    8   45 1
    48    8   46 1
    49    9   47 1
    50   14   48 1
    51   15   49 1
    52   17   50 1
    53   19   51 1
    54   19   52 1
    55   19   53 1
    56   20   54 1
    57   20   55 1
    58   20   56 1
    59   25   57 1
    60   25   58 1
    61   29   59 1
    62   29   60 1
    63   31   61 1
    64   32   62 1
    65   33   63 1
    66   34   64 1
    67   35   65 1
    68   36   66 1
    69   36   67 1
    70   36   68 1
    71   37   69 1
    72   37   70 1
    73   37   71 1
@<TRIPOS>PROPERTY_DATA
  Total_Score	| 16.4294
  Crash		| -1.7591
  Polar		| 6.5964
  FragIndex	| 1
  FragRMSD	| 0.248

