@<TRIPOS>MOLECULE
BindingDB_16697
 85 87 0 0 0
SMALL
NO_CHARGES


@<TRIPOS>ATOM
1    C        30.6281   45.2136    6.4153  C     
2    C        31.1759   46.4302    6.8640  C     
3    C        32.0899   47.1249    6.0523  C     
4    C        32.4471   46.6115    4.7927  C     
5    C        31.9082   45.3880    4.3230  C     
6    C        30.9965   44.6971    5.1592  C     
7    C        32.3249   44.8465    2.9916  C     
8    F        30.8390   46.9114    8.0303  F     
9    C        33.6419   44.0387    3.1093  C     
10   N        31.2981   44.0114    2.4350  N     
11   C        30.4578   44.2998    1.4446  C     
12   O        30.4881   45.4150    0.9322  O     
13   C        29.4822   43.3828    1.0468  C     
14   C        27.1688   42.8905    0.3196  C     
15   C        28.1830   43.8071    0.6721  C     
16   C        29.7500   41.9915    1.0356  C     
17   C        28.7558   41.0335    0.7110  C     
18   C        27.4744   41.5131    0.3393  C     
19   N        25.9055   43.3250   -0.0056  N     
20   C        25.1674   42.7078   -1.0752  C     
21   C        25.5409   46.2355    0.0782  C     
22   S        25.2147   44.6286    0.8277  S     
23   O        23.6472   44.3630    0.9407  O     
24   O        25.6787   44.6543    2.3503  O     
25   C        29.0251   39.6603    0.7840  C     
26   O        28.2408   38.8641    0.2776  O     
27   N        30.0842   39.1748    1.4269  N     
28   C        30.4326   37.7852    1.5597  C     
29   C        31.9326   37.6101    1.9575  C     
30   C        32.8664   38.6268    1.3892  C     
31   C        33.8117   39.3035    2.2044  C     
32   C        32.8220   38.9458    0.0100  C     
33   C        33.6654   39.9356   -0.5314  C     
34   C        34.5817   40.6117    0.2939  C     
35   C        34.6580   40.2918    1.6622  C     
36   C        29.4483   37.1304    2.5808  C     
37   N        29.1627   35.6994    2.3072  N     
38   C        28.0826   35.3853    1.3327  C     
39   C        26.7945   35.1832    2.0027  C     
40   O        26.7986   34.8046    3.1669  O     
41   N        25.6513   35.3236    1.3427  N     
42   C        24.3180   35.1438    1.8471  C     
43   C        23.5906   33.9977    1.1150  C     
44   C        28.4875   34.1307    0.5253  C     
45   H        29.9606   44.7039    7.0000  H     
46   H        32.4976   48.0049    6.3763  H     
47   H        33.1136   47.1339    4.2204  H     
48   H        30.5827   43.8136    4.8571  H     
49   H        32.5309   45.6756    2.3034  H     
50   H        34.4383   44.6673    3.5135  H     
51   H        33.9527   43.6861    2.1232  H     
52   H        33.5074   43.1742    3.7636  H     
53   H        31.1674   43.1575    2.8820  H     
54   H        27.9639   44.8056    0.6613  H     
55   H        30.6968   41.6763    1.2541  H     
56   H        26.7309   40.8494    0.1059  H     
57   H        25.7678   42.7000   -1.9874  H     
58   H        24.2373   43.2371   -1.3013  H     
59   H        24.9087   41.6803   -0.8140  H     
60   H        26.6152   46.4137    0.0483  H     
61   H        25.0663   47.0209    0.6638  H     
62   H        25.1456   46.2545   -0.9382  H     
63   H        30.6765   39.8096    1.8604  H     
64   H        30.2953   37.2957    0.5897  H     
65   H        32.0153   37.6098    3.0506  H     
66   H        32.2734   36.6240    1.6229  H     
67   H        33.8817   39.0937    3.2017  H     
68   H        32.1639   38.4718   -0.6085  H     
69   H        33.6111   40.1665   -1.5247  H     
70   H        35.1927   41.3318   -0.0997  H     
71   H        35.3259   40.7811    2.2605  H     
72   H        29.9008   37.1917    3.5729  H     
73   H        28.5150   37.7032    2.6095  H     
74   H        30.0304   35.2639    1.9765  H     
75   H        28.9197   35.2495    3.1924  H     
76   H        28.0011   36.2129    0.6132  H     
77   H        25.7168   35.5639    0.4052  H     
78   H        24.3210   34.9335    2.9221  H     
79   H        23.7616   36.0687    1.6965  H     
80   H        23.5678   34.1870    0.0396  H     
81   H        22.5619   33.9142    1.4729  H     
82   H        24.0980   33.0475    1.2968  H     
83   H        29.4193   34.3186   -0.0152  H     
84   H        27.7148   33.8771   -0.2052  H     
85   H        28.6420   33.2725    1.1871  H     
@<TRIPOS>BOND
     1    1    2 2
     2    1    6 1
     3    2    3 1
     4    2    8 1
     5    3    4 2
     6    4    5 1
     7    5    6 2
     8    5    7 1
     9    7    9 1
    10    7   10 1
    11   10   11 am
    12   11   12 2
    13   11   13 1
    14   13   15 2
    15   13   16 1
    16   14   15 1
    17   14   18 2
    18   14   19 1
    19   16   17 2
    20   17   18 1
    21   17   25 1
    22   19   20 1
    23   19   22 1
    24   21   22 1
    25   22   23 2
    26   22   24 2
    27   25   26 2
    28   25   27 am
    29   27   28 1
    30   28   29 1
    31   28   36 1
    32   29   30 1
    33   30   31 1
    34   30   32 2
    35   31   35 2
    36   32   33 1
    37   33   34 2
    38   34   35 1
    39   36   37 1
    40   37   38 1
    41   38   39 1
    42   38   44 1
    43   39   40 2
    44   39   41 am
    45   41   42 1
    46   42   43 1
    47    1   45 1
    48    3   46 1
    49    4   47 1
    50    6   48 1
    51    7   49 1
    52    9   50 1
    53    9   51 1
    54    9   52 1
    55   10   53 1
    56   15   54 1
    57   16   55 1
    58   18   56 1
    59   20   57 1
    60   20   58 1
    61   20   59 1
    62   21   60 1
    63   21   61 1
    64   21   62 1
    65   27   63 1
    66   28   64 1
    67   29   65 1
    68   29   66 1
    69   31   67 1
    70   32   68 1
    71   33   69 1
    72   34   70 1
    73   35   71 1
    74   36   72 1
    75   36   73 1
    76   37   74 1
    77   37   75 1
    78   38   76 1
    79   41   77 1
    80   42   78 1
    81   42   79 1
    82   43   80 1
    83   43   81 1
    84   43   82 1
    85   44   83 1
    86   44   84 1
    87   44   85 1
@<TRIPOS>PROPERTY_DATA
  Total_Score	| 12.3277
  Crash		| -3.6532
  Polar		| 3.5874
  FragIndex	| 1
  FragRMSD	| 0.462

