@<TRIPOS>MOLECULE
BindingDB_16690
 69 71 0 0 0
SMALL
NO_CHARGES


@<TRIPOS>ATOM
1    C        30.6608   45.1340    6.2008  C     
2    C        31.1855   46.3764    6.6025  C     
3    C        32.1092   47.0418    5.7785  C     
4    C        32.4986   46.4723    4.5551  C     
5    C        31.9826   45.2246    4.1314  C     
6    C        31.0527   44.5656    4.9753  C     
7    C        32.4659   44.6243    2.8446  C     
8    F        30.8202   46.9040    7.7380  F     
9    C        33.8156   43.8892    3.0670  C     
10   N        31.5040   43.7245    2.2617  N     
11   C        30.6522   43.9989    1.2741  C     
12   O        30.7005   45.0947    0.7196  O     
13   C        29.6428   43.1002    0.9258  C     
14   C        27.2731   42.6886    0.3003  C     
15   C        28.3476   43.5666    0.5875  C     
16   C        29.8728   41.7025    0.8938  C     
17   C        28.8295   40.7976    0.6067  C     
18   C        27.5369   41.2964    0.3386  C     
19   N        26.0122   43.1769   -0.0242  N     
20   C        25.2409   42.5757   -1.0858  C     
21   C        25.6993   46.1297    0.0798  C     
22   S        25.3341   44.5117    0.7826  S     
23   O        23.7546   44.3198    0.8416  O     
24   O        25.7407   44.5126    2.3200  O     
25   C        29.0808   39.4454    0.5643  C     
26   O        29.5586   38.9691   -0.4544  O     
27   N        28.8573   38.7045    1.6340  N     
28   C        29.0328   37.2880    1.7807  C     
29   C        30.1119   36.9748    2.8612  C     
30   C        31.4038   37.6776    2.6298  C     
31   C        32.4730   37.0325    1.9672  C     
32   C        31.5863   39.0059    3.0789  C     
33   C        32.8112   39.6715    2.8824  C     
34   C        33.8684   39.0164    2.2267  C     
35   C        33.6972   37.6985    1.7623  C     
36   C        27.6664   36.6080    2.1060  C     
37   N        26.6577   37.5114    2.6951  N     
38   H        29.9942   44.6415    6.7995  H     
39   H        32.5054   47.9376    6.0666  H     
40   H        33.1726   46.9706    3.9696  H     
41   H        30.6563   43.6642    4.7077  H     
42   H        32.6813   45.4311    2.1308  H     
43   H        34.5758   44.5859    3.4411  H     
44   H        34.1729   43.4731    2.1182  H     
45   H        33.7017   43.0738    3.7900  H     
46   H        31.3761   42.8826    2.7326  H     
47   H        28.1709   44.5767    0.5575  H     
48   H        30.8125   41.3440    1.0836  H     
49   H        26.7744   40.6351    0.1541  H     
50   H        25.8769   42.4169   -1.9630  H     
51   H        24.3912   43.1933   -1.4038  H     
52   H        24.8431   41.6154   -0.7531  H     
53   H        26.7700   46.3093    0.1104  H     
54   H        25.1874   46.8944    0.6574  H     
55   H        25.3574   46.1655   -0.9524  H     
56   H        28.5293   39.1612    2.4233  H     
57   H        29.3966   36.8402    0.8443  H     
58   H        29.7288   37.2329    3.8485  H     
59   H        30.2879   35.8945    2.8743  H     
60   H        32.3683   36.0756    1.6240  H     
61   H        30.8257   39.4969    3.5523  H     
62   H        32.9308   40.6334    3.2122  H     
63   H        34.7609   39.4981    2.0874  H     
64   H        34.4619   37.2246    1.2772  H     
65   H        27.2284   36.2077    1.1850  H     
66   H        27.8042   35.7690    2.7945  H     
67   H        27.0751   38.0936    3.4249  H     
68   H        25.8861   36.9645    3.0917  H     
69   H        26.2872   38.1223    1.9637  H     
@<TRIPOS>BOND
     1    1    2 2
     2    1    6 1
     3    2    3 1
     4    2    8 1
     5    3    4 2
     6    4    5 1
     7    5    6 2
     8    5    7 1
     9    7    9 1
    10    7   10 1
    11   10   11 am
    12   11   12 2
    13   11   13 1
    14   13   15 2
    15   13   16 1
    16   14   15 1
    17   14   18 2
    18   14   19 1
    19   16   17 2
    20   17   18 1
    21   17   25 1
    22   19   20 1
    23   19   22 1
    24   21   22 1
    25   22   23 2
    26   22   24 2
    27   25   26 2
    28   25   27 am
    29   27   28 1
    30   28   29 1
    31   28   36 1
    32   29   30 1
    33   30   31 1
    34   30   32 2
    35   31   35 2
    36   32   33 1
    37   33   34 2
    38   34   35 1
    39   36   37 1
    40    1   38 1
    41    3   39 1
    42    4   40 1
    43    6   41 1
    44    7   42 1
    45    9   43 1
    46    9   44 1
    47    9   45 1
    48   10   46 1
    49   15   47 1
    50   16   48 1
    51   18   49 1
    52   20   50 1
    53   20   51 1
    54   20   52 1
    55   21   53 1
    56   21   54 1
    57   21   55 1
    58   27   56 1
    59   28   57 1
    60   29   58 1
    61   29   59 1
    62   31   60 1
    63   32   61 1
    64   33   62 1
    65   34   63 1
    66   35   64 1
    67   36   65 1
    68   36   66 1
    69   37   67 1
    70   37   68 1
    71   37   69 1
@<TRIPOS>PROPERTY_DATA
  Total_Score	| 12.9741
  Crash		| -2.7009
  Polar		| 5.0863
  FragIndex	| 1
  FragRMSD	| 0.540

