@<TRIPOS>MOLECULE
BindingDB_16035
 68 71 0 0 0
SMALL
NO_CHARGES


@<TRIPOS>ATOM
1    C        30.7276   45.2495    6.7585  C     
2    C        31.1506   46.5251    7.1884  C     
3    C        32.0040   47.2851    6.3716  C     
4    C        32.4167   46.7877    5.1208  C     
5    C        31.1687   44.7445    5.5211  C     
6    C        31.9999   45.5102    4.6674  C     
7    C        32.4562   44.9905    3.3430  C     
8    C        33.7498   44.1444    3.4866  C     
9    N        31.4438   44.1694    2.7515  N     
10   C        30.6498   44.4132    1.7121  C     
11   O        30.6822   45.5072    1.1537  O     
12   C        29.7083   43.4511    1.3329  C     
13   C        27.4206   42.8385    0.5786  C     
14   C        28.4184   43.8056    0.8768  C     
15   C        30.0203   42.0736    1.4275  C     
16   C        29.0835   41.0681    1.1082  C     
17   C        27.7980   41.4691    0.6783  C     
18   N        26.1355   43.2212    0.2014  N     
19   C        25.3285   42.3629   -0.6301  C     
20   C        23.7605   45.0943    0.3060  C     
21   S        25.4925   44.7186    0.6960  S     
22   O        25.5657   44.8615    2.2817  O     
23   O        26.3168   45.9223    0.0593  O     
24   C        29.4502   39.7270    1.2172  C     
25   C        29.7675   37.6278    0.6984  C     
26   N        30.2899   39.2936    2.0801  N     
27   O        29.0338   38.8126    0.3570  O     
28   C        32.2091   37.8347    1.6939  C     
29   C        30.6541   37.9727    1.9383  C     
30   C        30.1978   37.1904    3.2056  C     
31   O        30.9027   35.9630    3.3755  O     
32   C        32.9411   39.0358    1.1936  C     
33   C        32.6058   39.6250   -0.0521  C     
34   C        33.2640   40.7860   -0.5006  C     
35   C        34.2976   41.3553    0.2653  C     
36   C        34.6667   40.7667    1.4912  C     
37   C        33.9887   39.6232    1.9522  C     
38   F        30.7478   46.9959    8.3436  F     
39   H        30.1085   44.6883    7.3522  H     
40   H        32.3204   48.2055    6.6849  H     
41   H        33.0269   47.3630    4.5437  H     
42   H        30.8623   43.8108    5.2476  H     
43   H        32.7040   45.8245    2.6747  H     
44   H        34.5417   44.7354    3.9575  H     
45   H        34.1034   43.8238    2.5014  H     
46   H        33.5653   43.2557    4.0980  H     
47   H        31.2882   43.3264    3.2051  H     
48   H        28.2028   44.7998    0.7821  H     
49   H        30.9692   41.7961    1.7074  H     
50   H        27.1166   40.7387    0.4694  H     
51   H        25.9179   41.9872   -1.4701  H     
52   H        24.4563   42.8634   -1.0531  H     
53   H        24.9681   41.5145   -0.0462  H     
54   H        23.5938   45.0386   -0.7722  H     
55   H        23.5133   46.1021    0.6444  H     
56   H        23.1100   44.3850    0.8155  H     
57   H        29.0469   36.8265    0.9062  H     
58   H        30.3555   37.3104   -0.1690  H     
59   H        32.6808   37.5231    2.6306  H     
60   H        32.3982   37.0150    0.9945  H     
61   H        30.3468   37.7969    4.1001  H     
62   H        29.1364   36.9485    3.1303  H     
63   H        31.5955   36.1463    4.0441  H     
64   H        31.8750   39.2182   -0.6319  H     
65   H        32.9982   41.2138   -1.3890  H     
66   H        34.7811   42.1931   -0.0662  H     
67   H        35.4249   41.1759    2.0451  H     
68   H        34.2685   39.2247    2.8532  H     
@<TRIPOS>BOND
     1    1    2 2
     2    1    5 1
     3    2    3 1
     4    2   38 1
     5    3    4 2
     6    4    6 1
     7    5    6 2
     8    6    7 1
     9    7    8 1
    10    7    9 1
    11    9   10 am
    12   10   11 2
    13   10   12 1
    14   12   14 2
    15   12   15 1
    16   13   14 1
    17   13   17 2
    18   13   18 1
    19   15   16 2
    20   16   17 1
    21   16   24 1
    22   18   19 1
    23   18   21 1
    24   20   21 1
    25   21   22 2
    26   21   23 2
    27   24   26 2
    28   24   27 1
    29   25   27 1
    30   25   29 1
    31   26   29 1
    32   28   29 1
    33   28   32 1
    34   29   30 1
    35   30   31 1
    36   32   33 2
    37   32   37 1
    38   33   34 1
    39   34   35 2
    40   35   36 1
    41   36   37 2
    42    1   39 1
    43    3   40 1
    44    4   41 1
    45    5   42 1
    46    7   43 1
    47    8   44 1
    48    8   45 1
    49    8   46 1
    50    9   47 1
    51   14   48 1
    52   15   49 1
    53   17   50 1
    54   19   51 1
    55   19   52 1
    56   19   53 1
    57   20   54 1
    58   20   55 1
    59   20   56 1
    60   25   57 1
    61   25   58 1
    62   28   59 1
    63   28   60 1
    64   30   61 1
    65   30   62 1
    66   31   63 1
    67   33   64 1
    68   34   65 1
    69   35   66 1
    70   36   67 1
    71   37   68 1
@<TRIPOS>PROPERTY_DATA
  Total_Score	| 10.8913
  Crash		| -3.9137
  Polar		| 3.9045
  FragIndex	| 1
  FragRMSD	| 1.062

