@<TRIPOS>MOLECULE
BindingDB_50214559
 46 50 0 0 0
SMALL
NO_CHARGES


@<TRIPOS>ATOM
1    C        11.4230   -4.7682   12.8431  C     
2    C        11.0975   -3.5580   12.1663  C     
3    C        12.0487   -2.9894   11.2742  C     
4    C        12.6280   -5.4379   12.5807  C     
5    C        13.5231   -4.8576   11.6784  C     
6    C        13.2837   -3.6390   11.0395  C     
7    C        14.4718   -3.2526   10.2232  C     
8    C        14.7651   -5.2909   11.3156  C     
9    C        15.3971   -4.3771   10.5094  C     
10   C        16.6784   -4.9139   10.3214  C     
11   N        16.6558   -6.1050   10.9704  N     
12   N        15.5413   -6.3405   11.5780  N     
13   C        17.8617   -4.4177    9.6980  C     
14   C        17.9232   -3.1769    9.0220  C     
15   C        19.1379   -2.7042    8.4803  C     
16   C        20.3451   -3.4448    8.5974  C     
17   C        20.2633   -4.7028    9.2400  C     
18   C        19.0598   -5.1689    9.7864  C     
19   C        21.6038   -2.9692    8.0874  C     
20   C        22.8352   -3.3488    8.6894  C     
21   C        24.0697   -2.8981    8.1934  C     
22   C        24.1057   -2.0467    7.0788  C     
23   C        22.9053   -1.6612    6.4569  C     
24   C        21.6738   -2.1140    6.9604  C     
25   O        25.2932   -1.5734    6.6337  O     
26   O        10.5967   -5.3324   13.7541  O     
27   O         9.9114   -2.8756   12.3424  O     
28   C         8.7861   -3.5631   12.9400  C     
29   H        11.8504   -2.1014   10.8074  H     
30   H        12.8523   -6.3111   13.0573  H     
31   H        14.2213   -3.2178    9.1619  H     
32   H        14.8826   -2.2997   10.5543  H     
33   H        17.4065   -6.7179   11.0096  H     
34   H        17.0894   -2.5942    8.9346  H     
35   H        19.1305   -1.7915    8.0158  H     
36   H        21.0832   -5.3127    9.3100  H     
37   H        19.0861   -6.0804   10.2515  H     
38   H        22.8505   -3.9386    9.5218  H     
39   H        24.9389   -3.1738    8.6576  H     
40   H        22.9284   -1.0427    5.6431  H     
41   H        20.8264   -1.8131    6.4840  H     
42   H        25.1892   -0.6007    6.6815  H     
43   H        11.1664   -5.4701   14.5380  H     
44   H         8.7178   -4.6137   12.6292  H     
45   H         7.8699   -3.0478   12.6389  H     
46   H         8.8465   -3.5260   14.0279  H     
@<TRIPOS>BOND
     1    1    2 2
     2    1    4 1
     3    1   26 1
     4    2    3 1
     5    2   27 1
     6    3    6 2
     7    4    5 2
     8    5    6 1
     9    5    8 1
    10    6    7 1
    11    7    9 1
    12    8    9 1
    13    8   12 2
    14    9   10 2
    15   10   11 1
    16   10   13 1
    17   11   12 1
    18   13   14 2
    19   13   18 1
    20   14   15 1
    21   15   16 2
    22   16   17 1
    23   16   19 1
    24   17   18 2
    25   19   20 2
    26   19   24 1
    27   20   21 1
    28   21   22 2
    29   22   23 1
    30   22   25 1
    31   23   24 2
    32   27   28 1
    33    3   29 1
    34    4   30 1
    35    7   31 1
    36    7   32 1
    37   11   33 1
    38   14   34 1
    39   15   35 1
    40   17   36 1
    41   18   37 1
    42   20   38 1
    43   21   39 1
    44   23   40 1
    45   24   41 1
    46   25   42 1
    47   26   43 1
    48   28   44 1
    49   28   45 1
    50   28   46 1
@<TRIPOS>PROPERTY_DATA
  Total_Score	| 5.1220
  Crash		| -2.0871
  Polar		| 1.2960
  FragIndex	| 1
  FragRMSD	| 1.295

