@<TRIPOS>MOLECULE
BindingDB_50221608
 44 47 0 0 0
SMALL
NO_CHARGES


@<TRIPOS>ATOM
1    C        20.3179   -3.7008    8.5954  C     
2    C        20.4640   -4.7223    9.5734  C     
3    C        19.3561   -5.0953   10.3846  C     
4    C        19.0569   -3.0745    8.4208  C     
5    C        17.9915   -3.4443    9.2760  C     
6    C        18.1234   -4.4533   10.2327  C     
7    C        16.8272   -4.7180   10.9108  C     
8    C        16.6851   -2.9988    9.3007  C     
9    C        15.9809   -3.7156   10.2396  C     
10   C        14.6908   -3.2101   10.2099  C     
11   N        14.7164   -2.2336    9.2669  N     
12   N        15.8868   -2.0925    8.7273  N     
13   C        13.5485   -3.5648   10.9840  C     
14   C        13.5291   -4.7020   11.8277  C     
15   C        12.4007   -5.0300   12.6004  C     
16   C        11.2330   -4.2335   12.5573  C     
17   C        11.2498   -3.0878   11.7320  C     
18   C        12.3752   -2.7700   10.9569  C     
19   O        21.3859   -3.4699    7.7618  O     
20   C        21.6534   -2.1080    7.3581  C     
21   O        21.6445   -5.4058    9.6580  O     
22   C        22.3065   -5.3788   10.9407  C     
23   C        10.0479   -4.5683   13.4015  C     
24   N         8.8358   -4.8978   12.6349  N     
25   H        19.4376   -5.8637   11.0616  H     
26   H        18.9218   -2.3671    7.6851  H     
27   H        16.4983   -5.7302   10.6957  H     
28   H        16.9136   -4.5349   11.9752  H     
29   H        13.9670   -1.6786    9.0229  H     
30   H        14.3291   -5.3240   11.8710  H     
31   H        12.4414   -5.8561   13.1948  H     
32   H        10.4226   -2.4739   11.6895  H     
33   H        12.3309   -1.9396   10.3542  H     
34   H        20.8405   -1.7648    6.7045  H     
35   H        22.6169   -2.0619    6.8222  H     
36   H        21.7231   -1.4545    8.2407  H     
37   H        23.3012   -5.8246   10.8388  H     
38   H        21.7423   -5.9719   11.6685  H     
39   H        22.4265   -4.3537   11.3140  H     
40   H        10.2495   -5.4230   14.0593  H     
41   H         9.8172   -3.7101   14.0365  H     
42   H         8.4088   -4.0331   12.2983  H     
43   H         8.1662   -5.3888   13.2381  H     
44   H         9.0770   -5.4949   11.8444  H     
@<TRIPOS>BOND
     1    1    2 2
     2    1    4 1
     3    1   19 1
     4    2    3 1
     5    2   21 1
     6    3    6 2
     7    4    5 2
     8    5    6 1
     9    5    8 1
    10    6    7 1
    11    7    9 1
    12    8    9 1
    13    8   12 2
    14    9   10 2
    15   10   11 1
    16   10   13 1
    17   11   12 1
    18   13   14 2
    19   13   18 1
    20   14   15 1
    21   15   16 2
    22   16   17 1
    23   16   23 1
    24   17   18 2
    25   19   20 1
    26   21   22 1
    27   23   24 1
    28    3   25 1
    29    4   26 1
    30    7   27 1
    31    7   28 1
    32   11   29 1
    33   14   30 1
    34   15   31 1
    35   17   32 1
    36   18   33 1
    37   20   34 1
    38   20   35 1
    39   20   36 1
    40   22   37 1
    41   22   38 1
    42   22   39 1
    43   23   40 1
    44   23   41 1
    45   24   42 1
    46   24   43 1
    47   24   44 1
@<TRIPOS>PROPERTY_DATA
  Total_Score	| 8.6108
  Crash		| -2.0283
  Polar		| 3.3600
  FragIndex	| 1
  FragRMSD	| 0.637

