@<TRIPOS>MOLECULE
BindingDB_50221575
 36 39 0 0 0
SMALL
NO_CHARGES


@<TRIPOS>ATOM
1    C        11.2951   -3.5831   12.1003  C     
2    C        11.8812   -4.4359   13.0777  C     
3    C        13.2178   -4.8734   12.9530  C     
4    C        12.0659   -3.2008   10.9786  C     
5    C        13.3899   -3.6579   10.8596  C     
6    C        13.9729   -4.4655   11.8433  C     
7    C        15.3972   -4.7399   11.5658  C     
8    C        14.3779   -3.3906    9.9332  C     
9    C        15.5629   -3.9657   10.3254  C     
10   C        16.5121   -3.5643    9.3864  C     
11   N        15.8153   -2.8396    8.4800  N     
12   N        14.5577   -2.7320    8.7869  N     
13   C        17.9202   -3.7723    9.3611  C     
14   O        10.0543   -2.9924   12.2190  O     
15   C         8.9967   -3.7022   12.8952  C     
16   C        18.5746   -4.6395   10.2727  C     
17   C        19.9725   -4.7815   10.2689  C     
18   C        20.7635   -4.0581    9.3512  C     
19   C        20.1245   -3.2007    8.4333  C     
20   C        18.7263   -3.0633    8.4377  C     
21   C        22.0630   -4.1629    9.3672  C     
22   N        23.2077   -4.2532    9.3876  N     
23   O        11.1821   -4.8430   14.1613  O     
24   H        13.6455   -5.4634   13.6751  H     
25   H        11.6818   -2.5650   10.2745  H     
26   H        16.0394   -4.3558   12.3579  H     
27   H        15.5707   -5.8038   11.3985  H     
28   H        16.2048   -2.4508    7.6818  H     
29   H         8.9540   -4.7546   12.5792  H     
30   H         8.0443   -3.2169   12.6653  H     
31   H         9.1335   -3.6572   13.9785  H     
32   H        18.0381   -5.1847   10.9503  H     
33   H        20.4083   -5.4132   10.9484  H     
34   H        20.6704   -2.6636    7.7549  H     
35   H        18.3074   -2.4192    7.7632  H     
36   H        11.4552   -5.7730   14.3140  H     
@<TRIPOS>BOND
     1    1    2 2
     2    1    4 1
     3    1   14 1
     4    2    3 1
     5    2   23 1
     6    3    6 2
     7    4    5 2
     8    5    6 1
     9    5    8 1
    10    6    7 1
    11    7    9 1
    12    8    9 1
    13    8   12 2
    14    9   10 2
    15   10   11 1
    16   10   13 1
    17   11   12 1
    18   13   16 2
    19   13   20 1
    20   14   15 1
    21   16   17 1
    22   17   18 2
    23   18   19 1
    24   18   21 1
    25   19   20 2
    26   21   22 3
    27    3   24 1
    28    4   25 1
    29    7   26 1
    30    7   27 1
    31   11   28 1
    32   15   29 1
    33   15   30 1
    34   15   31 1
    35   16   32 1
    36   17   33 1
    37   19   34 1
    38   20   35 1
    39   23   36 1
@<TRIPOS>PROPERTY_DATA
  Total_Score	| 2.6006
  Crash		| -1.2054
  Polar		| 0.0442
  FragIndex	| 1
  FragRMSD	| 0.742

