@<TRIPOS>MOLECULE
BindingDB_50221594
 50 54 0 0 0
SMALL
NO_CHARGES


@<TRIPOS>ATOM
1    C        21.1433   -3.5812    8.9052  C     
2    C        21.2071   -4.3620   10.0909  C     
3    C        20.0282   -4.7227   10.7852  C     
4    C        19.8773   -3.1605    8.4266  C     
5    C        18.7193   -3.5149    9.1402  C     
6    C        18.7792   -4.3052   10.2913  C     
7    C        17.4321   -4.5370   10.8591  C     
8    C        17.4070   -3.1440    8.9649  C     
9    C        16.6298   -3.7102    9.9442  C     
10   C        15.3499   -3.2060    9.7486  C     
11   N        15.4613   -2.3938    8.6718  N     
12   N        16.6721   -2.3153    8.2179  N     
13   C        14.1772   -3.3726   10.5342  C     
14   C        13.0217   -2.6251   10.2133  C     
15   C        11.8529   -2.7423   10.9719  C     
16   C        11.8089   -3.5868   12.1017  C     
17   C        12.9445   -4.3567   12.4262  C     
18   C        14.1187   -4.2412   11.6560  C     
19   O        22.3434   -3.3080    8.2778  O     
20   C        22.4658   -2.1288    7.4652  C     
21   O        22.4097   -4.7380   10.6306  O     
22   C        22.6172   -6.1629   10.6389  C     
23   C        10.5941   -3.6854   12.8192  C     
24   C         9.9122   -4.9176   12.9203  C     
25   C         8.5888   -4.9660   13.3862  C     
26   C         7.9324   -3.7789   13.7798  C     
27   C         8.6104   -2.5454   13.7083  C     
28   C         9.9423   -2.5124   13.2681  C     
29   N         8.0038   -1.3807   14.0187  N     
30   H        20.0851   -5.2848   11.6357  H     
31   H        19.7898   -2.5976    7.5746  H     
32   H        17.1507   -5.5932   10.7919  H     
33   H        17.3671   -4.1700   11.8895  H     
34   H        14.7376   -1.8432    8.3262  H     
35   H        12.9999   -1.9896    9.4167  H     
36   H        11.0265   -2.2060   10.6879  H     
37   H        12.9297   -4.9886   13.2287  H     
38   H        14.9244   -4.8066   11.9239  H     
39   H        21.9028   -2.2465    6.5357  H     
40   H        23.5225   -1.9979    7.2147  H     
41   H        22.1199   -1.2340    7.9835  H     
42   H        23.5816   -6.3635   11.1106  H     
43   H        22.6403   -6.5537    9.6090  H     
44   H        21.8376   -6.6891   11.2139  H     
45   H        10.3498   -5.7812   12.5926  H     
46   H         8.0959   -5.8590   13.4185  H     
47   H         6.9686   -3.8265   14.1043  H     
48   H        10.4260   -1.6105   13.2151  H     
49   H         8.5031   -0.5491   13.9524  H     
50   H         7.0549   -1.3497   14.1603  H     
@<TRIPOS>BOND
     1    1    2 2
     2    1    4 1
     3    1   19 1
     4    2    3 1
     5    2   21 1
     6    3    6 2
     7    4    5 2
     8    5    6 1
     9    5    8 1
    10    6    7 1
    11    7    9 1
    12    8    9 1
    13    8   12 2
    14    9   10 2
    15   10   11 1
    16   10   13 1
    17   11   12 1
    18   13   14 2
    19   13   18 1
    20   14   15 1
    21   15   16 2
    22   16   17 1
    23   16   23 1
    24   17   18 2
    25   19   20 1
    26   21   22 1
    27   23   24 2
    28   23   28 1
    29   24   25 1
    30   25   26 2
    31   26   27 1
    32   27   28 2
    33   27   29 1
    34    3   30 1
    35    4   31 1
    36    7   32 1
    37    7   33 1
    38   11   34 1
    39   14   35 1
    40   15   36 1
    41   17   37 1
    42   18   38 1
    43   20   39 1
    44   20   40 1
    45   20   41 1
    46   22   42 1
    47   22   43 1
    48   22   44 1
    49   24   45 1
    50   25   46 1
    51   26   47 1
    52   28   48 1
    53   29   49 1
    54   29   50 1
@<TRIPOS>PROPERTY_DATA
  Total_Score	| 6.6872
  Crash		| -3.9348
  Polar		| 2.6516
  FragIndex	| 1
  FragRMSD	| 0.810

