@<TRIPOS>MOLECULE
BindingDB_50221588
 46 50 0 0 0
SMALL
NO_CHARGES


@<TRIPOS>ATOM
1    C        20.6964   -3.6941    8.6001  C     
2    C        20.8264   -4.6644    9.6335  C     
3    C        19.6865   -5.0461   10.3897  C     
4    C        19.4342   -3.1084    8.3355  C     
5    C        18.3469   -3.4690    9.1338  C     
6    C        18.4531   -4.4244   10.1510  C     
7    C        17.1568   -4.6473   10.8295  C     
8    C        17.0384   -3.0399    9.1240  C     
9    C        16.3130   -3.6899   10.0931  C     
10   C        15.0183   -3.1688   10.0148  C     
11   N        15.0753   -2.2710    9.0080  N     
12   N        16.2586   -2.1692    8.4793  N     
13   C        13.8585   -3.4434   10.7871  C     
14   C        12.6693   -2.7188   10.5496  C     
15   C        11.5033   -2.9662   11.2914  C     
16   C        11.4814   -3.9553   12.3025  C     
17   C        12.6725   -4.6791   12.5458  C     
18   C        13.8409   -4.4261   11.8068  C     
19   O        21.7847   -3.4208    7.8010  O     
20   C        21.9490   -2.0780    7.3119  C     
21   O        22.0718   -5.2364    9.7734  O     
22   C        22.5760   -5.5258   11.0981  C     
23   C        10.2963   -4.2310   13.0430  C     
24   C         9.1018   -3.5042   13.0501  C     
25   C         8.2193   -4.1505   13.9020  C     
26   C         8.8872   -5.2535   14.4009  C     
27   N        10.1269   -5.2732   13.8816  N     
28   H        19.7451   -5.7804   11.0955  H     
29   H        19.2983   -2.4394    7.5744  H     
30   H        16.7932   -5.6684   10.6873  H     
31   H        17.2074   -4.3914   11.8939  H     
32   H        14.3242   -1.7358    8.7200  H     
33   H        12.6262   -1.9986    9.8203  H     
34   H        10.6697   -2.4244   11.0631  H     
35   H        12.7105   -5.4026   13.2670  H     
36   H        14.6754   -4.9760   12.0193  H     
37   H        21.1888   -1.8374    6.5678  H     
38   H        22.9171   -2.0082    6.8225  H     
39   H        21.9154   -1.3497    8.1238  H     
40   H        21.9531   -6.2854   11.5898  H     
41   H        22.6138   -4.6115   11.7091  H     
42   H        23.5885   -5.9359   11.0166  H     
43   H         8.8873   -2.6462   12.5441  H     
44   H         7.2676   -3.8675   14.1264  H     
45   H         8.5191   -5.9220   15.0739  H     
46   H        10.8039   -5.9356   14.0780  H     
@<TRIPOS>BOND
     1    1    2 2
     2    1    4 1
     3    1   19 1
     4    2    3 1
     5    2   21 1
     6    3    6 2
     7    4    5 2
     8    5    6 1
     9    5    8 1
    10    6    7 1
    11    7    9 1
    12    8    9 1
    13    8   12 2
    14    9   10 2
    15   10   11 1
    16   10   13 1
    17   11   12 1
    18   13   14 2
    19   13   18 1
    20   14   15 1
    21   15   16 2
    22   16   17 1
    23   16   23 1
    24   17   18 2
    25   19   20 1
    26   21   22 1
    27   23   24 2
    28   23   27 1
    29   24   25 1
    30   25   26 2
    31   26   27 1
    32    3   28 1
    33    4   29 1
    34    7   30 1
    35    7   31 1
    36   11   32 1
    37   14   33 1
    38   15   34 1
    39   17   35 1
    40   18   36 1
    41   20   37 1
    42   20   38 1
    43   20   39 1
    44   22   40 1
    45   22   41 1
    46   22   42 1
    47   24   43 1
    48   25   44 1
    49   26   45 1
    50   27   46 1
@<TRIPOS>PROPERTY_DATA
  Total_Score	| 6.4274
  Crash		| -3.7134
  Polar		| 1.9630
  FragIndex	| 1
  FragRMSD	| 0.647

