@<TRIPOS>MOLECULE
BindingDB_50221585
 43 47 0 0 0
SMALL
NO_CHARGES


@<TRIPOS>ATOM
1    C        20.5563   -3.6771    9.0121  C     
2    C        20.6573   -4.4212   10.2206  C     
3    C        19.4923   -4.7198   10.9745  C     
4    C        19.2843   -3.2605    8.5425  C     
5    C        18.1447   -3.5422    9.3355  C     
6    C        18.2391   -4.2943   10.5068  C     
7    C        16.9075   -4.4888   11.1188  C     
8    C        16.8420   -3.1375    9.1921  C     
9    C        16.0913   -3.6526   10.2225  C     
10   C        14.8089   -3.1297   10.0538  C     
11   N        14.9034   -2.3518    8.9430  N     
12   N        16.0942   -2.3300    8.4336  N     
13   C        13.6416   -3.2847   10.8555  C     
14   C        12.4418   -2.6117   10.4947  C     
15   C        11.2548   -2.7837   11.2321  C     
16   C        11.2178   -3.6182   12.3644  C     
17   C        12.4097   -4.2585   12.7714  C     
18   C        13.5961   -4.1005   12.0195  C     
19   O        21.7304   -3.4755    8.3091  O     
20   C        21.8546   -2.2652    7.5112  C     
21   O        21.8749   -4.8196   10.7172  O     
22   C        22.1292   -6.2283   10.5573  C     
23   C         9.9953   -3.8115   13.0237  C     
24   N         9.5211   -3.1156   14.0607  N     
25   N         8.3586   -3.5538   14.2794  N     
26   N         8.0761   -4.4218   13.4590  N     
27   N         9.0133   -4.6473   12.6569  N     
28   H        19.5606   -5.2312   11.8538  H     
29   H        19.2194   -2.7338    7.6500  H     
30   H        16.5968   -5.5311   11.0680  H     
31   H        16.8777   -4.1261   12.1415  H     
32   H        14.1855   -1.8155    8.5852  H     
33   H        12.4008   -1.9991    9.6769  H     
34   H        10.4037   -2.2950   10.9351  H     
35   H        12.4050   -4.8616   13.5997  H     
36   H        14.4226   -4.6058   12.3276  H     
37   H        21.0856   -2.2467    6.7071  H     
38   H        22.8591   -2.2432    7.0814  H     
39   H        21.7286   -1.3566    8.1272  H     
40   H        21.3813   -6.8363   11.0729  H     
41   H        23.1034   -6.4616   10.9844  H     
42   H        22.1490   -6.4988    9.5008  H     
43   H         7.3012   -4.9421   13.5055  H     
@<TRIPOS>BOND
     1    1    2 2
     2    1    4 1
     3    1   19 1
     4    2    3 1
     5    2   21 1
     6    3    6 2
     7    4    5 2
     8    5    6 1
     9    5    8 1
    10    6    7 1
    11    7    9 1
    12    8    9 1
    13    8   12 2
    14    9   10 2
    15   10   11 1
    16   10   13 1
    17   11   12 1
    18   13   14 2
    19   13   18 1
    20   14   15 1
    21   15   16 2
    22   16   17 1
    23   16   23 1
    24   17   18 2
    25   19   20 1
    26   21   22 1
    27   23   24 1
    28   23   27 2
    29   24   25 2
    30   25   26 1
    31   26   27 1
    32    3   28 1
    33    4   29 1
    34    7   30 1
    35    7   31 1
    36   11   32 1
    37   14   33 1
    38   15   34 1
    39   17   35 1
    40   18   36 1
    41   20   37 1
    42   20   38 1
    43   20   39 1
    44   22   40 1
    45   22   41 1
    46   22   42 1
    47   26   43 1
@<TRIPOS>PROPERTY_DATA
  Total_Score	| 8.8493
  Crash		| -1.6310
  Polar		| 3.6228
  FragIndex	| 1
  FragRMSD	| 0.429

