@<TRIPOS>MOLECULE
BindingDB_50221593
 39 42 0 0 0
SMALL
NO_CHARGES


@<TRIPOS>ATOM
1    C        20.6105   -3.6169    9.0059  C     
2    C        20.7093   -4.4579   10.1521  C     
3    C        19.5527   -4.7843   10.9026  C     
4    C        19.3426   -3.1092    8.6165  C     
5    C        18.2019   -3.4559    9.3667  C     
6    C        18.2941   -4.2955   10.4769  C     
7    C        16.9657   -4.5648   11.0760  C     
8    C        16.8760   -3.0948    9.2401  C     
9    C        16.1274   -3.7131   10.2134  C     
10   C        14.8390   -3.2210   10.0429  C     
11   N        14.9225   -2.3603    9.0014  N     
12   N        16.1199   -2.2576    8.5219  N     
13   C        13.6729   -3.4457   10.8128  C     
14   C        13.6165   -4.4127   11.8417  C     
15   C        12.4605   -4.5953   12.6185  C     
16   C        11.3001   -3.8310   12.3530  C     
17   C        11.3321   -2.8771   11.3167  C     
18   C        12.4966   -2.6852   10.5654  C     
19   O        21.7795   -3.3905    8.3121  O     
20   C        21.9288   -2.2800    7.4142  C     
21   O        21.9680   -4.8634   10.5450  O     
22   C        22.1528   -6.2693   10.8296  C     
23   C        10.2107   -4.0139   13.0416  C     
24   N         9.2401   -4.1801   13.6424  N     
25   H        19.6063   -5.3730   11.7474  H     
26   H        19.2356   -2.4991    7.8039  H     
27   H        16.7215   -5.6295   10.9829  H     
28   H        16.9393   -4.2457   12.1202  H     
29   H        14.1880   -1.8239    8.6859  H     
30   H        14.4222   -5.0049   12.0441  H     
31   H        12.4599   -5.2994   13.3628  H     
32   H        10.4994   -2.3214   11.1017  H     
33   H        12.4763   -1.9709    9.8332  H     
34   H        22.9471   -2.2987    7.0376  H     
35   H        21.7522   -1.3336    7.9310  H     
36   H        21.2492   -2.3731    6.5645  H     
37   H        21.7126   -6.5185   11.8030  H     
38   H        23.2261   -6.4788   10.8742  H     
39   H        21.7115   -6.9115   10.0537  H     
@<TRIPOS>BOND
     1    1    2 2
     2    1    4 1
     3    1   19 1
     4    2    3 1
     5    2   21 1
     6    3    6 2
     7    4    5 2
     8    5    6 1
     9    5    8 1
    10    6    7 1
    11    7    9 1
    12    8    9 1
    13    8   12 2
    14    9   10 2
    15   10   11 1
    16   10   13 1
    17   11   12 1
    18   13   14 2
    19   13   18 1
    20   14   15 1
    21   15   16 2
    22   16   17 1
    23   16   23 1
    24   17   18 2
    25   19   20 1
    26   21   22 1
    27   23   24 3
    28    3   25 1
    29    4   26 1
    30    7   27 1
    31    7   28 1
    32   11   29 1
    33   14   30 1
    34   15   31 1
    35   17   32 1
    36   18   33 1
    37   20   34 1
    38   20   35 1
    39   20   36 1
    40   22   37 1
    41   22   38 1
    42   22   39 1
@<TRIPOS>PROPERTY_DATA
  Total_Score	| 6.8989
  Crash		| -0.7090
  Polar		| 1.7704
  FragIndex	| 1
  FragRMSD	| 0.482

