@<TRIPOS>MOLECULE
BindingDB_50221568
 42 45 0 0 0
SMALL
NO_CHARGES


@<TRIPOS>ATOM
1    C        11.3324   -3.8980   12.8310  C     
2    C        11.1936   -2.8073   11.9276  C     
3    C        12.2076   -2.5578   10.9735  C     
4    C        12.5403   -4.6337   12.8788  C     
5    C        13.5659   -4.2971   11.9778  C     
6    C        13.4059   -3.2925   11.0163  C     
7    C        14.6265   -3.1068   10.1994  C     
8    C        14.8648   -4.7468   11.8728  C     
9    C        15.5196   -4.0663   10.8686  C     
10   C        16.8402   -4.5039   10.9110  C     
11   N        16.8626   -5.4308   11.9034  N     
12   N        15.7108   -5.5828   12.4859  N     
13   C        17.9778   -4.1036   10.1612  C     
14   C        17.8717   -3.3661    8.9588  C     
15   C        19.0117   -3.0188    8.2113  C     
16   C        20.3022   -3.4148    8.6376  C     
17   C        20.4234   -4.1084    9.8643  C     
18   C        19.2806   -4.4559   10.6056  C     
19   O        10.3453   -4.1378   13.7460  O     
20   C         9.1094   -4.6023   13.1850  C     
21   O        10.0698   -2.0174   11.9276  O     
22   C         9.7013   -1.5278   13.2441  C     
23   C        21.4926   -3.1591    7.7896  C     
24   O        22.1119   -1.9275    8.1397  O     
25   H        12.1072   -1.7911   10.3010  H     
26   H        12.6651   -5.3661   13.5868  H     
27   H        14.4500   -3.3837    9.1570  H     
28   H        14.9942   -2.0841   10.2650  H     
29   H        17.6552   -5.9303   12.1625  H     
30   H        16.9538   -3.0937    8.5942  H     
31   H        18.8950   -2.4969    7.3453  H     
32   H        21.3468   -4.3875   10.2111  H     
33   H        19.4160   -4.9603   11.4845  H     
34   H         9.2636   -5.4744   12.5480  H     
35   H         8.6071   -3.8223   12.6048  H     
36   H         8.4653   -4.8799   14.0182  H     
37   H         9.3911   -2.3414   13.9244  H     
38   H         8.8642   -0.8329   13.1292  H     
39   H        10.5364   -0.9812   13.7115  H     
40   H        22.2170   -3.9647    7.9022  H     
41   H        21.2224   -3.1097    6.7305  H     
42   H        21.4271   -1.2455    7.9964  H     
@<TRIPOS>BOND
     1    1    2 2
     2    1    4 1
     3    1   19 1
     4    2    3 1
     5    2   21 1
     6    3    6 2
     7    4    5 2
     8    5    6 1
     9    5    8 1
    10    6    7 1
    11    7    9 1
    12    8    9 1
    13    8   12 2
    14    9   10 2
    15   10   11 1
    16   10   13 1
    17   11   12 1
    18   13   14 2
    19   13   18 1
    20   14   15 1
    21   15   16 2
    22   16   17 1
    23   16   23 1
    24   17   18 2
    25   19   20 1
    26   21   22 1
    27   23   24 1
    28    3   25 1
    29    4   26 1
    30    7   27 1
    31    7   28 1
    32   11   29 1
    33   14   30 1
    34   15   31 1
    35   17   32 1
    36   18   33 1
    37   20   34 1
    38   20   35 1
    39   20   36 1
    40   22   37 1
    41   22   38 1
    42   22   39 1
    43   23   40 1
    44   23   41 1
    45   24   42 1
@<TRIPOS>PROPERTY_DATA
  Total_Score	| 5.0194
  Crash		| -3.0683
  Polar		| 1.9298
  FragIndex	| 1
  FragRMSD	| 1.053

