@<TRIPOS>MOLECULE
BindingDB_50221607
 39 42 0 0 0
SMALL
NO_CHARGES


@<TRIPOS>ATOM
1    C        20.4137   -3.7420    8.5492  C     
2    C        20.5636   -4.6792    9.6082  C     
3    C        19.4816   -4.9739   10.4665  C     
4    C        19.1613   -3.1168    8.3388  C     
5    C        18.0951   -3.4360    9.2045  C     
6    C        18.2368   -4.3622   10.2440  C     
7    C        16.9619   -4.5664   10.9765  C     
8    C        16.7856   -3.0000    9.2344  C     
9    C        16.0936   -3.6340   10.2422  C     
10   C        14.7969   -3.1211   10.2044  C     
11   N        14.8252   -2.2262    9.1861  N     
12   N        15.9870   -2.1333    8.6091  N     
13   C        13.6644   -3.3704   11.0365  C     
14   C        12.4270   -2.7214   10.7754  C     
15   C        11.3059   -2.9183   11.6016  C     
16   C        11.3901   -3.7729   12.7128  C     
17   C        12.5995   -4.4314   12.9894  C     
18   C        13.7199   -4.2367   12.1566  C     
19   O        21.4625   -3.5553    7.6755  O     
20   C        21.7331   -2.1823    7.3258  C     
21   O        21.7327   -5.3737    9.7736  O     
22   C        22.8249   -4.5773   10.2563  C     
23   O        10.3266   -3.9380   13.5361  O     
24   H        19.5921   -5.6547   11.2146  H     
25   H        19.0282   -2.4581    7.5721  H     
26   H        16.6117   -5.5944   10.8809  H     
27   H        17.0575   -4.2820   12.0236  H     
28   H        14.0707   -1.6825    8.9228  H     
29   H        12.3206   -2.0832    9.9828  H     
30   H        10.4309   -2.4272   11.4026  H     
31   H        12.6695   -5.0478   13.8054  H     
32   H        14.5812   -4.7334   12.3913  H     
33   H        22.6431   -2.1582    6.7187  H     
34   H        21.9052   -1.5631    8.2140  H     
35   H        20.9108   -1.7573    6.7371  H     
36   H        23.1371   -3.8536    9.4994  H     
37   H        23.6636   -5.2441   10.4635  H     
38   H        22.5666   -4.0588   11.1836  H     
39   H         9.6259   -4.3556   12.9738  H     
@<TRIPOS>BOND
     1    1    2 2
     2    1    4 1
     3    1   19 1
     4    2    3 1
     5    2   21 1
     6    3    6 2
     7    4    5 2
     8    5    6 1
     9    5    8 1
    10    6    7 1
    11    7    9 1
    12    8    9 1
    13    8   12 2
    14    9   10 2
    15   10   11 1
    16   10   13 1
    17   11   12 1
    18   13   14 2
    19   13   18 1
    20   14   15 1
    21   15   16 2
    22   16   17 1
    23   16   23 1
    24   17   18 2
    25   19   20 1
    26   21   22 1
    27    3   24 1
    28    4   25 1
    29    7   26 1
    30    7   27 1
    31   11   28 1
    32   14   29 1
    33   15   30 1
    34   17   31 1
    35   18   32 1
    36   20   33 1
    37   20   34 1
    38   20   35 1
    39   22   36 1
    40   22   37 1
    41   22   38 1
    42   23   39 1
@<TRIPOS>PROPERTY_DATA
  Total_Score	| 7.6217
  Crash		| -0.9329
  Polar		| 2.6151
  FragIndex	| 1
  FragRMSD	| 0.514

