@<TRIPOS>MOLECULE
BindingDB_91895
 51 55 0 0 0
SMALL
NO_CHARGES


@<TRIPOS>ATOM
1    C        22.0777   -5.8437   10.5355  C     
2    O        21.8552   -4.4560   10.2480  O     
3    C        20.5551   -4.1688    9.9147  C     
4    C        20.2307   -3.6061    8.6508  C     
5    O        21.2088   -3.4914    7.7043  O     
6    C        21.5019   -2.1420    7.3300  C     
7    C        18.8934   -3.2612    8.3351  C     
8    C        17.9029   -3.5245    9.2877  C     
9    C        18.2102   -4.1084   10.5229  C     
10   C        16.9983   -4.3752   11.3211  C     
11   C        15.9893   -3.8064   10.4245  C     
12   C        16.5344   -3.3435    9.2553  C     
13   N        15.5560   -2.8965    8.4602  N     
14   N        14.4252   -3.0975    9.0739  N     
15   C        14.6126   -3.6563   10.2886  C     
16   C        13.5941   -4.1089   11.1767  C     
17   C        12.3490   -4.5507   10.6437  C     
18   C        11.4519   -5.2784   11.4623  C     
19   C        11.7382   -5.4631   12.8373  C     
20   O        11.0406   -6.3344   13.6279  O     
21   C        11.7640   -7.5035   14.0791  C     
22   C        13.2465   -7.4450   14.3897  C     
23   C        14.2122   -7.4383   13.3471  C     
24   C        15.6039   -7.6034   13.6188  C     
25   C        16.0472   -7.7571   14.9479  C     
26   C        15.1085   -7.7515   16.0000  C     
27   C        13.7248   -7.6037   15.7237  C     
28   C        12.8624   -4.8327   13.4068  C     
29   C        13.8113   -4.2287   12.5726  C     
30   C        19.5377   -4.4132   10.8582  C     
31   H        23.1245   -5.9939   10.8018  H     
32   H        21.8912   -6.4882    9.6716  H     
33   H        21.4481   -6.1614   11.3755  H     
34   H        20.6409   -1.6654    6.8760  H     
35   H        22.3000   -2.2099    6.6026  H     
36   H        21.8542   -1.5504    8.1773  H     
37   H        18.6418   -2.8788    7.4194  H     
38   H        17.0211   -3.8751   12.2829  H     
39   H        16.8134   -5.4480   11.4310  H     
40   H        12.1538   -4.4850    9.6343  H     
41   H        10.6234   -5.7302   11.0476  H     
42   H        11.2407   -7.8321   14.9844  H     
43   H        11.5901   -8.3002   13.3457  H     
44   H        13.9145   -7.3470   12.3828  H     
45   H        16.2883   -7.6147   12.8525  H     
46   H        17.0506   -7.8947   15.1400  H     
47   H        15.4326   -7.8776   16.9643  H     
48   H        13.0720   -7.6476   16.5109  H     
49   H        13.0569   -5.0232   14.3974  H     
50   H        14.6807   -3.9189   13.0070  H     
51   H        19.7567   -4.8260   11.7701  H     
@<TRIPOS>BOND
     1    1    2 1
     2    2    3 1
     3    3    4 ar
     4    4    5 1
     5    5    6 1
     6    4    7 ar
     7    7    8 ar
     8    8    9 ar
     9    9   10 1
    10   10   11 1
    11   11   12 ar
    12    8   12 1
    13   12   13 ar
    14   13   14 ar
    15   14   15 ar
    16   11   15 ar
    17   15   16 1
    18   16   17 ar
    19   17   18 ar
    20   18   19 ar
    21   19   20 1
    22   20   21 1
    23   21   22 1
    24   22   23 ar
    25   23   24 ar
    26   24   25 ar
    27   25   26 ar
    28   26   27 ar
    29   22   27 ar
    30   19   28 ar
    31   28   29 ar
    32   16   29 ar
    33    9   30 ar
    34    3   30 ar
    35    1   31 1
    36    1   32 1
    37    1   33 1
    38    6   34 1
    39    6   35 1
    40    6   36 1
    41    7   37 1
    42   10   38 1
    43   10   39 1
    44   17   40 1
    45   18   41 1
    46   21   42 1
    47   21   43 1
    48   23   44 1
    49   24   45 1
    50   25   46 1
    51   26   47 1
    52   27   48 1
    53   28   49 1
    54   29   50 1
    55   30   51 1
@<TRIPOS>PROPERTY_DATA
  Total_Score	| 4.9714
  Crash		| -2.7827
  Polar		| 0.8627
  FragIndex	| 1
  FragRMSD	| 1.032

