@<TRIPOS>MOLECULE
BindingDB_50214577
 49 53 0 0 0
SMALL
NO_CHARGES


@<TRIPOS>ATOM
1    C        11.2304   -4.1666   12.7664  C     
2    C        11.0959   -2.9692   12.0145  C     
3    C        12.1166   -2.5773   11.1118  C     
4    C        12.4373   -4.8949   12.7187  C     
5    C        13.4551   -4.4502   11.8642  C     
6    C        13.3076   -3.3244   11.0441  C     
7    C        14.5376   -3.0657   10.2581  C     
8    C        14.7441   -4.8948   11.7148  C     
9    C        15.4175   -4.1088   10.8158  C     
10   C        16.7295   -4.5745   10.8613  C     
11   N        16.7213   -5.6049   11.7327  N     
12   N        15.5572   -5.7982   12.2671  N     
13   C        17.8952   -4.1105   10.2199  C     
14   C        17.8555   -3.4884    8.9525  C     
15   C        19.0490   -3.1296    8.2885  C     
16   C        20.3257   -3.3424    8.8767  C     
17   C        20.3419   -3.9070   10.1785  C     
18   C        19.1581   -4.2982   10.8295  C     
19   C        21.5407   -2.9718    8.1941  C     
20   C        21.5474   -2.0767    7.0927  C     
21   C        22.7526   -1.6722    6.4837  C     
22   C        23.9819   -2.1406    6.9736  C     
23   C        23.9984   -3.0850    8.0106  C     
24   C        22.7957   -3.4918    8.6132  C     
25   O        25.1446   -1.6853    6.4501  O     
26   O        10.2729   -4.5991   13.6487  O     
27   O         9.9469   -2.2214   12.0749  O     
28   C         9.6383   -1.6750   13.3819  C     
29   C         8.9766   -4.8425   13.0579  C     
30   H        12.0047   -1.7432   10.5292  H     
31   H        12.5826   -5.7203   13.3068  H     
32   H        14.3523   -3.2120    9.1960  H     
33   H        14.9108   -2.0613   10.4437  H     
34   H        17.4995   -6.1233   11.9684  H     
35   H        16.9590   -3.3464    8.4669  H     
36   H        18.9627   -2.7291    7.3479  H     
37   H        21.2268   -4.0309   10.6789  H     
38   H        19.2306   -4.7156   11.7595  H     
39   H        20.6738   -1.6818    6.7402  H     
40   H        22.7271   -1.0188    5.7042  H     
41   H        24.8945   -3.4616    8.3368  H     
42   H        22.8560   -4.1828    9.3732  H     
43   H        25.0789   -0.7046    6.5337  H     
44   H        10.4882   -1.1418   13.8305  H     
45   H         9.3185   -2.4831   14.0446  H     
46   H         8.8125   -0.9640   13.2633  H     
47   H         8.5506   -3.8993   12.7002  H     
48   H         8.3440   -5.2663   13.8470  H     
49   H         9.0345   -5.5750   12.2451  H     
@<TRIPOS>BOND
     1    1    2 2
     2    1    4 1
     3    1   26 1
     4    2    3 1
     5    2   27 1
     6    3    6 2
     7    4    5 2
     8    5    6 1
     9    5    8 1
    10    6    7 1
    11    7    9 1
    12    8    9 1
    13    8   12 2
    14    9   10 2
    15   10   11 1
    16   10   13 1
    17   11   12 1
    18   13   14 2
    19   13   18 1
    20   14   15 1
    21   15   16 2
    22   16   17 1
    23   16   19 1
    24   17   18 2
    25   19   20 2
    26   19   24 1
    27   20   21 1
    28   21   22 2
    29   22   23 1
    30   22   25 1
    31   23   24 2
    32   26   29 1
    33   27   28 1
    34    3   30 1
    35    4   31 1
    36    7   32 1
    37    7   33 1
    38   11   34 1
    39   14   35 1
    40   15   36 1
    41   17   37 1
    42   18   38 1
    43   20   39 1
    44   21   40 1
    45   23   41 1
    46   24   42 1
    47   25   43 1
    48   28   44 1
    49   28   45 1
    50   28   46 1
    51   29   47 1
    52   29   48 1
    53   29   49 1
@<TRIPOS>PROPERTY_DATA
  Total_Score	| 5.2579
  Crash		| -3.2892
  Polar		| 0.9288
  FragIndex	| 1
  FragRMSD	| 1.053

