@<TRIPOS>MOLECULE
BindingDB_50214599
 46 50 0 0 0
SMALL
NO_CHARGES


@<TRIPOS>ATOM
1    C        11.5056   -3.8086   12.7664  C     
2    C        11.3572   -2.9104   11.6800  C     
3    C        12.4201   -2.7019   10.7772  C     
4    C        12.7360   -4.4718   12.9723  C     
5    C        13.7841   -4.2573   12.0595  C     
6    C        13.6355   -3.3900   10.9702  C     
7    C        14.8806   -3.2930   10.1781  C     
8    C        15.0893   -4.7071   12.0491  C     
9    C        15.7601   -4.1573   10.9834  C     
10   C        17.0868   -4.5780   11.1072  C     
11   N        17.1011   -5.3579   12.2128  N     
12   N        15.9336   -5.4379   12.7833  N     
13   C        18.2345   -4.2518   10.3265  C     
14   C        19.5379   -4.5902   10.7630  C     
15   C        20.6840   -4.2548   10.0105  C     
16   C        20.5856   -3.5910    8.7604  C     
17   C        19.2773   -3.2585    8.3277  C     
18   C        18.1364   -3.5669    9.0944  C     
19   C        21.7525   -3.2724    7.9696  C     
20   C        21.7514   -2.2027    7.0363  C     
21   C        22.8853   -1.9011    6.2533  C     
22   C        24.0703   -2.6490    6.3989  C     
23   C        24.1020   -3.7044    7.3232  C     
24   C        22.9587   -4.0185    8.0852  C     
25   O        25.1847   -2.3624    5.6803  O     
26   O        10.4624   -4.0323   13.6201  O     
27   O        10.1989   -2.2347   11.4879  O     
28   C         9.6266   -5.1213   13.2008  C     
29   H        12.3164   -2.0436    9.9993  H     
30   H        12.8636   -5.0869   13.7781  H     
31   H        14.7443   -3.6920    9.1674  H     
32   H        15.2487   -2.2695   10.1413  H     
33   H        17.8941   -5.7847   12.5676  H     
34   H        19.6751   -5.0749   11.6503  H     
35   H        21.5996   -4.4882   10.4015  H     
36   H        19.1312   -2.8046    7.4298  H     
37   H        17.2234   -3.2966    8.7274  H     
38   H        20.9293   -1.6126    6.9217  H     
39   H        22.8568   -1.1306    5.5782  H     
40   H        24.9604   -4.2507    7.4316  H     
41   H        23.0179   -4.8172    8.7210  H     
42   H        24.8578   -2.1334    4.7720  H     
43   H         9.7442   -2.2209   12.3638  H     
44   H         9.1455   -4.9117   12.2392  H     
45   H         8.8383   -5.2729   13.9419  H     
46   H        10.2013   -6.0477   13.1218  H     
@<TRIPOS>BOND
     1    1    2 2
     2    1    4 1
     3    1   26 1
     4    2    3 1
     5    2   27 1
     6    3    6 2
     7    4    5 2
     8    5    6 1
     9    5    8 1
    10    6    7 1
    11    7    9 1
    12    8    9 1
    13    8   12 2
    14    9   10 2
    15   10   11 1
    16   10   13 1
    17   11   12 1
    18   13   14 2
    19   13   18 1
    20   14   15 1
    21   15   16 2
    22   16   17 1
    23   16   19 1
    24   17   18 2
    25   19   20 2
    26   19   24 1
    27   20   21 1
    28   21   22 2
    29   22   23 1
    30   22   25 1
    31   23   24 2
    32   26   28 1
    33    3   29 1
    34    4   30 1
    35    7   31 1
    36    7   32 1
    37   11   33 1
    38   14   34 1
    39   15   35 1
    40   17   36 1
    41   18   37 1
    42   20   38 1
    43   21   39 1
    44   23   40 1
    45   24   41 1
    46   25   42 1
    47   27   43 1
    48   28   44 1
    49   28   45 1
    50   28   46 1
@<TRIPOS>PROPERTY_DATA
  Total_Score	| 4.0845
  Crash		| -2.4733
  Polar		| 1.0244
  FragIndex	| 1
  FragRMSD	| 1.055

