@<TRIPOS>MOLECULE
BindingDB_25901
 40 42 0 0 0
SMALL
NO_CHARGES


@<TRIPOS>ATOM
1    C        -6.4689    4.5889   14.9060  C     
2    C        -6.0023    4.0697   13.6906  C     
3    C        -5.4866    2.7557   13.6241  C     
4    C        -5.4546    1.9724   14.7998  C     
5    C        -5.9673    2.4689   16.0209  C     
6    C        -6.4647    3.7982   16.0709  C     
7    N        -6.2870   -0.1851   17.1750  N     
8    S        -5.9050    1.4290   17.4242  S     
9    O        -4.3718    1.3634   17.8328  O     
10   O        -6.6512    1.8993   18.7493  O     
11   C        -4.8950    2.3435   12.4457  C     
12   O        -5.5992    2.2766   11.4464  O     
13   Cl       -7.0165    4.5459   17.4887  Cl    
14   N        -3.5679    2.3594   12.4467  N     
15   C        -1.4924    3.4683   12.4639  C     
16   C        -0.6821    4.3631   11.4871  C     
17   N        -2.7520    3.1959   11.8040  N     
18   C        -1.6898    4.1873   13.8342  C     
19   C        -1.7211    4.7680   10.5514  C     
20   C        -1.6036    5.7527    9.5512  C     
21   C        -2.6841    5.9624    8.6740  C     
22   C        -3.8264    5.1435    8.7629  C     
23   C        -3.9117    4.1555    9.7643  C     
24   C        -2.8786    3.9936   10.7100  C     
25   H        -6.8056    5.5568   14.9354  H     
26   H        -5.9900    4.6801   12.8691  H     
27   H        -5.0469    1.0317   14.7604  H     
28   H        -5.6010   -0.8661   17.2751  H     
29   H        -7.2202   -0.4412   17.1528  H     
30   H        -3.1953    2.0879   13.3032  H     
31   H        -0.9478    2.5289   12.6272  H     
32   H        -0.2094    5.2271   11.9665  H     
33   H         0.0750    3.7803   10.9463  H     
34   H        -0.7121    4.3809   14.2862  H     
35   H        -2.2705    3.5756   14.5340  H     
36   H        -2.2122    5.1403   13.7016  H     
37   H        -0.7498    6.3084    9.4616  H     
38   H        -2.6233    6.6813    7.9453  H     
39   H        -4.5955    5.2678    8.0972  H     
40   H        -4.7025    3.5362    9.7592  H     
@<TRIPOS>BOND
     1    1    2 2
     2    1    6 1
     3    2    3 1
     4    3    4 2
     5    3   11 1
     6    4    5 1
     7    5    6 2
     8    5    8 1
     9    6   13 1
    10    7    8 am
    11    8    9 2
    12    8   10 2
    13   11   12 2
    14   11   14 am
    15   14   17 1
    16   15   16 1
    17   15   17 1
    18   15   18 1
    19   16   19 1
    20   17   24 1
    21   19   20 2
    22   19   24 1
    23   20   21 1
    24   21   22 2
    25   22   23 1
    26   23   24 2
    27    1   25 1
    28    2   26 1
    29    4   27 1
    30    7   28 1
    31    7   29 1
    32   14   30 1
    33   15   31 1
    34   16   32 1
    35   16   33 1
    36   18   34 1
    37   18   35 1
    38   18   36 1
    39   20   37 1
    40   21   38 1
    41   22   39 1
    42   23   40 1
@<TRIPOS>PROPERTY_DATA
  Total_Score	| 5.1406
  Crash		| -2.7261
  Polar		| 3.8703
  FragIndex	| 1
  FragRMSD	| 1.162

