@<TRIPOS>MOLECULE
BindingDB_25898
 30 31 0 0 0
SMALL
NO_CHARGES


@<TRIPOS>ATOM
1    C        -5.7886    4.2081   14.3361  C     
2    C        -5.0339    1.5118   14.5096  C     
3    C        -5.6527    2.1289   15.6161  C     
4    C        -6.0263    3.4938   15.5293  C     
5    Cl       -6.7287    4.3428   16.8195  Cl    
6    N        -7.0135    1.5997   18.2072  N     
7    S        -5.8959    1.1477   17.0408  S     
8    O        -6.2156   -0.3576   16.6443  O     
9    O        -4.4951    1.0406   17.7817  O     
10   C        -4.7978    2.2198   13.3093  C     
11   C        -5.1785    3.5830   13.2351  C     
12   C        -4.3303    3.7540   10.9379  C     
13   C        -4.1996    1.6482   12.1816  C     
14   N        -4.9508    4.2974   12.1087  N     
15   N        -3.9849    2.3596   11.0793  N     
16   O        -3.8494    0.4748   12.1524  O     
17   C        -3.0721    4.5889   10.5882  C     
18   C        -2.5468    4.3475    9.1581  C     
19   H        -6.0619    5.1913   14.2562  H     
20   H        -4.7423    0.5344   14.5772  H     
21   H        -6.7140    2.1251   18.9617  H     
22   H        -7.9501    1.6111   17.9680  H     
23   H        -5.0565    3.8435   10.1283  H     
24   H        -5.2322    5.2234   12.0962  H     
25   H        -3.5396    1.9232   10.3289  H     
26   H        -3.3065    5.6527   10.6744  H     
27   H        -2.2770    4.3642   11.3031  H     
28   H        -2.3169    3.2939    8.9909  H     
29   H        -1.6384    4.9266    8.9896  H     
30   H        -3.2924    4.6620    8.4260  H     
@<TRIPOS>BOND
     1    1    4 1
     2    1   11 2
     3    2    3 1
     4    2   10 2
     5    3    4 2
     6    3    7 1
     7    4    5 1
     8    6    7 am
     9    7    8 2
    10    7    9 2
    11   10   11 1
    12   10   13 1
    13   11   14 1
    14   12   14 1
    15   12   15 1
    16   12   17 1
    17   13   15 1
    18   13   16 2
    19   17   18 1
    20    1   19 1
    21    2   20 1
    22    6   21 1
    23    6   22 1
    24   12   23 1
    25   14   24 1
    26   15   25 1
    27   17   26 1
    28   17   27 1
    29   18   28 1
    30   18   29 1
    31   18   30 1
@<TRIPOS>PROPERTY_DATA
  Total_Score	| 4.9557
  Crash		| -1.1733
  Polar		| 3.2679
  FragIndex	| 1
  FragRMSD	| 1.083

