@<TRIPOS>MOLECULE
BindingDB_5530
 45 48 0 0 0
SMALL
NO_CHARGES


@<TRIPOS>ATOM
1    C         6.9551   45.3619   50.9865  C     
2    C         7.5438   43.6592   49.3585  C     
3    N         8.8631   44.0168   49.4417  N     
4    N         6.6318   44.3494   50.1234  N     
5    C         8.3213   45.6697   51.0858  C     
6    C         9.2481   44.9964   50.2978  C     
7    C        10.2744   46.4710   51.5113  C     
8    N         8.9657   46.5884   51.8184  N     
9    N        10.4456   45.5117   50.5876  N     
10   O         6.0861   46.0755   51.7917  O     
11   N         7.2447   42.6515   48.4927  N     
12   C         4.7382   46.2481   51.3278  C     
13   C         3.7567   45.1143   51.7796  C     
14   C         1.8679   46.0196   54.0001  C     
15   C         3.3636   45.7161   54.2840  C     
16   C         3.9337   44.6768   53.2722  C     
17   C         2.2612   45.4802   51.4970  C     
18   C         1.6371   46.4756   52.5358  C     
19   C         6.0508   42.0255   48.2413  C     
20   C         3.7675   41.3277   48.8285  C     
21   C         3.6725   40.5770   47.6435  C     
22   C         4.7765   40.5272   46.7624  C     
23   C         5.9501   41.2308   47.0683  C     
24   C         4.9449   42.0222   49.1310  C     
25   H        11.0470   47.0193   51.9121  H     
26   H        11.2840   45.2446   50.1787  H     
27   H         7.9951   42.3158   47.9731  H     
28   H         4.4154   47.1969   51.7561  H     
29   H         4.6773   46.3441   50.2310  H     
30   H         4.0040   44.2569   51.1479  H     
31   H         1.2644   45.1225   54.2025  H     
32   H         1.5232   46.8063   54.6838  H     
33   H         3.9603   46.6431   54.2465  H     
34   H         3.4706   45.3193   55.2961  H     
35   H         3.3955   43.7250   53.4339  H     
36   H         4.9868   44.5101   53.4972  H     
37   H         2.1580   45.9178   50.5073  H     
38   H         1.6756   44.5622   51.4978  H     
39   H         0.5669   46.5555   52.3435  H     
40   H         2.0739   47.4676   52.4066  H     
41   H         2.9813   41.3412   49.4822  H     
42   H         2.8206   40.0512   47.4276  H     
43   H         4.7159   39.9567   45.9094  H     
44   H         6.7407   41.1759   46.4129  H     
45   H         5.0002   42.5044   50.0341  H     
@<TRIPOS>BOND
     1    1    4 1
     2    1    5 2
     3    1   10 1
     4    2    3 1
     5    2    4 2
     6    2   11 1
     7    3    6 2
     8    5    6 1
     9    5    8 1
    10    6    9 1
    11    7    8 2
    12    7    9 1
    13   10   12 1
    14   11   19 1
    15   12   13 1
    16   13   16 1
    17   13   17 1
    18   14   15 1
    19   14   18 1
    20   15   16 1
    21   17   18 1
    22   19   23 1
    23   19   24 2
    24   20   21 2
    25   20   24 1
    26   21   22 1
    27   22   23 2
    28    7   25 1
    29    9   26 1
    30   11   27 1
    31   12   28 1
    32   12   29 1
    33   13   30 1
    34   14   31 1
    35   14   32 1
    36   15   33 1
    37   15   34 1
    38   16   35 1
    39   16   36 1
    40   17   37 1
    41   17   38 1
    42   18   39 1
    43   18   40 1
    44   20   41 1
    45   21   42 1
    46   22   43 1
    47   23   44 1
    48   24   45 1
@<TRIPOS>PROPERTY_DATA
  Total_Score	| 9.2715
  Crash		| -0.5125
  Polar		| 2.7471
  FragIndex	| 1
  FragRMSD	| 0.476

