@<TRIPOS>MOLECULE
BindingDB_5551
 49 52 0 0 0
SMALL
NO_CHARGES


@<TRIPOS>ATOM
1    C         6.9475   45.1305   51.0181  C     
2    C         7.4305   43.5323   49.2977  C     
3    N         8.7515   43.8901   49.3199  N     
4    N         6.5540   44.1635   50.1419  N     
5    C         8.3028   45.4966   51.0314  C     
6    C         9.1821   44.8532   50.1675  C     
7    C        10.2653   46.3278   51.3242  C     
8    N         8.9890   46.4112   51.7457  N     
9    N        10.3925   45.3847   50.3757  N     
10   O         6.1143   45.8348   51.8491  O     
11   N         7.1042   42.5510   48.4217  N     
12   C         5.1063   45.1094   52.5827  C     
13   C         3.7264   45.0793   51.8596  C     
14   C         1.6856   46.7659   53.3462  C     
15   C         2.0989   45.3697   53.8792  C     
16   C         2.6018   44.4345   52.7370  C     
17   C         3.2499   46.4756   51.3375  C     
18   C         2.7884   47.4225   52.4780  C     
19   C         5.9323   41.8928   48.1548  C     
20   C         4.8119   40.2873   46.6522  C     
21   C         3.6094   40.3393   47.4076  C     
22   C         3.6138   41.1740   48.5562  C     
23   C         4.7477   41.9240   48.9256  C     
24   C         5.9456   41.0421   47.0215  C     
25   C         2.4882   39.5884   47.0304  C     
26   O         2.5655   38.6983   46.1882  O     
27   N         1.2856   39.7929   47.5265  N     
28   H        11.0277   46.9030   51.6791  H     
29   H        11.2193   45.1476   49.9187  H     
30   H         7.8451   42.2424   47.8799  H     
31   H         5.4169   44.0827   52.8296  H     
32   H         4.9943   45.6290   53.5388  H     
33   H         3.8460   44.4425   50.9782  H     
34   H         0.7694   46.6697   52.7536  H     
35   H         1.4673   47.4140   54.1969  H     
36   H         2.8766   45.4789   54.6366  H     
37   H         1.2329   44.9028   54.3576  H     
38   H         1.7482   44.1867   52.0970  H     
39   H         2.9621   43.4999   53.1751  H     
40   H         4.0554   46.9557   50.7713  H     
41   H         2.4138   46.3315   50.6400  H     
42   H         2.3961   48.3478   52.0393  H     
43   H         3.6418   47.6874   53.1041  H     
44   H         4.8807   39.7040   45.8138  H     
45   H         2.7833   41.2289   49.1580  H     
46   H         4.6947   42.4701   49.7819  H     
47   H         6.8009   40.9612   46.4502  H     
48   H         0.5436   39.2542   47.2059  H     
49   H         1.1405   40.4874   48.1873  H     
@<TRIPOS>BOND
     1    1    4 1
     2    1    5 2
     3    1   10 1
     4    2    3 1
     5    2    4 2
     6    2   11 1
     7    3    6 2
     8    5    6 1
     9    5    8 1
    10    6    9 1
    11    7    8 2
    12    7    9 1
    13   10   12 1
    14   11   19 1
    15   12   13 1
    16   13   16 1
    17   13   17 1
    18   14   15 1
    19   14   18 1
    20   15   16 1
    21   17   18 1
    22   19   23 1
    23   19   24 2
    24   20   21 2
    25   20   24 1
    26   21   22 1
    27   21   25 1
    28   22   23 2
    29   25   26 2
    30   25   27 am
    31    7   28 1
    32    9   29 1
    33   11   30 1
    34   12   31 1
    35   12   32 1
    36   13   33 1
    37   14   34 1
    38   14   35 1
    39   15   36 1
    40   15   37 1
    41   16   38 1
    42   16   39 1
    43   17   40 1
    44   17   41 1
    45   18   42 1
    46   18   43 1
    47   20   44 1
    48   22   45 1
    49   23   46 1
    50   24   47 1
    51   27   48 1
    52   27   49 1
@<TRIPOS>PROPERTY_DATA
  Total_Score	| 10.5631
  Crash		| -0.7154
  Polar		| 3.9644
  FragIndex	| 1
  FragRMSD	| 0.803

