@<TRIPOS>MOLECULE
BindingDB_5555
 47 50 0 0 0
SMALL
NO_CHARGES


@<TRIPOS>ATOM
1    C         6.9238   45.2098   50.9204  C     
2    C         7.4539   43.5656   49.2618  C     
3    N         8.7742   43.9290   49.3039  N     
4    N         6.5614   44.2163   50.0634  N     
5    C         8.2757   45.5821   50.9519  C     
6    C         9.1794   44.9193   50.1332  C     
7    C        10.2244   46.4207   51.2831  C     
8    N         8.9376   46.5174   51.6587  N     
9    N        10.3843   45.4532   50.3584  N     
10   O         6.0602   45.9162   51.7092  O     
11   N         7.1407   42.5679   48.4033  N     
12   C         5.1502   45.1522   52.5315  C     
13   C         3.7348   44.9965   51.8889  C     
14   C         1.7093   46.7050   53.3654  C     
15   C         2.2015   45.3601   53.9679  C     
16   C         2.6895   44.3703   52.8754  C     
17   C         3.1559   46.3221   51.2881  C     
18   C         2.7344   47.3313   52.3872  C     
19   C         5.9754   41.9115   48.1445  C     
20   C         3.6542   41.1913   48.5609  C     
21   C         3.6588   40.3624   47.4142  C     
22   C         4.8442   40.3187   46.6362  C     
23   C         5.9773   41.0709   47.0029  C     
24   C         4.7928   41.9387   48.9275  C     
25   C         2.5253   39.5892   47.0639  C     
26   O         2.5711   38.6285   46.1154  O     
27   O         1.3324   39.7714   47.6743  O     
28   H        10.9821   46.9988   51.6468  H     
29   H        11.2184   45.1968   49.9271  H     
30   H         7.8889   42.2561   47.8679  H     
31   H         5.5357   44.1540   52.7970  H     
32   H         5.0509   45.7059   53.4659  H     
33   H         3.8398   44.2980   51.0543  H     
34   H         0.7643   46.5409   52.8382  H     
35   H         1.5186   47.4063   54.1809  H     
36   H         3.0072   45.5552   54.6803  H     
37   H         1.3768   44.9024   54.5211  H     
38   H         1.8180   44.0362   52.2991  H     
39   H         3.1138   43.4823   53.3569  H     
40   H         3.8907   46.7851   50.6271  H     
41   H         2.2792   46.0833   50.6769  H     
42   H         2.2911   48.2164   51.9156  H     
43   H         3.6179   47.6600   52.9384  H     
44   H         2.8197   41.2431   49.1560  H     
45   H         4.8989   39.7397   45.7888  H     
46   H         6.8206   40.9968   46.4222  H     
47   H         4.7448   42.4743   49.7898  H     
@<TRIPOS>BOND
     1    1    4 1
     2    1    5 2
     3    1   10 1
     4    2    3 1
     5    2    4 2
     6    2   11 1
     7    3    6 2
     8    5    6 1
     9    5    8 1
    10    6    9 1
    11    7    8 2
    12    7    9 1
    13   10   12 1
    14   11   19 1
    15   12   13 1
    16   13   16 1
    17   13   17 1
    18   14   15 1
    19   14   18 1
    20   15   16 1
    21   17   18 1
    22   19   23 1
    23   19   24 2
    24   20   21 2
    25   20   24 1
    26   21   22 1
    27   21   25 1
    28   22   23 2
    29   25   26 2
    30   25   27 1
    31    7   28 1
    32    9   29 1
    33   11   30 1
    34   12   31 1
    35   12   32 1
    36   13   33 1
    37   14   34 1
    38   14   35 1
    39   15   36 1
    40   15   37 1
    41   16   38 1
    42   16   39 1
    43   17   40 1
    44   17   41 1
    45   18   42 1
    46   18   43 1
    47   20   44 1
    48   22   45 1
    49   23   46 1
    50   24   47 1
@<TRIPOS>PROPERTY_DATA
  Total_Score	| 10.8447
  Crash		| -0.7387
  Polar		| 4.3350
  FragIndex	| 1
  FragRMSD	| 0.783

