@<TRIPOS>MOLECULE
BindingDB_5552
 52 55 0 0 0
SMALL
NO_CHARGES


@<TRIPOS>ATOM
1    C         6.9837   45.1588   50.9247  C     
2    C         7.4505   43.5084   49.2334  C     
3    N         8.7668   43.8798   49.2314  N     
4    N         6.5966   44.1596   50.0827  N     
5    C         8.3366   45.5278   50.9168  C     
6    C         9.2116   44.8556   50.0656  C     
7    C        10.3212   46.2641   51.2880  C     
8    N         9.0305   46.3926   51.6640  N     
9    N        10.4368   45.3251   50.3176  N     
10   O         6.1506   45.6800   51.8669  O     
11   N         7.0964   42.5047   48.4052  N     
12   C         4.9207   46.2918   51.4279  C     
13   C         3.7199   45.6628   52.1920  C     
14   C         1.4062   45.9130   54.1239  C     
15   C         2.6993   45.1688   54.5196  C     
16   C         3.9240   45.7129   53.7472  C     
17   C         2.3816   46.3434   51.7801  C     
18   C         1.1562   45.8284   52.5925  C     
19   C         5.8999   41.8672   48.1948  C     
20   C         3.5445   41.3419   48.6713  C     
21   C         3.4597   40.4615   47.5619  C     
22   C         4.6429   40.2676   46.8079  C     
23   C         5.8292   40.9558   47.1110  C     
24   C         4.7299   42.0285   48.9744  C     
25   C         2.2681   39.8199   47.2328  C     
26   O         2.2690   38.8375   46.4901  O     
27   N         1.0930   40.2771   47.6602  N     
28   C        -0.1963   39.7262   47.3895  C     
29   H        11.0989   46.7824   51.7055  H     
30   H        11.2794   45.0266   49.9286  H     
31   H         7.8325   42.1670   47.8719  H     
32   H         4.9877   47.3513   51.6718  H     
33   H         4.7637   46.1986   50.3480  H     
34   H         3.6587   44.6032   51.9178  H     
35   H         0.5542   45.4770   54.6503  H     
36   H         1.4811   46.9634   54.4157  H     
37   H         2.8690   45.2880   55.5965  H     
38   H         2.5824   44.1013   54.3165  H     
39   H         4.7933   45.1171   54.0311  H     
40   H         4.1076   46.7465   54.0561  H     
41   H         2.4576   47.4284   51.9137  H     
42   H         2.2072   46.1542   50.7139  H     
43   H         0.9523   44.7905   52.3120  H     
44   H         0.2773   46.4235   52.3399  H     
45   H         2.7447   41.4961   49.2948  H     
46   H         4.6405   39.6368   46.0070  H     
47   H         6.6615   40.7838   46.5355  H     
48   H         4.7361   42.6343   49.7972  H     
49   H         1.0956   41.0855   48.1998  H     
50   H        -0.3822   39.6690   46.3139  H     
51   H        -0.9683   40.3704   47.8365  H     
52   H        -0.2902   38.7274   47.8280  H     
@<TRIPOS>BOND
     1    1    4 1
     2    1    5 2
     3    1   10 1
     4    2    3 1
     5    2    4 2
     6    2   11 1
     7    3    6 2
     8    5    6 1
     9    5    8 1
    10    6    9 1
    11    7    8 2
    12    7    9 1
    13   10   12 1
    14   11   19 1
    15   12   13 1
    16   13   16 1
    17   13   17 1
    18   14   15 1
    19   14   18 1
    20   15   16 1
    21   17   18 1
    22   19   23 1
    23   19   24 2
    24   20   21 2
    25   20   24 1
    26   21   22 1
    27   21   25 1
    28   22   23 2
    29   25   26 2
    30   25   27 am
    31   27   28 1
    32    7   29 1
    33    9   30 1
    34   11   31 1
    35   12   32 1
    36   12   33 1
    37   13   34 1
    38   14   35 1
    39   14   36 1
    40   15   37 1
    41   15   38 1
    42   16   39 1
    43   16   40 1
    44   17   41 1
    45   17   42 1
    46   18   43 1
    47   18   44 1
    48   20   45 1
    49   22   46 1
    50   23   47 1
    51   24   48 1
    52   27   49 1
    53   28   50 1
    54   28   51 1
    55   28   52 1
@<TRIPOS>PROPERTY_DATA
  Total_Score	| 10.1745
  Crash		| -1.0820
  Polar		| 3.8073
  FragIndex	| 1
  FragRMSD	| 0.410

