@<TRIPOS>MOLECULE
BindingDB_5558
 49 52 0 0 0
SMALL
NO_CHARGES


@<TRIPOS>ATOM
1    C         7.0336   45.2900   51.0692  C     
2    C         7.6380   43.6461   49.4291  C     
3    N         8.9488   44.0209   49.5034  N     
4    N         6.7125   44.2871   50.2088  N     
5    C         8.3847   45.6578   51.1594  C     
6    C         9.3194   45.0041   50.3606  C     
7    C        10.3246   46.4662   51.6089  C     
8    N         9.0191   46.5592   51.9225  N     
9    N        10.5120   45.5286   50.6622  N     
10   O         6.1294   45.9080   51.8866  O     
11   N         7.3001   42.6469   48.5822  N     
12   C         4.8163   46.1834   51.3669  C     
13   C         3.7515   45.1111   51.7583  C     
14   C         2.0100   46.1365   54.0226  C     
15   C         3.4584   45.6435   54.2775  C     
16   C         3.8742   44.5836   53.2237  C     
17   C         2.3001   45.6312   51.5035  C     
18   C         1.8128   46.6524   52.5723  C     
19   C         6.0679   42.0754   48.4407  C     
20   C         4.2997   41.2942   46.9410  C     
21   C         3.5161   40.8554   48.0353  C     
22   C         4.0374   41.0304   49.3392  C     
23   C         5.2879   41.6461   49.5392  C     
24   C         5.5711   41.8562   47.1404  C     
25   C         2.1573   40.2805   47.8234  C     
26   C         2.1066   39.3563   46.8193  C     
27   N         2.0586   38.5880   45.9660  N     
28   H        11.0664   47.0183   52.0390  H     
29   H        11.3657   45.2734   50.2829  H     
30   H         7.9949   42.3260   47.9856  H     
31   H         4.5297   47.1485   51.7919  H     
32   H         4.8281   46.3061   50.2774  H     
33   H         3.9173   44.2544   51.0957  H     
34   H         1.3145   45.3128   54.2094  H     
35   H         1.7738   46.9382   54.7281  H     
36   H         4.1489   46.4906   54.2486  H     
37   H         3.5220   45.2049   55.2774  H     
38   H         3.2229   43.7098   53.3428  H     
39   H         4.8959   44.2529   53.4238  H     
40   H         2.2407   46.0944   50.5149  H     
41   H         1.6148   44.7801   51.4942  H     
42   H         0.7519   46.8618   52.4096  H     
43   H         2.3483   47.5979   52.4572  H     
44   H         3.9533   41.1920   45.9858  H     
45   H         3.5042   40.7237   50.1568  H     
46   H         5.6249   41.7700   50.4964  H     
47   H         6.1193   42.1456   46.3244  H     
48   H         1.7922   39.7901   48.7270  H     
49   H         1.4597   41.0839   47.5772  H     
@<TRIPOS>BOND
     1    1    4 1
     2    1    5 2
     3    1   10 1
     4    2    3 1
     5    2    4 2
     6    2   11 1
     7    3    6 2
     8    5    6 1
     9    5    8 1
    10    6    9 1
    11    7    8 2
    12    7    9 1
    13   10   12 1
    14   11   19 1
    15   12   13 1
    16   13   16 1
    17   13   17 1
    18   14   15 1
    19   14   18 1
    20   15   16 1
    21   17   18 1
    22   19   23 1
    23   19   24 2
    24   20   21 2
    25   20   24 1
    26   21   22 1
    27   21   25 1
    28   22   23 2
    29   25   26 1
    30   26   27 3
    31    7   28 1
    32    9   29 1
    33   11   30 1
    34   12   31 1
    35   12   32 1
    36   13   33 1
    37   14   34 1
    38   14   35 1
    39   15   36 1
    40   15   37 1
    41   16   38 1
    42   16   39 1
    43   17   40 1
    44   17   41 1
    45   18   42 1
    46   18   43 1
    47   20   44 1
    48   22   45 1
    49   23   46 1
    50   24   47 1
    51   25   48 1
    52   25   49 1
@<TRIPOS>PROPERTY_DATA
  Total_Score	| 9.8349
  Crash		| -0.7294
  Polar		| 3.5754
  FragIndex	| 1
  FragRMSD	| 0.647

