@<TRIPOS>MOLECULE
BindingDB_5542
 49 52 0 0 0
SMALL
NO_CHARGES


@<TRIPOS>ATOM
1    C         7.0199   45.3972   50.9715  C     
2    C         7.6694   43.7310   49.3660  C     
3    N         8.9774   44.1101   49.4723  N     
4    N         6.7259   44.3768   50.1144  N     
5    C         8.3670   45.7717   51.0852  C     
6    C         9.3255   45.1086   50.3225  C     
7    C        10.2966   46.5572   51.6092  C     
8    N         8.9805   46.6652   51.8775  N     
9    N        10.5107   45.6258   50.6662  N     
10   O         6.0919   45.9967   51.7847  O     
11   N         7.3660   42.7205   48.5180  N     
12   C         4.7607   46.2105   51.2704  C     
13   C         3.7487   45.1111   51.7182  C     
14   C         1.9962   46.0932   53.9959  C     
15   C         3.4710   45.6779   54.2370  C     
16   C         3.9356   44.6298   53.1934  C     
17   C         2.2680   45.5502   51.4872  C     
18   C         1.7523   46.5713   52.5402  C     
19   C         6.1631   42.1113   48.3092  C     
20   C         3.8948   41.4619   48.9732  C     
21   C         3.6832   40.8132   47.7367  C     
22   C         4.7528   40.7798   46.8124  C     
23   C         5.9766   41.4074   47.1030  C     
24   C         5.1157   42.1061   49.2585  C     
25   O         2.4297   40.2668   47.5536  O     
26   C         2.1764   39.2972   46.5242  C     
27   H        11.0248   47.1007   52.0785  H     
28   H        11.3735   45.3530   50.3267  H     
29   H         8.0875   42.4177   47.9449  H     
30   H         4.4397   47.1672   51.6770  H     
31   H         4.7452   46.3152   50.1787  H     
32   H         3.9317   44.2426   51.0796  H     
33   H         1.3418   45.2410   54.2133  H     
34   H         1.7345   46.8995   54.6870  H     
35   H         4.1164   46.5576   54.1770  H     
36   H         3.5644   45.2556   55.2424  H     
37   H         3.3515   43.7170   53.3436  H     
38   H         4.9802   44.3665   53.3742  H     
39   H         2.1692   45.9849   50.4886  H     
40   H         1.6262   44.6630   51.5271  H     
41   H         0.6801   46.7199   52.3973  H     
42   H         2.2398   47.5369   52.3893  H     
43   H         3.1505   41.4677   49.6777  H     
44   H         4.6540   40.3082   45.9118  H     
45   H         6.7263   41.3777   46.4077  H     
46   H         5.2497   42.5601   50.1657  H     
47   H         2.3728   39.7109   45.5333  H     
48   H         1.1269   39.0057   46.5684  H     
49   H         2.7852   38.4069   46.6829  H     
@<TRIPOS>BOND
     1    1    4 1
     2    1    5 2
     3    1   10 1
     4    2    3 1
     5    2    4 2
     6    2   11 1
     7    3    6 2
     8    5    6 1
     9    5    8 1
    10    6    9 1
    11    7    8 2
    12    7    9 1
    13   10   12 1
    14   11   19 1
    15   12   13 1
    16   13   16 1
    17   13   17 1
    18   14   15 1
    19   14   18 1
    20   15   16 1
    21   17   18 1
    22   19   23 1
    23   19   24 2
    24   20   21 2
    25   20   24 1
    26   21   22 1
    27   21   25 1
    28   22   23 2
    29   25   26 1
    30    7   27 1
    31    9   28 1
    32   11   29 1
    33   12   30 1
    34   12   31 1
    35   13   32 1
    36   14   33 1
    37   14   34 1
    38   15   35 1
    39   15   36 1
    40   16   37 1
    41   16   38 1
    42   17   39 1
    43   17   40 1
    44   18   41 1
    45   18   42 1
    46   20   43 1
    47   22   44 1
    48   23   45 1
    49   24   46 1
    50   26   47 1
    51   26   48 1
    52   26   49 1
@<TRIPOS>PROPERTY_DATA
  Total_Score	| 9.6753
  Crash		| -0.7265
  Polar		| 2.6854
  FragIndex	| 1
  FragRMSD	| 0.526

