@<TRIPOS>MOLECULE
BindingDB_5536
 49 52 0 0 0
SMALL
NO_CHARGES


@<TRIPOS>ATOM
1    C         7.0011   45.2090   51.0139  C     
2    C         7.6317   43.6284   49.3251  C     
3    N         8.9299   44.0489   49.3902  N     
4    N         6.6980   44.2145   50.1331  N     
5    C         8.3378   45.6256   51.0914  C     
6    C         9.2817   45.0269   50.2627  C     
7    C        10.2529   46.4988   51.5309  C     
8    N         8.9495   46.5364   51.8654  N     
9    N        10.4577   45.5913   50.5586  N     
10   O         6.0958   45.7707   51.8691  O     
11   N         7.3143   42.6463   48.4476  N     
12   C         4.7967   46.1241   51.3573  C     
13   C         3.6924   45.0848   51.7286  C     
14   C         1.9717   46.1513   53.9942  C     
15   C         3.4010   45.6068   54.2496  C     
16   C         3.7885   44.5437   53.1901  C     
17   C         2.2555   45.6407   51.4739  C     
18   C         1.7876   46.6710   52.5429  C     
19   C         6.0983   42.0503   48.2667  C     
20   C         4.4311   41.1442   46.7243  C     
21   C         3.5776   40.8505   47.8012  C     
22   C         3.9859   41.1021   49.1285  C     
23   C         5.2454   41.7135   49.3464  C     
24   C         5.6886   41.7258   46.9561  C     
25   C         3.1291   40.7185   50.2776  C     
26   O         2.9673   41.8019   51.1859  O     
27   H        10.9795   47.0668   51.9700  H     
28   H        11.3139   45.3737   50.1594  H     
29   H         8.0205   42.3636   47.8479  H     
30   H         4.5539   47.0849   51.8118  H     
31   H         4.8091   46.2801   50.2710  H     
32   H         3.8368   44.2301   51.0610  H     
33   H         1.2473   45.3536   54.1884  H     
34   H         1.7688   46.9648   54.6961  H     
35   H         4.1199   46.4308   54.2238  H     
36   H         3.4442   45.1571   55.2462  H     
37   H         3.1077   43.6937   53.2992  H     
38   H         4.7946   44.1700   53.3936  H     
39   H         2.2135   46.1053   50.4848  H     
40   H         1.5482   44.8059   51.4713  H     
41   H         0.7304   46.8988   52.3836  H     
42   H         2.3422   47.6055   52.4227  H     
43   H         4.1242   40.9557   45.7656  H     
44   H         2.6600   40.4457   47.6078  H     
45   H         5.5607   41.8914   50.3036  H     
46   H         6.2906   41.9423   46.1600  H     
47   H         2.1337   40.3962   49.9554  H     
48   H         3.5940   39.8854   50.8080  H     
49   H         2.4975   41.4055   51.9472  H     
@<TRIPOS>BOND
     1    1    4 1
     2    1    5 2
     3    1   10 1
     4    2    3 1
     5    2    4 2
     6    2   11 1
     7    3    6 2
     8    5    6 1
     9    5    8 1
    10    6    9 1
    11    7    8 2
    12    7    9 1
    13   10   12 1
    14   11   19 1
    15   12   13 1
    16   13   16 1
    17   13   17 1
    18   14   15 1
    19   14   18 1
    20   15   16 1
    21   17   18 1
    22   19   23 1
    23   19   24 2
    24   20   21 2
    25   20   24 1
    26   21   22 1
    27   22   23 2
    28   22   25 1
    29   25   26 1
    30    7   27 1
    31    9   28 1
    32   11   29 1
    33   12   30 1
    34   12   31 1
    35   13   32 1
    36   14   33 1
    37   14   34 1
    38   15   35 1
    39   15   36 1
    40   16   37 1
    41   16   38 1
    42   17   39 1
    43   17   40 1
    44   18   41 1
    45   18   42 1
    46   20   43 1
    47   21   44 1
    48   23   45 1
    49   24   46 1
    50   25   47 1
    51   25   48 1
    52   26   49 1
@<TRIPOS>PROPERTY_DATA
  Total_Score	| 10.6209
  Crash		| -0.7011
  Polar		| 3.9924
  FragIndex	| 1
  FragRMSD	| 0.569

