@<TRIPOS>MOLECULE
BindingDB_5541
 46 49 0 0 0
SMALL
NO_CHARGES


@<TRIPOS>ATOM
1    C         6.9801   45.3182   51.0227  C     
2    C         7.5789   43.6924   49.3630  C     
3    N         8.8850   44.0826   49.4329  N     
4    N         6.6600   44.3115   50.1602  N     
5    C         8.3222   45.7219   51.0854  C     
6    C         9.2544   45.0755   50.2819  C     
7    C        10.2636   46.5454   51.5194  C     
8    N         8.9579   46.6306   51.8435  N     
9    N        10.4477   45.6093   50.5696  N     
10   O         6.0781   45.8542   51.8968  O     
11   N         7.2721   42.6870   48.5113  N     
12   C         4.7549   46.1495   51.4086  C     
13   C         3.6880   45.0759   51.8052  C     
14   C         1.8833   46.0915   54.0311  C     
15   C         3.3326   45.6225   54.3173  C     
16   C         3.7875   44.5654   53.2781  C     
17   C         2.2298   45.5645   51.5190  C     
18   C         1.7029   46.5851   52.5707  C     
19   C         6.0788   42.0673   48.2509  C     
20   C         3.7847   41.3374   48.7544  C     
21   C         3.7300   40.6250   47.5438  C     
22   C         4.8445   40.6286   46.6865  C     
23   C         6.0068   41.3333   47.0463  C     
24   C         4.9507   42.0410   49.1138  C     
25   O         2.6152   39.9323   47.2075  O     
26   H        11.0078   47.0985   51.9507  H     
27   H        11.3023   45.3469   50.1882  H     
28   H         8.0202   42.3649   47.9864  H     
29   H         4.4924   47.1044   51.8618  H     
30   H         4.7313   46.2945   50.3217  H     
31   H         3.8723   44.2059   51.1644  H     
32   H         1.1955   45.2627   54.2205  H     
33   H         1.6288   46.9030   54.7182  H     
34   H         4.0110   46.4795   54.2930  H     
35   H         3.3796   45.1864   55.3199  H     
36   H         3.1501   43.6814   53.3911  H     
37   H         4.8087   44.2482   53.5011  H     
38   H         2.1838   46.0196   50.5244  H     
39   H         1.5590   44.6983   51.5073  H     
40   H         0.6428   46.7689   52.3856  H     
41   H         2.2238   47.5392   52.4515  H     
42   H         2.9831   41.3201   49.3905  H     
43   H         4.8171   40.1085   45.8067  H     
44   H         6.8070   41.3119   46.4080  H     
45   H         4.9752   42.5049   50.0208  H     
46   H         2.7996   39.0091   47.4811  H     
@<TRIPOS>BOND
     1    1    4 1
     2    1    5 2
     3    1   10 1
     4    2    3 1
     5    2    4 2
     6    2   11 1
     7    3    6 2
     8    5    6 1
     9    5    8 1
    10    6    9 1
    11    7    8 2
    12    7    9 1
    13   10   12 1
    14   11   19 1
    15   12   13 1
    16   13   16 1
    17   13   17 1
    18   14   15 1
    19   14   18 1
    20   15   16 1
    21   17   18 1
    22   19   23 1
    23   19   24 2
    24   20   21 2
    25   20   24 1
    26   21   22 1
    27   21   25 1
    28   22   23 2
    29    7   26 1
    30    9   27 1
    31   11   28 1
    32   12   29 1
    33   12   30 1
    34   13   31 1
    35   14   32 1
    36   14   33 1
    37   15   34 1
    38   15   35 1
    39   16   36 1
    40   16   37 1
    41   17   38 1
    42   17   39 1
    43   18   40 1
    44   18   41 1
    45   20   42 1
    46   22   43 1
    47   23   44 1
    48   24   45 1
    49   25   46 1
@<TRIPOS>PROPERTY_DATA
  Total_Score	| 8.9895
  Crash		| -0.6124
  Polar		| 2.7155
  FragIndex	| 1
  FragRMSD	| 0.480

