@<TRIPOS>MOLECULE
BindingDB_5553
 55 58 0 0 0
SMALL
NO_CHARGES


@<TRIPOS>ATOM
1    C         6.9627   45.2225   51.0071  C     
2    C         7.4991   43.5773   49.3564  C     
3    N         8.8183   43.9329   49.4042  N     
4    N         6.5908   44.2123   50.1596  N     
5    C         8.3130   45.5949   51.0509  C     
6    C         9.2272   44.9200   50.2453  C     
7    C        10.2648   46.4232   51.4122  C     
8    N         8.9711   46.5202   51.7670  N     
9    N        10.4263   45.4562   50.4888  N     
10   O         6.1232   45.8260   51.9002  O     
11   N         7.1734   42.5894   48.4876  N     
12   C         4.8330   46.2545   51.4400  C     
13   C         3.7190   45.1958   51.7188  C     
14   C         1.8953   46.0878   53.9885  C     
15   C         3.3257   45.5574   54.2598  C     
16   C         3.7761   44.5695   53.1475  C     
17   C         2.2795   45.7536   51.4518  C     
18   C         1.7533   46.7008   52.5690  C     
19   C         5.9755   41.9774   48.2247  C     
20   C         4.7142   40.5500   46.6573  C     
21   C         3.5689   40.5982   47.4870  C     
22   C         3.6695   41.2783   48.7252  C     
23   C         4.8493   41.9669   49.0829  C     
24   C         5.8916   41.2287   47.0230  C     
25   C         2.3699   39.9942   47.0921  C     
26   O         2.4728   38.8372   46.6813  O     
27   N         1.1661   40.6152   47.0795  N     
28   C        -0.0263   39.8481   46.7796  C     
29   C         1.0404   42.0517   47.2635  C     
30   H        11.0107   47.0041   51.7913  H     
31   H        11.2659   45.1885   50.0892  H     
32   H         7.9187   42.2656   47.9480  H     
33   H         4.6051   47.1741   51.9937  H     
34   H         4.8248   46.5245   50.3723  H     
35   H         3.8822   44.3809   51.0063  H     
36   H         1.1784   45.2666   54.1063  H     
37   H         1.6569   46.8494   54.7342  H     
38   H         4.0277   46.3950   54.3190  H     
39   H         3.3418   45.0398   55.2253  H     
40   H         3.1179   43.6931   53.1792  H     
41   H         4.7870   44.2142   53.3682  H     
42   H         2.2602   46.2854   50.4951  H     
43   H         1.5875   44.9091   51.3684  H     
44   H         0.6947   46.9082   52.3867  H     
45   H         2.2868   47.6552   52.5328  H     
46   H         4.6856   40.0442   45.7595  H     
47   H         2.8789   41.2747   49.3782  H     
48   H         4.8891   42.4396   49.9925  H     
49   H         6.7023   41.1772   46.3920  H     
50   H         0.0554   39.3910   45.7869  H     
51   H        -0.9410   40.4422   46.7902  H     
52   H        -0.1493   39.0573   47.5281  H     
53   H         1.2709   42.3296   48.2996  H     
54   H         0.0381   42.4343   47.0266  H     
55   H         1.7395   42.5691   46.5981  H     
@<TRIPOS>BOND
     1    1    4 1
     2    1    5 2
     3    1   10 1
     4    2    3 1
     5    2    4 2
     6    2   11 1
     7    3    6 2
     8    5    6 1
     9    5    8 1
    10    6    9 1
    11    7    8 2
    12    7    9 1
    13   10   12 1
    14   11   19 1
    15   12   13 1
    16   13   16 1
    17   13   17 1
    18   14   15 1
    19   14   18 1
    20   15   16 1
    21   17   18 1
    22   19   23 1
    23   19   24 2
    24   20   21 2
    25   20   24 1
    26   21   22 1
    27   21   25 1
    28   22   23 2
    29   25   26 2
    30   25   27 am
    31   27   28 1
    32   27   29 1
    33    7   30 1
    34    9   31 1
    35   11   32 1
    36   12   33 1
    37   12   34 1
    38   13   35 1
    39   14   36 1
    40   14   37 1
    41   15   38 1
    42   15   39 1
    43   16   40 1
    44   16   41 1
    45   17   42 1
    46   17   43 1
    47   18   44 1
    48   18   45 1
    49   20   46 1
    50   22   47 1
    51   23   48 1
    52   24   49 1
    53   28   50 1
    54   28   51 1
    55   28   52 1
    56   29   53 1
    57   29   54 1
    58   29   55 1
@<TRIPOS>PROPERTY_DATA
  Total_Score	| 10.3755
  Crash		| -0.9190
  Polar		| 3.5359
  FragIndex	| 1
  FragRMSD	| 0.513

