@<TRIPOS>MOLECULE
BindingDB_5557
 52 55 0 0 0
SMALL
NO_CHARGES


@<TRIPOS>ATOM
1    C         6.9816   45.2800   50.9267  C     
2    C         7.5405   43.6258   49.2784  C     
3    N         8.8537   43.9770   49.3404  N     
4    N         6.6377   44.2770   50.0713  N     
5    C         8.3383   45.6322   50.9909  C     
6    C         9.2522   44.9592   50.1858  C     
7    C        10.3061   46.3896   51.4226  C     
8    N         9.0055   46.5134   51.7521  N     
9    N        10.4602   45.4517   50.4737  N     
10   O         6.0979   45.9024   51.7644  O     
11   N         7.1897   42.6478   48.4148  N     
12   C         4.7677   46.1875   51.2881  C     
13   C         3.7298   45.0959   51.7012  C     
14   C         1.9622   46.1163   53.9541  C     
15   C         3.4241   45.6679   54.2077  C     
16   C         3.8791   44.6038   53.1756  C     
17   C         2.2583   45.5552   51.4521  C     
18   C         1.7352   46.5849   52.4931  C     
19   C         5.9608   42.0841   48.2447  C     
20   C         3.8001   41.3076   49.0883  C     
21   C         3.4464   40.8213   47.8067  C     
22   C         4.3733   40.9741   46.7508  C     
23   C         5.6309   41.5616   46.9786  C     
24   C         5.0410   41.9350   49.3070  C     
25   C         2.0730   40.2933   47.5683  C     
26   C         1.9614   39.3302   46.4873  C     
27   O         2.7199   38.3753   46.4266  O     
28   N         1.0520   39.4405   45.5406  N     
29   H        11.0622   46.9229   51.8473  H     
30   H        11.3042   45.1680   50.0864  H     
31   H         7.8849   42.3312   47.8182  H     
32   H         4.4880   47.1379   51.7432  H     
33   H         4.7477   46.3412   50.2037  H     
34   H         3.9154   44.2301   51.0556  H     
35   H         1.2883   45.2846   54.1727  H     
36   H         1.7156   46.9330   54.6344  H     
37   H         4.0888   46.5344   54.1571  H     
38   H         3.5027   45.2513   55.2147  H     
39   H         3.2678   43.7054   53.3128  H     
40   H         4.9170   44.3207   53.3721  H     
41   H         2.1710   45.9783   50.4493  H     
42   H         1.6089   44.6763   51.4886  H     
43   H         0.6645   46.7372   52.3350  H     
44   H         2.2271   47.5488   52.3378  H     
45   H         3.1500   41.2240   49.8749  H     
46   H         4.1392   40.6610   45.8068  H     
47   H         6.2926   41.6426   46.2005  H     
48   H         5.2767   42.2613   50.2421  H     
49   H         1.6824   39.8198   48.4766  H     
50   H         1.4363   41.1545   47.3530  H     
51   H         0.9967   38.7732   44.8366  H     
52   H         0.4445   40.1990   45.5314  H     
@<TRIPOS>BOND
     1    1    4 1
     2    1    5 2
     3    1   10 1
     4    2    3 1
     5    2    4 2
     6    2   11 1
     7    3    6 2
     8    5    6 1
     9    5    8 1
    10    6    9 1
    11    7    8 2
    12    7    9 1
    13   10   12 1
    14   11   19 1
    15   12   13 1
    16   13   16 1
    17   13   17 1
    18   14   15 1
    19   14   18 1
    20   15   16 1
    21   17   18 1
    22   19   23 1
    23   19   24 2
    24   20   21 2
    25   20   24 1
    26   21   22 1
    27   21   25 1
    28   22   23 2
    29   25   26 1
    30   26   27 2
    31   26   28 am
    32    7   29 1
    33    9   30 1
    34   11   31 1
    35   12   32 1
    36   12   33 1
    37   13   34 1
    38   14   35 1
    39   14   36 1
    40   15   37 1
    41   15   38 1
    42   16   39 1
    43   16   40 1
    44   17   41 1
    45   17   42 1
    46   18   43 1
    47   18   44 1
    48   20   45 1
    49   22   46 1
    50   23   47 1
    51   24   48 1
    52   25   49 1
    53   25   50 1
    54   28   51 1
    55   28   52 1
@<TRIPOS>PROPERTY_DATA
  Total_Score	| 10.2389
  Crash		| -0.7836
  Polar		| 3.9760
  FragIndex	| 1
  FragRMSD	| 0.575

