@<TRIPOS>MOLECULE
BindingDB_50380153
 37 38 0 0 0
SMALL
NO_CHARGES


@<TRIPOS>ATOM
1    S        -5.9379    1.0714   16.6979  S     
2    O        -5.0458    0.8342   17.9900  O     
3    O        -5.7567   -0.2640   15.8602  O     
4    C        -5.3584    4.8371   15.2674  C     
5    C        -5.9145    3.7540   15.9708  C     
6    C        -5.3448    2.4670   15.8375  C     
7    C        -4.2217    2.2932   14.9955  C     
8    C        -3.6453    3.3710   14.2803  C     
9    C        -4.2225    4.6566   14.4631  C     
10   C        -2.5487    3.1705   13.4212  C     
11   C        -1.4702    4.1336   13.2551  C     
12   O        -2.3764    2.0612   12.9279  O     
13   S        -1.8730    5.4061   12.0242  S     
14   C        -0.9066    6.6783   12.6985  C     
15   N        -1.2308    7.2458   13.8889  N     
16   C        -0.4806    8.2265   14.4587  C     
17   C         0.6721    8.6782   13.7802  C     
18   C         0.9962    8.0920   12.5390  C     
19   N         0.1964    7.1120   12.0428  N     
20   Cl       -7.2013    4.1034   17.0231  Cl    
21   N        -7.5322    1.0366   17.2218  N     
22   C         2.1969    8.5033   11.7898  C     
23   C        -0.8870    8.7520   15.7755  C     
24   H        -5.7579    5.7753   15.3604  H     
25   H        -3.7978    1.3646   14.9202  H     
26   H        -3.8309    5.4855   14.0075  H     
27   H        -1.2517    4.5825   14.2300  H     
28   H        -0.5524    3.6436   12.9180  H     
29   H         1.2617    9.4087   14.1777  H     
30   H        -8.2493    0.9320   16.5785  H     
31   H        -7.7331    1.2601   18.1451  H     
32   H         2.1588    9.5740   11.5789  H     
33   H         2.2734    7.9670   10.8402  H     
34   H         3.0888    8.2877   12.3817  H     
35   H        -1.8696    9.2203   15.7001  H     
36   H        -0.1792    9.4908   16.1568  H     
37   H        -0.9418    7.9312   16.4916  H     
@<TRIPOS>BOND
     1    1    2 2
     2    1    3 2
     3    1    6 1
     4    1   21 am
     5    4    5 2
     6    4    9 1
     7    5    6 1
     8    5   20 1
     9    6    7 2
    10    7    8 1
    11    8    9 2
    12    8   10 1
    13   10   11 1
    14   10   12 2
    15   11   13 1
    16   13   14 1
    17   14   15 2
    18   14   19 1
    19   15   16 1
    20   16   17 2
    21   16   23 1
    22   17   18 1
    23   18   19 2
    24   18   22 1
    25    4   24 1
    26    7   25 1
    27    9   26 1
    28   11   27 1
    29   11   28 1
    30   17   29 1
    31   21   30 1
    32   21   31 1
    33   22   32 1
    34   22   33 1
    35   22   34 1
    36   23   35 1
    37   23   36 1
    38   23   37 1
@<TRIPOS>PROPERTY_DATA
  Total_Score	| 5.0722
  Crash		| -1.8364
  Polar		| 2.6270
  FragIndex	| 1
  FragRMSD	| 1.368

