@<TRIPOS>MOLECULE
BindingDB_50380151
 40 41 0 0 0
SMALL
NO_CHARGES


@<TRIPOS>ATOM
1    S        -4.3181    0.8722   15.0229  S     
2    O        -5.3898   -0.2874   15.2368  O     
3    O        -3.2381    0.6514   16.1716  O     
4    C        -6.4121    4.1760   16.1285  C     
5    C        -6.0547    2.8267   15.9673  C     
6    C        -4.8860    2.5081   15.2313  C     
7    C        -4.0867    3.5527   14.7025  C     
8    C        -4.4181    4.9179   14.8757  C     
9    C        -5.6084    5.1968   15.5939  C     
10   C        -3.6118    5.9583   14.3780  C     
11   C        -2.9711    6.0100   13.0726  C     
12   O        -3.4317    6.9469   15.0772  O     
13   S        -1.1681    5.9415   13.1568  S     
14   C        -0.7959    7.4659   13.9153  C     
15   N         0.1360    8.2817   13.3608  N     
16   C         0.5339    9.4265   13.9697  C     
17   C        -0.0002    9.7993   15.2260  C     
18   C        -0.9486    8.9196   15.7863  C     
19   N        -1.2980    7.7799   15.1349  N     
20   Cl       -7.0522    1.6747   16.7259  Cl    
21   N        -3.5012    0.6201   13.5720  N     
22   C         0.4622   11.0195   15.9450  C     
23   C         0.3136   12.3578   15.1579  C     
24   C        -0.9836   13.1507   15.4594  C     
25   H        -7.2648    4.4287   16.6445  H     
26   H        -3.2163    3.3102   14.2317  H     
27   H        -5.9177    6.1610   15.7452  H     
28   H        -3.2987    5.1718   12.4604  H     
29   H        -3.2678    6.9103   12.5314  H     
30   H         1.2492    9.9973   13.5171  H     
31   H        -1.3547    9.1079   16.7056  H     
32   H        -2.5618    0.8439   13.5237  H     
33   H        -4.0072    0.5005   12.7477  H     
34   H        -0.0736   11.1339   16.8937  H     
35   H         1.5222   10.8863   16.1863  H     
36   H         1.1639   12.9974   15.4029  H     
37   H         0.3550   12.1508   14.0807  H     
38   H        -1.8626   12.5497   15.2102  H     
39   H        -1.0092   14.0591   14.8526  H     
40   H        -1.0270   13.4312   16.5163  H     
@<TRIPOS>BOND
     1    1    2 2
     2    1    3 2
     3    1    6 1
     4    1   21 am
     5    4    5 2
     6    4    9 1
     7    5    6 1
     8    5   20 1
     9    6    7 2
    10    7    8 1
    11    8    9 2
    12    8   10 1
    13   10   11 1
    14   10   12 2
    15   11   13 1
    16   13   14 1
    17   14   15 2
    18   14   19 1
    19   15   16 1
    20   16   17 2
    21   17   18 1
    22   17   22 1
    23   18   19 2
    24   22   23 1
    25   23   24 1
    26    4   25 1
    27    7   26 1
    28    9   27 1
    29   11   28 1
    30   11   29 1
    31   16   30 1
    32   18   31 1
    33   21   32 1
    34   21   33 1
    35   22   34 1
    36   22   35 1
    37   23   36 1
    38   23   37 1
    39   24   38 1
    40   24   39 1
    41   24   40 1
@<TRIPOS>PROPERTY_DATA
  Total_Score	| 6.4771
  Crash		| -1.9901
  Polar		| 3.3692
  FragIndex	| 1
  FragRMSD	| 1.035

