@<TRIPOS>MOLECULE
BindingDB_50380147
 33 34 0 0 0
SMALL
NO_CHARGES


@<TRIPOS>ATOM
1    S        -6.1986    1.1984   16.9339  S     
2    O        -5.8005    1.1208   18.4675  O     
3    O        -5.9430   -0.2456   16.3185  O     
4    N        -7.8692    1.3738   16.8256  N     
5    C        -3.8745    2.2858   16.0206  C     
6    C        -5.2802    2.3659   16.0329  C     
7    C        -5.9144    3.3935   15.3101  C     
8    C        -5.1474    4.3256   14.5824  C     
9    C        -3.7301    4.2638   14.5439  C     
10   C        -3.1212    3.2195   15.2920  C     
11   C        -2.9759    5.2164   13.8233  C     
12   C        -1.5651    5.0334   13.4792  C     
13   O        -3.5331    6.2387   13.4348  O     
14   S        -0.6993    6.4231   12.6934  S     
15   C        -0.5490    7.6880   13.9034  C     
16   C         0.4120    8.6956   13.6445  C     
17   C         0.5594    9.7873   14.5099  C     
18   C        -0.2046    9.8685   15.6930  C     
19   C        -1.1462    8.8704   15.9825  C     
20   C        -1.3479    7.8000   15.0695  C     
21   H        -8.3886    0.7220   16.3224  H     
22   H        -8.2752    2.2153   17.1018  H     
23   H        -3.3938    1.5445   16.5386  H     
24   H        -6.9336    3.4678   15.3041  H     
25   H        -5.6630    5.0417   14.0636  H     
26   H        -2.1059    3.1057   15.3119  H     
27   H        -0.9871    4.7680   14.3682  H     
28   H        -1.5042    4.1982   12.7834  H     
29   H         1.0111    8.6515   12.8107  H     
30   H         1.2380   10.5308   14.3066  H     
31   H        -0.0817   10.6532   16.3452  H     
32   H        -1.7101    8.9099   16.8274  H     
33   H        -2.0787    7.1404   15.2887  H     
@<TRIPOS>BOND
     1    1    2 2
     2    1    3 2
     3    1    4 am
     4    1    6 1
     5    5    6 2
     6    5   10 1
     7    6    7 1
     8    7    8 2
     9    8    9 1
    10    9   10 2
    11    9   11 1
    12   11   12 1
    13   11   13 2
    14   12   14 1
    15   14   15 1
    16   15   16 2
    17   15   20 1
    18   16   17 1
    19   17   18 2
    20   18   19 1
    21   19   20 2
    22    4   21 1
    23    4   22 1
    24    5   23 1
    25    7   24 1
    26    8   25 1
    27   10   26 1
    28   12   27 1
    29   12   28 1
    30   16   29 1
    31   17   30 1
    32   18   31 1
    33   19   32 1
    34   20   33 1
@<TRIPOS>PROPERTY_DATA
  Total_Score	| 5.7535
  Crash		| -1.3354
  Polar		| 2.1457
  FragIndex	| 1
  FragRMSD	| 0.962

