@<TRIPOS>MOLECULE
BindingDB_50380152
 37 38 0 0 0
SMALL
NO_CHARGES


@<TRIPOS>ATOM
1    S        -5.8933    1.0730   16.8513  S     
2    O        -4.9601    0.6279   18.0618  O     
3    O        -5.7849   -0.1461   15.8395  O     
4    C        -5.4633    4.8359   15.3466  C     
5    C        -6.0135    3.7277   16.0011  C     
6    C        -5.2563    2.5395   16.1438  C     
7    C        -3.9249    2.5201   15.6863  C     
8    C        -3.3371    3.6551   15.0603  C     
9    C        -4.1437    4.7976   14.8658  C     
10   C        -1.9999    3.6300   14.6401  C     
11   C        -1.4815    4.2914   13.4435  C     
12   O        -1.1899    2.9995   15.3086  O     
13   S        -2.5725    4.2385   11.9863  S     
14   C        -2.7835    2.5240   11.8069  C     
15   N        -3.9653    1.9798   12.1860  N     
16   C        -4.2228    0.6472   12.0460  C     
17   C        -3.2471   -0.2086   11.4761  C     
18   C        -2.0292    0.3984   11.0773  C     
19   N        -1.8308    1.7318   11.2522  N     
20   Cl       -7.5494    3.9409   16.6816  Cl    
21   N        -7.4516    0.9486   17.4652  N     
22   C        -3.4211   -1.6731   11.2626  C     
23   C        -4.7764   -2.2987   11.6555  C     
24   H        -5.9992    5.7060   15.2550  H     
25   H        -3.3700    1.6662   15.7918  H     
26   H        -3.7735    5.6352   14.4105  H     
27   H        -1.2976    5.3415   13.6809  H     
28   H        -0.5225    3.8703   13.1415  H     
29   H        -5.1339    0.2931   12.3448  H     
30   H        -1.2827   -0.1521   10.6467  H     
31   H        -8.2067    1.0194   16.8598  H     
32   H        -7.5913    1.0082   18.4269  H     
33   H        -3.2341   -1.8977   10.2089  H     
34   H        -2.6530   -2.1951   11.8449  H     
35   H        -5.0135   -2.0777   12.6920  H     
36   H        -4.7356   -3.3948   11.5325  H     
37   H        -5.5660   -1.9220   11.0111  H     
@<TRIPOS>BOND
     1    1    2 2
     2    1    3 2
     3    1    6 1
     4    1   21 am
     5    4    5 2
     6    4    9 1
     7    5    6 1
     8    5   20 1
     9    6    7 2
    10    7    8 1
    11    8    9 2
    12    8   10 1
    13   10   11 1
    14   10   12 2
    15   11   13 1
    16   13   14 1
    17   14   15 2
    18   14   19 1
    19   15   16 1
    20   16   17 2
    21   17   18 1
    22   17   22 1
    23   18   19 2
    24   22   23 1
    25    4   24 1
    26    7   25 1
    27    9   26 1
    28   11   27 1
    29   11   28 1
    30   16   29 1
    31   18   30 1
    32   21   31 1
    33   21   32 1
    34   22   33 1
    35   22   34 1
    36   23   35 1
    37   23   36 1
    38   23   37 1
@<TRIPOS>PROPERTY_DATA
  Total_Score	| 4.6423
  Crash		| -3.1612
  Polar		| 2.5458
  FragIndex	| 1
  FragRMSD	| 1.288

