@<TRIPOS>MOLECULE
BindingDB_50380157
 35 36 0 0 0
SMALL
NO_CHARGES


@<TRIPOS>ATOM
1    O        -6.2236   -0.0340   16.1692  O     
2    S        -6.4019    1.3977   16.8375  S     
3    O        -7.9610    1.6987   16.7534  O     
4    C        -5.3844    2.5158   15.9770  C     
5    C        -3.9853    2.4437   16.0993  C     
6    C        -3.1645    3.3380   15.3885  C     
7    C        -3.7053    4.3406   14.5404  C     
8    C        -5.1228    4.4004   14.4509  C     
9    C        -5.9478    3.5024   15.1499  C     
10   C        -2.8938    5.2375   13.8130  C     
11   O        -3.4007    6.2542   13.3552  O     
12   C        -1.4776    5.0116   13.5323  C     
13   S        -0.5409    6.3531   12.7376  S     
14   C        -0.5382    7.6117   13.9416  C     
15   N         0.2897    8.6743   13.7592  N     
16   C         0.3743    9.6831   14.6485  C     
17   C        -0.3789    9.6359   15.7719  C     
18   C        -1.2423    8.5924   15.9502  C     
19   N        -1.3042    7.6039   15.0662  N     
20   O        -1.9787    8.5470   16.9233  O     
21   C         1.2844   10.7757   14.3476  C     
22   N        -5.9581    1.1633   18.4386  N     
23   H        -3.5504    1.7415   16.7043  H     
24   H        -2.1560    3.2395   15.5121  H     
25   H        -5.5852    5.0998   13.8636  H     
26   H        -6.9637    3.5799   15.0492  H     
27   H        -0.9579    4.7465   14.4513  H     
28   H        -1.4069    4.1590   12.8578  H     
29   H        -0.3183   10.3539   16.4543  H     
30   H        -1.9223    6.8780   15.2235  H     
31   H         2.3002   10.3951   14.2253  H     
32   H         1.3009   11.5355   15.1301  H     
33   H         0.9719   11.2528   13.4170  H     
34   H        -6.1472    1.8488   19.0964  H     
35   H        -5.6323    0.2959   18.7226  H     
@<TRIPOS>BOND
     1    1    2 2
     2    2    3 2
     3    2    4 1
     4    2   22 am
     5    4    5 1
     6    4    9 2
     7    5    6 2
     8    6    7 1
     9    7    8 2
    10    7   10 1
    11    8    9 1
    12   10   11 2
    13   10   12 1
    14   12   13 1
    15   13   14 1
    16   14   15 2
    17   14   19 1
    18   15   16 1
    19   16   17 2
    20   16   21 1
    21   17   18 1
    22   18   19 1
    23   18   20 2
    24    5   23 1
    25    6   24 1
    26    8   25 1
    27    9   26 1
    28   12   27 1
    29   12   28 1
    30   17   29 1
    31   19   30 1
    32   21   31 1
    33   21   32 1
    34   21   33 1
    35   22   34 1
    36   22   35 1
@<TRIPOS>PROPERTY_DATA
  Total_Score	| 4.8215
  Crash		| -2.1483
  Polar		| 2.2754
  FragIndex	| 1
  FragRMSD	| 1.260

