@<TRIPOS>MOLECULE
BindingDB_50380142
 37 38 0 0 0
SMALL
NO_CHARGES


@<TRIPOS>ATOM
1    S        -5.9469    1.1013   16.7415  S     
2    O        -5.2183    0.8929   18.1394  O     
3    O        -5.7869   -0.3290   16.0692  O     
4    N        -7.6009    1.2616   16.9889  N     
5    C        -3.7370    2.3493   15.6951  C     
6    C        -5.1448    2.2661   15.7309  C     
7    C        -5.9095    3.1209   14.9060  C     
8    C        -5.2771    4.0095   14.0315  C     
9    C        -3.8691    4.0912   13.9852  C     
10   C        -3.1003    3.2523   14.8378  C     
11   C        -3.2513    5.0233   13.1783  C     
12   C        -2.6594    6.2134   13.7564  C     
13   O        -3.5004    5.0098   11.9735  O     
14   S        -0.9683    6.4544   13.1792  S     
15   C        -0.5787    7.9003   14.0705  C     
16   N        -1.1416    8.1784   15.2759  N     
17   C        -0.8365    9.3128   15.9605  C     
18   C         0.0846   10.2481   15.4357  C     
19   C         0.6596    9.9274   14.1858  C     
20   N         0.3161    8.7791   13.5457  N     
21   C         0.4550   11.4982   16.1557  C     
22   C        -0.1765   12.7623   15.5276  C     
23   H        -8.2259    0.7727   16.4319  H     
24   H        -7.9234    1.7684   17.7477  H     
25   H        -3.1658    1.7301   16.2799  H     
26   H        -6.9321    3.0856   14.9234  H     
27   H        -5.8500    4.6116   13.4273  H     
28   H        -2.0746    3.3001   14.8177  H     
29   H        -3.2650    7.0744   13.4823  H     
30   H        -2.6445    6.1412   14.8436  H     
31   H        -1.2956    9.4699   16.8631  H     
32   H         1.3494   10.5502   13.7569  H     
33   H         0.1359   11.4426   17.2033  H     
34   H         1.5414   11.6016   16.1550  H     
35   H         0.1833   12.9111   14.5072  H     
36   H         0.0932   13.6409   16.1229  H     
37   H        -1.2671   12.6765   15.5126  H     
@<TRIPOS>BOND
     1    1    2 2
     2    1    3 2
     3    1    4 am
     4    1    6 1
     5    5    6 2
     6    5   10 1
     7    6    7 1
     8    7    8 2
     9    8    9 1
    10    9   10 2
    11    9   11 1
    12   11   12 1
    13   11   13 2
    14   12   14 1
    15   14   15 1
    16   15   16 2
    17   15   20 1
    18   16   17 1
    19   17   18 2
    20   18   19 1
    21   18   21 1
    22   19   20 2
    23   21   22 1
    24    4   23 1
    25    4   24 1
    26    5   25 1
    27    7   26 1
    28    8   27 1
    29   10   28 1
    30   12   29 1
    31   12   30 1
    32   17   31 1
    33   19   32 1
    34   21   33 1
    35   21   34 1
    36   22   35 1
    37   22   36 1
    38   22   37 1
@<TRIPOS>PROPERTY_DATA
  Total_Score	| 5.3753
  Crash		| -1.4627
  Polar		| 2.4842
  FragIndex	| 1
  FragRMSD	| 1.138

