@<TRIPOS>MOLECULE
BindingDB_50380156
 48 50 0 0 0
SMALL
NO_CHARGES


@<TRIPOS>ATOM
1    S        -6.4799    1.4443   16.8723  S     
2    O        -6.4554    0.0148   16.1792  O     
3    O        -8.0081    1.8841   16.8330  O     
4    N        -6.0283    1.1647   18.4606  N     
5    C        -4.0088    2.3128   16.0757  C     
6    C        -5.4002    2.4873   15.9917  C     
7    C        -5.9192    3.5116   15.1740  C     
8    C        -5.0484    4.3446   14.4496  C     
9    C        -3.6417    4.1868   14.5123  C     
10   C        -3.1383    3.1545   15.3537  C     
11   C        -2.7902    5.0063   13.7452  C     
12   C        -1.4463    4.6136   13.3307  C     
13   O        -3.2128    6.0909   13.3500  O     
14   S        -0.5772    5.7293   12.1921  S     
15   C        -0.3436    7.1397   13.1851  C     
16   N         0.6931    7.9712   12.9306  N     
17   C         0.8890    9.0687   13.6572  C     
18   C         0.0091    9.4402   14.6673  C     
19   C        -1.0365    8.5990   14.9181  C     
20   N        -1.1820    7.4724   14.1940  N     
21   C         0.1762   10.7400   15.3409  C     
22   C        -0.4135   11.9298   14.6503  C     
23   C        -0.6101   13.1139   15.4021  C     
24   C        -1.1199   14.2783   14.7995  C     
25   C        -1.4299   14.2863   13.4269  C     
26   C        -1.2340   13.1216   12.6610  C     
27   C        -0.7330   11.9553   13.2668  C     
28   O         1.8677    9.7403   13.3585  O     
29   C        -2.1169    8.8600   15.8530  C     
30   H        -6.2384    1.8194   19.1430  H     
31   H        -5.6730    0.2985   18.7086  H     
32   H        -3.6108    1.5727   16.6613  H     
33   H        -6.9288    3.6468   15.0807  H     
34   H        -5.4723    5.0599   13.8539  H     
35   H        -2.1347    2.9922   15.4531  H     
36   H        -0.7992    4.4942   14.1998  H     
37   H        -1.5145    3.6432   12.8322  H     
38   H         1.3072    7.7652   12.2080  H     
39   H        -0.2424   10.6766   16.3519  H     
40   H         1.2342   10.9531   15.5007  H     
41   H        -0.3793   13.1373   16.4006  H     
42   H        -1.2577   15.1240   15.3557  H     
43   H        -1.8002   15.1302   12.9879  H     
44   H        -1.4490   13.1265   11.6598  H     
45   H        -0.5930   11.1361   12.6733  H     
46   H        -1.7360    8.9140   16.8747  H     
47   H        -2.8854    8.0786   15.8290  H     
48   H        -2.6015    9.8029   15.5976  H     
@<TRIPOS>BOND
     1    1    2 2
     2    1    3 2
     3    1    4 am
     4    1    6 1
     5    5    6 2
     6    5   10 1
     7    6    7 1
     8    7    8 2
     9    8    9 1
    10    9   10 2
    11    9   11 1
    12   11   12 1
    13   11   13 2
    14   12   14 1
    15   14   15 1
    16   15   16 1
    17   15   20 2
    18   16   17 1
    19   17   18 1
    20   17   28 2
    21   18   19 2
    22   18   21 1
    23   19   20 1
    24   19   29 1
    25   21   22 1
    26   22   23 2
    27   22   27 1
    28   23   24 1
    29   24   25 2
    30   25   26 1
    31   26   27 2
    32    4   30 1
    33    4   31 1
    34    5   32 1
    35    7   33 1
    36    8   34 1
    37   10   35 1
    38   12   36 1
    39   12   37 1
    40   16   38 1
    41   21   39 1
    42   21   40 1
    43   23   41 1
    44   24   42 1
    45   25   43 1
    46   26   44 1
    47   27   45 1
    48   29   46 1
    49   29   47 1
    50   29   48 1
@<TRIPOS>PROPERTY_DATA
  Total_Score	| 6.1731
  Crash		| -2.1595
  Polar		| 2.2749
  FragIndex	| 1
  FragRMSD	| 1.031

