@<TRIPOS>MOLECULE
BindingDB_50380145
 41 42 0 0 0
SMALL
NO_CHARGES


@<TRIPOS>ATOM
1    S        -6.4008    1.3771   16.8721  S     
2    O        -6.2638   -0.0586   16.2080  O     
3    O        -7.9571    1.7075   16.8334  O     
4    N        -5.9379    1.1648   18.4690  N     
5    C        -4.0040    2.3595   16.0113  C     
6    C        -5.4068    2.4951   15.9882  C     
7    C        -5.9816    3.5472   15.2530  C     
8    C        -5.1659    4.4408   14.5374  C     
9    C        -3.7463    4.3129   14.5320  C     
10   C        -3.1908    3.2525   15.2964  C     
11   C        -2.9489    5.2071   13.7919  C     
12   C        -1.5078    5.0380   13.5810  C     
13   O        -3.4882    6.1632   13.2460  O     
14   S        -0.6643    6.3703   12.6763  S     
15   C        -0.5845    7.6391   13.8701  C     
16   N         0.3043    8.6466   13.6647  N     
17   C         0.4530    9.6661   14.5364  C     
18   C        -0.3057    9.6860   15.6575  C     
19   C        -1.2196    8.6967   15.8610  C     
20   N        -1.3478    7.6968   14.9922  N     
21   O        -1.9439    8.7057   16.8432  O     
22   C         1.4916   10.6604   14.2807  C     
23   C         2.8564   10.2915   14.9267  C     
24   C         3.5826    9.1033   14.2522  C     
25   H        -6.2114    1.8134   19.1362  H     
26   H        -5.5508    0.3211   18.7456  H     
27   H        -3.5653    1.6064   16.5505  H     
28   H        -6.9983    3.6737   15.2190  H     
29   H        -5.6309    5.1835   14.0100  H     
30   H        -2.1784    3.1092   15.3486  H     
31   H        -0.9911    4.9221   14.5328  H     
32   H        -1.3557    4.1194   13.0089  H     
33   H        -0.1862   10.3975   16.3423  H     
34   H        -2.0022    7.0034   15.1717  H     
35   H         1.6250   10.7935   13.2010  H     
36   H         1.1719   11.6334   14.6708  H     
37   H         3.5165   11.1613   14.8776  H     
38   H         2.7042   10.0547   15.9838  H     
39   H         2.9736    8.1997   14.3006  H     
40   H         4.5233    8.9099   14.7701  H     
41   H         3.8028    9.3262   13.2050  H     
@<TRIPOS>BOND
     1    1    2 2
     2    1    3 2
     3    1    4 am
     4    1    6 1
     5    5    6 2
     6    5   10 1
     7    6    7 1
     8    7    8 2
     9    8    9 1
    10    9   10 2
    11    9   11 1
    12   11   12 1
    13   11   13 2
    14   12   14 1
    15   14   15 1
    16   15   16 2
    17   15   20 1
    18   16   17 1
    19   17   18 2
    20   17   22 1
    21   18   19 1
    22   19   20 1
    23   19   21 2
    24   22   23 1
    25   23   24 1
    26    4   25 1
    27    4   26 1
    28    5   27 1
    29    7   28 1
    30    8   29 1
    31   10   30 1
    32   12   31 1
    33   12   32 1
    34   18   33 1
    35   20   34 1
    36   22   35 1
    37   22   36 1
    38   23   37 1
    39   23   38 1
    40   24   39 1
    41   24   40 1
    42   24   41 1
@<TRIPOS>PROPERTY_DATA
  Total_Score	| 5.2876
  Crash		| -1.8732
  Polar		| 2.2794
  FragIndex	| 1
  FragRMSD	| 1.266

