@<TRIPOS>MOLECULE
BindingDB_50380143
 37 38 0 0 0
SMALL
NO_CHARGES


@<TRIPOS>ATOM
1    S        -5.9642    1.0915   16.7589  S     
2    O        -5.1353    0.8774   18.0893  O     
3    O        -5.7847   -0.2855   15.9860  O     
4    N        -7.5862    1.2036   17.1611  N     
5    C        -3.8630    2.4593   15.6720  C     
6    C        -5.2680    2.3834   15.8341  C     
7    C        -6.0936    3.3415   15.1937  C     
8    C        -5.5268    4.3267   14.3704  C     
9    C        -4.1284    4.3836   14.1821  C     
10   C        -3.2954    3.4579   14.8618  C     
11   C        -3.5704    5.2986   13.3189  C     
12   C        -2.9499    6.5256   13.7610  C     
13   O        -3.7902    5.1428   12.1192  O     
14   S        -1.2164    6.6047   13.1995  S     
15   C        -0.8024    8.2138   13.7190  C     
16   N        -1.7107    9.2071   13.8413  N     
17   C        -1.3677   10.4731   14.2138  C     
18   C        -0.0117   10.7681   14.4846  C     
19   C         0.9326    9.7316   14.3303  C     
20   N         0.5042    8.4972   13.9502  N     
21   C         2.3706    9.9589   14.5593  C     
22   C        -2.4263   11.5087   14.2988  C     
23   H        -8.2711    0.9704   16.5125  H     
24   H        -7.8386    1.4112   18.0761  H     
25   H        -3.2553    1.7556   16.1184  H     
26   H        -7.1118    3.3063   15.3140  H     
27   H        -6.1501    4.9833   13.8969  H     
28   H        -2.2737    3.4764   14.7325  H     
29   H        -3.5055    7.3693   13.3380  H     
30   H        -2.9570    6.6128   14.8589  H     
31   H         0.2960   11.7081   14.7643  H     
32   H         2.7280   10.7707   13.9147  H     
33   H         2.9584    9.0664   14.3360  H     
34   H         2.5424   10.2308   15.6068  H     
35   H        -2.9206   11.5973   13.3241  H     
36   H        -2.0174   12.4855   14.5778  H     
37   H        -3.1670   11.2080   15.0489  H     
@<TRIPOS>BOND
     1    1    2 2
     2    1    3 2
     3    1    4 am
     4    1    6 1
     5    5    6 2
     6    5   10 1
     7    6    7 1
     8    7    8 2
     9    8    9 1
    10    9   10 2
    11    9   11 1
    12   11   12 1
    13   11   13 2
    14   12   14 1
    15   14   15 1
    16   15   16 2
    17   15   20 1
    18   16   17 1
    19   17   18 2
    20   17   22 1
    21   18   19 1
    22   19   20 2
    23   19   21 1
    24    4   23 1
    25    4   24 1
    26    5   25 1
    27    7   26 1
    28    8   27 1
    29   10   28 1
    30   12   29 1
    31   12   30 1
    32   18   31 1
    33   21   32 1
    34   21   33 1
    35   21   34 1
    36   22   35 1
    37   22   36 1
    38   22   37 1
@<TRIPOS>PROPERTY_DATA
  Total_Score	| 5.5476
  Crash		| -1.2032
  Polar		| 2.6482
  FragIndex	| 1
  FragRMSD	| 1.389

