@<TRIPOS>MOLECULE
BindingDB_50380148
 31 32 0 0 0
SMALL
NO_CHARGES


@<TRIPOS>ATOM
1    S        -6.4072    1.3697   16.8137  S     
2    O        -6.2382   -0.0149   16.0545  O     
3    O        -7.9659    1.6774   16.7711  O     
4    N        -5.9231    1.0274   18.3816  N     
5    C        -3.9953    2.3681   16.0032  C     
6    C        -5.3947    2.5160   15.9856  C     
7    C        -5.9615    3.5984   15.2885  C     
8    C        -5.1377    4.5183   14.6162  C     
9    C        -3.7213    4.3907   14.6119  C     
10   C        -3.1753    3.2897   15.3268  C     
11   C        -2.9140    5.3203   13.9228  C     
12   C        -1.5036    5.0929   13.6072  C     
13   O        -3.4176    6.3671   13.5289  O     
14   S        -0.6368    6.3964   12.6829  S     
15   C        -0.5511    7.6820   13.8555  C     
16   N        -1.2707    7.6965   15.0105  N     
17   C        -1.1676    8.7082   15.9085  C     
18   C        -0.2960    9.7794   15.6542  C     
19   C         0.4326    9.7578   14.4521  C     
20   N         0.2879    8.7172   13.5935  N     
21   H        -6.0232    1.6968   19.0756  H     
22   H        -5.6462    0.1279   18.6094  H     
23   H        -3.5622    1.5891   16.5063  H     
24   H        -6.9755    3.7269   15.2627  H     
25   H        -5.5973    5.2860   14.1192  H     
26   H        -2.1664    3.1366   15.3729  H     
27   H        -0.9443    4.9146   14.5260  H     
28   H        -1.4376    4.1895   12.9981  H     
29   H        -1.7317    8.6902   16.7595  H     
30   H        -0.1958   10.5479   16.3200  H     
31   H         1.0736   10.5182   14.2220  H     
@<TRIPOS>BOND
     1    1    2 2
     2    1    3 2
     3    1    4 am
     4    1    6 1
     5    5    6 2
     6    5   10 1
     7    6    7 1
     8    7    8 2
     9    8    9 1
    10    9   10 2
    11    9   11 1
    12   11   12 1
    13   11   13 2
    14   12   14 1
    15   14   15 1
    16   15   16 2
    17   15   20 1
    18   16   17 1
    19   17   18 2
    20   18   19 1
    21   19   20 2
    22    4   21 1
    23    4   22 1
    24    5   23 1
    25    7   24 1
    26    8   25 1
    27   10   26 1
    28   12   27 1
    29   12   28 1
    30   17   29 1
    31   18   30 1
    32   19   31 1
@<TRIPOS>PROPERTY_DATA
  Total_Score	| 5.5301
  Crash		| -1.1734
  Polar		| 2.2382
  FragIndex	| 1
  FragRMSD	| 0.835

