@<TRIPOS>MOLECULE
BindingDB_50380149
 43 44 0 0 0
SMALL
NO_CHARGES


@<TRIPOS>ATOM
1    C        -3.3694    5.0805   13.2179  C     
2    C        -2.7467    6.2644   13.7759  C     
3    O        -3.6504    5.0836   12.0218  O     
4    S        -1.0391    6.4594   13.2005  S     
5    C        -0.6412    7.9062   14.0846  C     
6    N        -1.1780    8.1635   15.3015  N     
7    C        -0.8688    9.2929   15.9930  C     
8    C         0.0423   10.2303   15.4673  C     
9    C         0.5934    9.9263   14.1993  C     
10   N         0.2423    8.7868   13.5492  N     
11   C         0.4464   11.4420   16.2307  C     
12   C        -0.0803   12.7799   15.6449  C     
13   C         0.0233   13.9993   16.6072  C     
14   C         1.3951   14.1845   17.2937  C     
15   S        -5.9178    1.0335   16.7617  S     
16   O        -5.1253    0.8688   18.1272  O     
17   O        -5.7736   -0.3961   16.0820  O     
18   N        -7.5389    1.2399   17.1390  N     
19   C        -3.7564    2.3365   15.6935  C     
20   C        -5.1645    2.2379   15.7612  C     
21   C        -5.9586    3.1002   14.9773  C     
22   C        -5.3559    4.0232   14.1126  C     
23   C        -3.9472    4.1230   14.0330  C     
24   C        -3.1519    3.2784   14.8467  C     
25   H        -3.3241    7.1480   13.4857  H     
26   H        -2.7471    6.2142   14.8702  H     
27   H        -1.3173    9.4385   16.8994  H     
28   H         1.2742   10.5513   13.7662  H     
29   H         0.0978   11.3683   17.2592  H     
30   H         1.5375   11.4707   16.2683  H     
31   H         0.4650   13.0065   14.7212  H     
32   H        -1.1348   12.6602   15.3749  H     
33   H        -0.2048   14.9052   16.0335  H     
34   H        -0.7422   13.9043   17.3768  H     
35   H         1.5671   13.3892   18.0143  H     
36   H         1.4165   15.1378   17.8197  H     
37   H         2.1935   14.1772   16.5548  H     
38   H        -8.2210    0.9774   16.4998  H     
39   H        -7.7890    1.4582   18.0499  H     
40   H        -3.1672    1.7169   16.2572  H     
41   H        -6.9768    3.0575   15.0293  H     
42   H        -5.9552    4.6398   13.5556  H     
43   H        -2.1336    3.3356   14.8146  H     
@<TRIPOS>BOND
     1    1    2 1
     2    1    3 2
     3    1   23 1
     4    2    4 1
     5    4    5 1
     6    5    6 2
     7    5   10 1
     8    6    7 1
     9    7    8 2
    10    8    9 1
    11    8   11 1
    12    9   10 2
    13   11   12 1
    14   12   13 1
    15   13   14 1
    16   15   16 2
    17   15   17 2
    18   15   18 am
    19   15   20 1
    20   19   20 2
    21   19   24 1
    22   20   21 1
    23   21   22 2
    24   22   23 1
    25   23   24 2
    26    2   25 1
    27    2   26 1
    28    7   27 1
    29    9   28 1
    30   11   29 1
    31   11   30 1
    32   12   31 1
    33   12   32 1
    34   13   33 1
    35   13   34 1
    36   14   35 1
    37   14   36 1
    38   14   37 1
    39   18   38 1
    40   18   39 1
    41   19   40 1
    42   21   41 1
    43   22   42 1
    44   24   43 1
@<TRIPOS>PROPERTY_DATA
  Total_Score	| 6.3387
  Crash		| -1.5802
  Polar		| 2.4542
  FragIndex	| 1
  FragRMSD	| 1.139

