@<TRIPOS>MOLECULE
BindingDB_50380150
 40 41 0 0 0
SMALL
NO_CHARGES


@<TRIPOS>ATOM
1    S        -6.0259    1.0718   16.8453  S     
2    O        -5.1497    0.5534   18.0656  O     
3    O        -6.1480   -0.1961   15.8983  O     
4    N        -7.5486    1.4052   17.4619  N     
5    C        -3.7517    2.3345   16.0496  C     
6    C        -5.1588    2.3459   16.0438  C     
7    C        -5.8359    3.3743   15.3620  C     
8    C        -5.1094    4.3783   14.6956  C     
9    C        -3.6862    4.3850   14.6793  C     
10   C        -3.0312    3.3391   15.3841  C     
11   C        -2.9671    5.3706   13.9731  C     
12   C        -1.5817    5.1904   13.5374  C     
13   O        -3.5364    6.4080   13.6481  O     
14   S        -0.8733    6.4487   12.4361  S     
15   C        -0.4979    7.7424   13.5398  C     
16   N         0.3724    8.6919   13.1103  N     
17   C         0.7016    9.7600   13.8758  C     
18   C         0.1231    9.9346   15.1546  C     
19   C        -0.7713    8.9217   15.5797  C     
20   N        -1.0561    7.8680   14.7723  N     
21   C         0.5146   11.0866   16.0117  C     
22   C         0.3982   12.4911   15.3433  C     
23   C        -0.9463   13.2157   15.5974  C     
24   H        -8.3084    1.4179   16.8627  H     
25   H        -7.6961    1.2999   18.4140  H     
26   H        -3.2389    1.5927   16.5329  H     
27   H        -6.8591    3.3954   15.3381  H     
28   H        -5.6412    5.1009   14.2036  H     
29   H        -2.0120    3.2846   15.4237  H     
30   H        -0.9291    5.0940   14.4063  H     
31   H        -1.5289    4.2539   12.9764  H     
32   H         1.3797   10.4319   13.5055  H     
33   H        -1.2146    8.9575   16.4994  H     
34   H        -0.0709   11.0968   16.9310  H     
35   H         1.5543   10.9342   16.3031  H     
36   H         1.1947   13.1288   15.7350  H     
37   H         0.5570   12.4105   14.2651  H     
38   H        -1.0136   14.1084   14.9700  H     
39   H        -1.0073   13.5232   16.6408  H     
40   H        -1.7884   12.5658   15.3686  H     
@<TRIPOS>BOND
     1    1    2 2
     2    1    3 2
     3    1    4 am
     4    1    6 1
     5    5    6 2
     6    5   10 1
     7    6    7 1
     8    7    8 2
     9    8    9 1
    10    9   10 2
    11    9   11 1
    12   11   12 1
    13   11   13 2
    14   12   14 1
    15   14   15 1
    16   15   16 2
    17   15   20 1
    18   16   17 1
    19   17   18 2
    20   18   19 1
    21   18   21 1
    22   19   20 2
    23   21   22 1
    24   22   23 1
    25    4   24 1
    26    4   25 1
    27    5   26 1
    28    7   27 1
    29    8   28 1
    30   10   29 1
    31   12   30 1
    32   12   31 1
    33   17   32 1
    34   19   33 1
    35   21   34 1
    36   21   35 1
    37   22   36 1
    38   22   37 1
    39   23   38 1
    40   23   39 1
    41   23   40 1
@<TRIPOS>PROPERTY_DATA
  Total_Score	| 6.0435
  Crash		| -1.6675
  Polar		| 2.5886
  FragIndex	| 1
  FragRMSD	| 0.912

