@<TRIPOS>MOLECULE
BindingDB_50380154
 41 42 0 0 0
SMALL
NO_CHARGES


@<TRIPOS>ATOM
1    C        -3.5524    5.3421   13.4588  C     
2    C        -2.7966    6.4594   13.9914  C     
3    O        -3.9025    5.3897   12.2847  O     
4    S        -1.1204    6.4723   13.3153  S     
5    C        -0.5094    7.9406   14.0255  C     
6    N        -0.9053    8.4148   15.2346  N     
7    C        -0.3801    9.5390   15.7475  C     
8    C         0.5684   10.2559   15.0937  C     
9    C         0.9760    9.7486   13.8662  C     
10   N         0.4452    8.6338   13.3636  N     
11   O         1.8541   10.2586   13.1846  O     
12   C         1.1083   11.4242   15.6586  C     
13   O         2.0080   12.1815   14.9805  O     
14   O         0.7586   11.8406   16.9066  O     
15   C         1.1870   13.0035   17.6397  C     
16   C         1.9654   12.5808   18.9003  C     
17   S        -5.9449    1.0554   16.8347  S     
18   O        -5.0663    0.8270   18.1375  O     
19   O        -5.8670   -0.3306   16.0663  O     
20   N        -7.5226    1.2645   17.3641  N     
21   C        -3.8407    2.4528   15.7735  C     
22   C        -5.2447    2.3261   15.8784  C     
23   C        -6.0704    3.2157   15.1629  C     
24   C        -5.5082    4.2187   14.3626  C     
25   C        -4.1014    4.3664   14.2715  C     
26   C        -3.2765    3.4815   15.0017  C     
27   H        -3.3022    7.3886   13.7141  H     
28   H        -2.7399    6.4127   15.0783  H     
29   H        -0.7136    9.8211   16.6363  H     
30   H         0.7599    8.3009   12.5071  H     
31   H         1.8151   13.6572   17.0315  H     
32   H         0.3052   13.5737   17.9364  H     
33   H         1.3238   11.9819   19.5498  H     
34   H         2.3003   13.4612   19.4538  H     
35   H         2.8377   11.9888   18.6187  H     
36   H        -8.2609    1.1371   16.7487  H     
37   H        -7.6950    1.4030   18.3071  H     
38   H        -3.2224    1.7880   16.2507  H     
39   H        -7.0885    3.1199   15.1957  H     
40   H        -6.1325    4.8480   13.8476  H     
41   H        -2.2559    3.5531   14.9477  H     
@<TRIPOS>BOND
     1    1    2 1
     2    1    3 2
     3    1   25 1
     4    2    4 1
     5    4    5 1
     6    5    6 2
     7    5   10 1
     8    6    7 1
     9    7    8 2
    10    8    9 1
    11    8   12 1
    12    9   10 1
    13    9   11 2
    14   12   13 2
    15   12   14 1
    16   14   15 1
    17   15   16 1
    18   17   18 2
    19   17   19 2
    20   17   20 am
    21   17   22 1
    22   21   22 2
    23   21   26 1
    24   22   23 1
    25   23   24 2
    26   24   25 1
    27   25   26 2
    28    2   27 1
    29    2   28 1
    30    7   29 1
    31   10   30 1
    32   15   31 1
    33   15   32 1
    34   16   33 1
    35   16   34 1
    36   16   35 1
    37   20   36 1
    38   20   37 1
    39   21   38 1
    40   23   39 1
    41   24   40 1
    42   26   41 1
@<TRIPOS>PROPERTY_DATA
  Total_Score	| 5.7820
  Crash		| -1.3607
  Polar		| 2.6231
  FragIndex	| 1
  FragRMSD	| 1.191

