@<TRIPOS>MOLECULE
BindingDB_50380140
 31 32 0 0 0
SMALL
NO_CHARGES


@<TRIPOS>ATOM
1    S        -4.2700    0.8282   15.1784  S     
2    O        -5.3916   -0.2862   15.3437  O     
3    O        -3.2405    0.5225   16.3512  O     
4    C        -6.4298    4.1825   16.0211  C     
5    C        -6.0504    2.8296   15.9613  C     
6    C        -4.8318    2.4770   15.3358  C     
7    C        -3.9940    3.4932   14.8221  C     
8    C        -4.3574    4.8635   14.8887  C     
9    C        -5.5961    5.1828   15.4993  C     
10   C        -3.5029    5.8621   14.4116  C     
11   C        -2.8835    5.8694   13.0871  C     
12   O        -3.3867    6.8765   15.0891  O     
13   S        -1.0772    6.0153   13.0938  S     
14   C        -0.8167    7.4504   14.0526  C     
15   N        -1.4255    7.6563   15.2511  N     
16   C        -1.1766    8.7896   15.9788  C     
17   C        -0.2770    9.7592   15.4975  C     
18   C         0.3239    9.5224   14.2498  C     
19   N         0.0388    8.3877   13.5646  N     
20   Cl       -7.1043    1.7041   16.6677  Cl    
21   N        -3.4706    0.5355   13.7318  N     
22   H        -7.3122    4.4486   16.4587  H     
23   H        -3.0861    3.2402   14.4148  H     
24   H        -5.8919    6.1533   15.5899  H     
25   H        -3.1180    4.9408   12.5492  H     
26   H        -3.2954    6.6861   12.4982  H     
27   H        -1.6432    8.9340   16.8764  H     
28   H        -0.0752   10.6117   16.0261  H     
29   H         0.9789   10.1974   13.8564  H     
30   H        -2.5838    0.9028   13.6007  H     
31   H        -3.9386    0.1230   12.9871  H     
@<TRIPOS>BOND
     1    1    2 2
     2    1    3 2
     3    1    6 1
     4    1   21 am
     5    4    5 2
     6    4    9 1
     7    5    6 1
     8    5   20 1
     9    6    7 2
    10    7    8 1
    11    8    9 2
    12    8   10 1
    13   10   11 1
    14   10   12 2
    15   11   13 1
    16   13   14 1
    17   14   15 2
    18   14   19 1
    19   15   16 1
    20   16   17 2
    21   17   18 1
    22   18   19 2
    23    4   22 1
    24    7   23 1
    25    9   24 1
    26   11   25 1
    27   11   26 1
    28   16   27 1
    29   17   28 1
    30   18   29 1
    31   21   30 1
    32   21   31 1
@<TRIPOS>PROPERTY_DATA
  Total_Score	| 5.0039
  Crash		| -2.1646
  Polar		| 3.3554
  FragIndex	| 1
  FragRMSD	| 0.952

