@<TRIPOS>MOLECULE
BindingDB_68250
 45 46 0 0 0
SMALL
NO_CHARGES


@<TRIPOS>ATOM
1    C        18.1876   -2.6575   -4.9330  C     
2    C        19.3381   -3.4282   -5.2407  C     
3    C        19.9395   -4.2332   -4.2601  C     
4    C        19.4487   -4.2436   -2.9479  C     
5    C        18.3553   -3.4210   -2.6009  C     
6    C        17.6670   -2.6648   -3.5987  C     
7    C        17.6576   -1.8599   -5.9702  C     
8    O        19.9426   -3.3772   -6.4576  O     
9    O        20.0548   -5.0427   -2.0317  O     
10   Cl       17.9153   -3.3799   -0.9558  Cl    
11   O        17.2945   -2.4262   -7.1501  O     
12   O        17.6476   -0.5197   -5.8302  O     
13   C        16.8444   -1.7826   -8.3594  C     
14   C        15.4495   -1.0884   -8.2563  C     
15   C        14.3758   -1.9894   -7.8625  C     
16   C        13.5952   -1.7820   -6.7908  C     
17   C        16.4157   -1.9083   -3.2333  C     
18   C        15.3299   -2.7166   -2.6795  C     
19   C        14.8960   -3.9944   -3.2377  C     
20   C        14.3511   -3.9258   -4.6900  C     
21   C        13.0030   -3.1596   -4.8194  C     
22   C        12.6514   -2.7641   -6.2772  C     
23   O        14.7870   -2.3320   -1.6502  O     
24   C        16.8888   -2.8486   -9.4747  C     
25   H        20.7647   -4.7920   -4.5005  H     
26   H        20.7550   -2.8456   -6.3072  H     
27   H        19.8618   -5.9673   -2.3247  H     
28   H        17.5798   -1.0118   -8.6170  H     
29   H        15.5413   -0.2509   -7.5621  H     
30   H        15.1903   -0.6649   -9.2269  H     
31   H        14.2158   -2.7962   -8.4164  H     
32   H        13.7087   -0.9435   -6.2694  H     
33   H        16.7058   -1.1259   -2.5245  H     
34   H        15.9824   -1.3882   -4.0849  H     
35   H        15.7497   -4.6698   -3.2303  H     
36   H        14.1259   -4.4519   -2.6068  H     
37   H        15.1119   -3.4761   -5.3276  H     
38   H        14.1968   -4.9495   -5.0550  H     
39   H        12.1970   -3.7842   -4.4242  H     
40   H        13.0288   -2.2520   -4.2063  H     
41   H        11.6576   -2.3071   -6.2926  H     
42   H        12.6097   -3.6621   -6.8987  H     
43   H        17.9169   -3.1854   -9.6026  H     
44   H        16.5412   -2.4305  -10.4242  H     
45   H        16.2714   -3.7105   -9.2136  H     
@<TRIPOS>BOND
     1    1    2 1
     2    1    6 2
     3    1    7 1
     4    2    3 2
     5    2    8 1
     6    3    4 1
     7    4    5 2
     8    4    9 1
     9    5    6 1
    10    5   10 1
    11    6   17 1
    12    7   11 1
    13    7   12 2
    14   11   13 1
    15   13   14 1
    16   13   24 1
    17   14   15 1
    18   15   16 2
    19   16   22 1
    20   17   18 1
    21   18   19 1
    22   18   23 2
    23   19   20 1
    24   20   21 1
    25   21   22 1
    26    3   25 1
    27    8   26 1
    28    9   27 1
    29   13   28 1
    30   14   29 1
    31   14   30 1
    32   15   31 1
    33   16   32 1
    34   17   33 1
    35   17   34 1
    36   19   35 1
    37   19   36 1
    38   20   37 1
    39   20   38 1
    40   21   39 1
    41   21   40 1
    42   22   41 1
    43   22   42 1
    44   24   43 1
    45   24   44 1
    46   24   45 1
@<TRIPOS>PROPERTY_DATA
  Total_Score	| 0.0564
  Crash		| -3.3003
  Polar		| 0.3199
  FragIndex	| 1
  FragRMSD	| 1.495

