@<TRIPOS>MOLECULE
BindingDB_50288852
 24 24 0 0 0
SMALL
NO_CHARGES


@<TRIPOS>ATOM
1    C        39.6979   15.8037   29.5933  C     
2    N        36.9363   15.6581   30.6848  N     
3    C        38.5292   15.0726   28.8337  C     
4    C        39.1277   16.8854   30.5763  C     
5    O        40.5840   16.4414   28.6959  O     
6    C        37.4406   14.5740   29.8084  C     
7    C        37.9875   16.3302   31.4528  C     
8    O        37.9399   15.9190   27.8453  O     
9    O        40.0643   17.4248   31.5484  O     
10   C        41.4237   17.0789   31.3980  C     
11   H        40.2861   15.0671   30.1688  H     
12   H        36.4573   16.3584   30.1033  H     
13   H        36.2607   15.2685   31.3399  H     
14   H        38.9491   14.2026   28.3125  H     
15   H        38.7726   17.7122   29.9819  H     
16   H        41.3444   15.8061   28.5364  H     
17   H        37.8140   13.7547   30.4330  H     
18   H        36.5726   14.1993   29.2518  H     
19   H        37.5189   17.1589   31.9952  H     
20   H        38.3803   15.6188   32.1931  H     
21   H        37.5004   15.2757   27.2193  H     
22   H        41.5123   15.9992   31.5251  H     
23   H        41.9982   17.5948   32.1951  H     
24   H        41.7782   17.4258   30.4456  H     
@<TRIPOS>BOND
     1    1    3 1
     2    1    4 1
     3    1    5 1
     4    2    6 1
     5    2    7 1
     6    3    6 1
     7    3    8 1
     8    4    7 1
     9    4    9 1
    10    9   10 1
    11    1   11 1
    12    2   12 1
    13    2   13 1
    14    3   14 1
    15    4   15 1
    16    5   16 1
    17    6   17 1
    18    6   18 1
    19    7   19 1
    20    7   20 1
    21    8   21 1
    22   10   22 1
    23   10   23 1
    24   10   24 1
@<TRIPOS>PROPERTY_DATA
  Total_Score	| 3.8702
  Crash		| -1.3819
  Polar		| 2.8525
  FragIndex	| 1
  FragRMSD	| 1.256

