@<TRIPOS>MOLECULE
BindingDB_50288855
 33 33 0 0 0
SMALL
NO_CHARGES


@<TRIPOS>ATOM
1    C        39.7259   15.7321   29.2930  C     
2    C        38.3514   15.3044   28.7062  C     
3    C        39.5747   16.8496   30.3575  C     
4    N        37.2191   16.0752   30.8759  N     
5    C        38.5594   16.4278   31.4496  C     
6    C        37.3165   15.0098   29.8205  C     
7    O        37.8410   16.2784   27.7971  O     
8    O        40.8083   17.1574   31.0020  O     
9    O        40.5820   16.1763   28.2410  O     
10   C        36.1666   15.7218   31.8891  C     
11   C        36.2806   16.3379   33.3160  C     
12   C        35.0962   16.0858   34.3082  C     
13   C        33.9491   15.1464   33.8568  C     
14   H        40.1893   14.8494   29.7526  H     
15   H        38.4894   14.3880   28.1252  H     
16   H        39.2233   17.7481   29.8524  H     
17   H        36.8879   16.9246   30.4049  H     
18   H        38.9614   15.5829   32.0111  H     
19   H        38.4524   17.2667   32.1319  H     
20   H        36.3327   14.8733   29.3493  H     
21   H        37.5870   14.0527   30.2913  H     
22   H        37.7230   17.1015   28.3183  H     
23   H        41.5422   16.7600   30.4832  H     
24   H        41.4545   15.7826   28.4616  H     
25   H        35.2013   16.0375   31.4811  H     
26   H        36.1306   14.6296   32.0135  H     
27   H        37.1978   15.9465   33.7773  H     
28   H        36.4298   17.4227   33.1897  H     
29   H        35.5060   15.6718   35.2359  H     
30   H        34.6481   17.0464   34.5521  H     
31   H        33.4585   15.5466   32.9674  H     
32   H        33.2112   15.0653   34.6583  H     
33   H        34.3285   14.1419   33.6425  H     
@<TRIPOS>BOND
     1    1    2 1
     2    1    3 1
     3    1    9 1
     4    2    6 1
     5    2    7 1
     6    3    5 1
     7    3    8 1
     8    4    5 1
     9    4    6 1
    10    4   10 1
    11   10   11 1
    12   11   12 1
    13   12   13 1
    14    1   14 1
    15    2   15 1
    16    3   16 1
    17    4   17 1
    18    5   18 1
    19    5   19 1
    20    6   20 1
    21    6   21 1
    22    7   22 1
    23    8   23 1
    24    9   24 1
    25   10   25 1
    26   10   26 1
    27   11   27 1
    28   11   28 1
    29   12   29 1
    30   12   30 1
    31   13   31 1
    32   13   32 1
    33   13   33 1
@<TRIPOS>PROPERTY_DATA
  Total_Score	| 3.9911
  Crash		| -1.1867
  Polar		| 3.0367
  FragIndex	| 1
  FragRMSD	| 1.137

