@<TRIPOS>MOLECULE
BindingDB_50287006
 25 25 0 0 0
SMALL
NO_CHARGES


@<TRIPOS>ATOM
1    C        38.1317   15.5314   28.6139  C     
2    C        38.9505   16.7886   29.0530  C     
3    C        37.0753   14.9142   29.5988  C     
4    C        39.9014   16.5648   30.2675  C     
5    N        38.1403   15.5086   31.8059  N     
6    O        39.7293   17.1960   27.9217  O     
7    O        37.4672   15.9032   27.4079  O     
8    C        39.1689   16.5539   31.6392  C     
9    C        36.9247   15.6064   30.9720  C     
10   O        37.3336   13.5262   29.8241  O     
11   O        40.9223   17.5742   30.2560  O     
12   H        38.8577   14.7588   28.3404  H     
13   H        38.2596   17.6063   29.2768  H     
14   H        36.0880   14.9452   29.1297  H     
15   H        40.4196   15.6051   30.1473  H     
16   H        38.5791   14.5938   31.6473  H     
17   H        37.8298   15.5471   32.7810  H     
18   H        39.6262   18.1765   27.8711  H     
19   H        37.2383   15.0616   26.9809  H     
20   H        39.9167   16.3829   32.4185  H     
21   H        38.7313   17.5300   31.8395  H     
22   H        36.6059   16.6477   30.8395  H     
23   H        36.1187   15.1024   31.5128  H     
24   H        38.2621   13.4678   30.1156  H     
25   H        41.2742   17.6137   31.1718  H     
@<TRIPOS>BOND
     1    1    2 1
     2    1    3 1
     3    1    7 1
     4    2    4 1
     5    2    6 1
     6    3    9 1
     7    3   10 1
     8    4    8 1
     9    4   11 1
    10    5    8 1
    11    5    9 1
    12    1   12 1
    13    2   13 1
    14    3   14 1
    15    4   15 1
    16    5   16 1
    17    5   17 1
    18    6   18 1
    19    7   19 1
    20    8   20 1
    21    8   21 1
    22    9   22 1
    23    9   23 1
    24   10   24 1
    25   11   25 1
@<TRIPOS>PROPERTY_DATA
  Total_Score	| 7.1888
  Crash		| -1.6783
  Polar		| 7.4099
  FragIndex	| 1
  FragRMSD	| 0.961

