@<TRIPOS>MOLECULE
BindingDB_50320826
 39 39 0 0 0
SMALL
NO_CHARGES


@<TRIPOS>ATOM
1    C        39.9777   16.2887   30.7131  C     
2    C        38.7288   16.3434   31.6592  C     
3    N        37.8185   15.2436   31.2522  N     
4    C        37.2233   15.3962   29.9018  C     
5    C        38.3286   15.5778   28.8104  C     
6    C        39.4583   16.5596   29.2579  C     
7    O        38.9096   14.3314   28.4363  O     
8    O        40.5263   16.4929   28.3161  O     
9    C        41.1182   17.2694   31.1189  C     
10   C        36.2790   14.1892   29.6480  C     
11   C        39.0124   16.2437   33.1909  C     
12   O        35.4191   13.9524   30.7557  O     
13   C        37.8348   16.7694   34.0708  C     
14   C        38.0735   16.6368   35.5989  C     
15   C        39.5162   16.9672   36.0474  C     
16   H        40.4037   15.2803   30.7394  H     
17   H        38.2243   17.3004   31.5031  H     
18   H        38.3478   14.3694   31.2861  H     
19   H        37.0613   15.1740   31.9331  H     
20   H        36.5991   16.2969   29.9159  H     
21   H        37.8579   15.9851   27.9171  H     
22   H        39.0597   17.5808   29.2105  H     
23   H        38.2529   13.8987   27.8400  H     
24   H        41.2374   15.9693   28.7454  H     
25   H        40.6968   18.2478   31.3701  H     
26   H        41.8355   17.4081   30.3080  H     
27   H        41.6553   16.8884   31.9929  H     
28   H        35.6691   14.3664   28.7621  H     
29   H        36.8760   13.2877   29.4906  H     
30   H        39.2171   15.2029   33.4491  H     
31   H        39.8921   16.8415   33.4723  H     
32   H        35.2029   12.9923   30.7131  H     
33   H        37.6784   17.8294   33.8466  H     
34   H        36.9139   16.2345   33.8281  H     
35   H        37.3868   17.3123   36.1192  H     
36   H        37.8388   15.6192   35.9221  H     
37   H        40.1993   16.1539   35.7842  H     
38   H        39.5563   17.1193   37.1338  H     
39   H        39.8632   17.8829   35.5593  H     
@<TRIPOS>BOND
     1    1    2 1
     2    1    6 1
     3    1    9 1
     4    2    3 1
     5    2   11 1
     6    3    4 1
     7    4    5 1
     8    4   10 1
     9    5    6 1
    10    5    7 1
    11    6    8 1
    12   10   12 1
    13   11   13 1
    14   13   14 1
    15   14   15 1
    16    1   16 1
    17    2   17 1
    18    3   18 1
    19    3   19 1
    20    4   20 1
    21    5   21 1
    22    6   22 1
    23    7   23 1
    24    8   24 1
    25    9   25 1
    26    9   26 1
    27    9   27 1
    28   10   28 1
    29   10   29 1
    30   11   30 1
    31   11   31 1
    32   12   32 1
    33   13   33 1
    34   13   34 1
    35   14   35 1
    36   14   36 1
    37   15   37 1
    38   15   38 1
    39   15   39 1
@<TRIPOS>PROPERTY_DATA
  Total_Score	| 7.4805
  Crash		| -3.3507
  Polar		| 6.8860
  FragIndex	| 1
  FragRMSD	| 0.594

