@<TRIPOS>MOLECULE
BindingDB_50163439
 25 25 0 0 0
SMALL
NO_CHARGES


@<TRIPOS>ATOM
1    C        38.4012   15.1600   28.9105  C     
2    C        39.7767   15.7105   29.3830  C     
3    N        37.4090   15.8327   31.1082  N     
4    C        37.5339   14.7176   30.1355  C     
5    C        39.6362   16.8318   30.4514  C     
6    C        38.6968   16.3793   31.5969  C     
7    O        37.7047   16.1378   28.1347  O     
8    O        40.5124   16.2000   28.2641  O     
9    O        40.8870   17.1900   31.0457  O     
10   C        36.1360   14.2101   29.6953  C     
11   O        35.2792   13.9361   30.7992  O     
12   H        38.5717   14.2899   28.2724  H     
13   H        40.3439   14.8772   29.8116  H     
14   H        36.8772   16.5911   30.6734  H     
15   H        36.8864   15.4969   31.9197  H     
16   H        38.0406   13.8827   30.6316  H     
17   H        39.2307   17.7251   29.9723  H     
18   H        38.4893   17.2317   32.2486  H     
19   H        39.1962   15.6132   32.1968  H     
20   H        38.2165   16.2357   27.3020  H     
21   H        41.4141   15.8312   28.3915  H     
22   H        41.6078   16.8251   30.4920  H     
23   H        35.6545   14.9583   29.0728  H     
24   H        36.2366   13.2937   29.1094  H     
25   H        35.1882   12.9575   30.8238  H     
@<TRIPOS>BOND
     1    1    2 1
     2    1    4 1
     3    1    7 1
     4    2    5 1
     5    2    8 1
     6    3    4 1
     7    3    6 1
     8    4   10 1
     9    5    6 1
    10    5    9 1
    11   10   11 1
    12    1   12 1
    13    2   13 1
    14    3   14 1
    15    3   15 1
    16    4   16 1
    17    5   17 1
    18    6   18 1
    19    6   19 1
    20    7   20 1
    21    8   21 1
    22    9   22 1
    23   10   23 1
    24   10   24 1
    25   11   25 1
@<TRIPOS>PROPERTY_DATA
  Total_Score	| 4.9691
  Crash		| -1.6209
  Polar		| 4.4146
  FragIndex	| 1
  FragRMSD	| 1.026

