@<TRIPOS>MOLECULE
BindingDB_50288853
 35 35 0 0 0
SMALL
NO_CHARGES


@<TRIPOS>ATOM
1    N        37.3868   15.6405   31.3693  N     
2    C        38.6859   15.2709   29.1418  C     
3    C        39.6492   16.7970   31.0142  C     
4    C        39.3349   16.6377   29.4840  C     
5    C        37.4197   14.9873   30.0101  C     
6    C        38.7665   15.8653   31.9004  C     
7    O        38.3717   15.2275   27.7546  O     
8    O        40.4864   16.8341   28.6607  O     
9    C        36.4462   16.8112   31.4520  C     
10   C        41.1438   16.6208   31.3968  C     
11   C        36.3717   17.5825   32.8004  C     
12   C        36.0399   16.6852   34.0210  C     
13   C        35.5297   17.4928   35.2363  C     
14   H        36.9742   14.9404   31.9892  H     
15   H        39.4273   14.4884   29.3329  H     
16   H        39.3924   17.8186   31.2918  H     
17   H        38.6252   17.4196   29.1958  H     
18   H        37.3693   13.9071   30.1758  H     
19   H        36.5270   15.2389   29.4275  H     
20   H        38.7408   16.2535   32.9190  H     
21   H        39.2434   14.8848   31.9723  H     
22   H        37.8310   14.4211   27.6309  H     
23   H        41.0196   16.0112   28.7455  H     
24   H        36.6628   17.5259   30.6543  H     
25   H        35.4342   16.4383   31.2712  H     
26   H        41.4816   15.6211   31.1211  H     
27   H        41.2864   16.7524   32.4711  H     
28   H        41.7587   17.3641   30.8859  H     
29   H        37.3101   18.1081   32.9835  H     
30   H        35.5940   18.3453   32.7039  H     
31   H        35.2774   15.9521   33.7410  H     
32   H        36.9390   16.1444   34.3239  H     
33   H        36.2823   18.2172   35.5560  H     
34   H        35.3225   16.8161   36.0671  H     
35   H        34.6094   18.0243   34.9822  H     
@<TRIPOS>BOND
     1    1    5 1
     2    1    6 1
     3    1    9 1
     4    2    4 1
     5    2    5 1
     6    2    7 1
     7    3    4 1
     8    3    6 1
     9    3   10 1
    10    4    8 1
    11    9   11 1
    12   11   12 1
    13   12   13 1
    14    1   14 1
    15    2   15 1
    16    3   16 1
    17    4   17 1
    18    5   18 1
    19    5   19 1
    20    6   20 1
    21    6   21 1
    22    7   22 1
    23    8   23 1
    24    9   24 1
    25    9   25 1
    26   10   26 1
    27   10   27 1
    28   10   28 1
    29   11   29 1
    30   11   30 1
    31   12   31 1
    32   12   32 1
    33   13   33 1
    34   13   34 1
    35   13   35 1
@<TRIPOS>PROPERTY_DATA
  Total_Score	| 3.3584
  Crash		| -1.7431
  Polar		| 3.1930
  FragIndex	| 1
  FragRMSD	| 0.898

