@<TRIPOS>MOLECULE
BindingDB_50320827
 37 37 0 0 0
SMALL
NO_CHARGES


@<TRIPOS>ATOM
1    C        39.9819   16.3249   30.6791  C     
2    C        38.7903   16.3718   31.7040  C     
3    N        37.7980   15.3458   31.3026  N     
4    C        37.1670   15.5523   29.9746  C     
5    C        38.2566   15.6052   28.8580  C     
6    C        39.4123   16.5856   29.2397  C     
7    O        38.8012   14.3125   28.5795  O     
8    O        40.4427   16.4912   28.2576  O     
9    C        41.1356   17.3045   31.0509  C     
10   C        36.0783   14.4637   29.7743  C     
11   C        39.1813   16.1059   33.1941  C     
12   O        36.5264   13.1880   30.2288  O     
13   C        38.1608   16.5694   34.2797  C     
14   C        37.7897   17.9722   34.2561  C     
15   C        38.6120   18.9727   33.8612  C     
16   H        40.4033   15.3147   30.6944  H     
17   H        38.3226   17.3590   31.6332  H     
18   H        38.2945   14.4462   31.2810  H     
19   H        37.0611   15.2966   32.0062  H     
20   H        36.6578   16.5246   29.9816  H     
21   H        37.7989   15.9683   27.9283  H     
22   H        39.0258   17.6120   29.1976  H     
23   H        38.1378   13.8681   28.0122  H     
24   H        41.1417   15.9249   28.6623  H     
25   H        40.7313   18.2737   31.3571  H     
26   H        41.8109   17.4554   30.2078  H     
27   H        41.7335   16.8977   31.8755  H     
28   H        35.1981   14.7342   30.3639  H     
29   H        35.7773   14.3929   28.7229  H     
30   H        39.3616   15.0315   33.3159  H     
31   H        40.1211   16.6061   33.4197  H     
32   H        35.7330   12.7416   30.5851  H     
33   H        37.2594   15.9547   34.1856  H     
34   H        38.5969   16.3534   35.2583  H     
35   H        36.8610   18.2114   34.5276  H     
36   H        38.2931   19.9098   33.8887  H     
37   H        39.5424   18.7698   33.5623  H     
@<TRIPOS>BOND
     1    1    2 1
     2    1    6 1
     3    1    9 1
     4    2    3 1
     5    2   11 1
     6    3    4 1
     7    4    5 1
     8    4   10 1
     9    5    6 1
    10    5    7 1
    11    6    8 1
    12   10   12 1
    13   11   13 1
    14   13   14 1
    15   14   15 2
    16    1   16 1
    17    2   17 1
    18    3   18 1
    19    3   19 1
    20    4   20 1
    21    5   21 1
    22    6   22 1
    23    7   23 1
    24    8   24 1
    25    9   25 1
    26    9   26 1
    27    9   27 1
    28   10   28 1
    29   10   29 1
    30   11   30 1
    31   11   31 1
    32   12   32 1
    33   13   33 1
    34   13   34 1
    35   14   35 1
    36   15   36 1
    37   15   37 1
@<TRIPOS>PROPERTY_DATA
  Total_Score	| 6.6015
  Crash		| -4.0006
  Polar		| 7.3990
  FragIndex	| 1
  FragRMSD	| 0.738

