@<TRIPOS>MOLECULE
BindingDB_50259453
 79 84 0 0 0
SMALL
NO_CHARGES


@<TRIPOS>ATOM
1    C       -10.7480  -16.9736   -9.1622  C     
2    O       -11.8592  -16.5115   -8.5089  O     
3    C       -11.8904  -16.1136   -7.1059  C     
4    C       -12.0816  -14.5761   -6.9066  C     
5    O       -12.1300  -13.8452   -8.1595  O     
6    C       -11.8324  -12.5095   -7.9998  C     
7    C       -10.4913  -12.0572   -8.1425  C     
8    C       -10.1666  -10.7035   -7.9238  C     
9    C       -11.1773   -9.7846   -7.5802  C     
10   C       -12.5128  -10.2118   -7.4942  C     
11   C       -12.8469  -11.5667   -7.7156  C     
12   N        -5.1833  -20.4189  -11.4422  N     
13   C        -4.3711  -19.2282  -11.6729  C     
14   N        -5.6468  -18.8028  -13.7419  N     
15   C        -5.7225  -21.0118  -12.6580  C     
16   C        -6.3262  -17.6270  -11.7057  C     
17   C        -7.5120  -18.2954  -11.6877  C     
18   C        -8.6005  -17.9506  -10.8536  C     
19   C        -8.4335  -17.7892   -9.4378  C     
20   C        -9.4837  -17.3499   -8.6197  C     
21   C       -10.9286  -17.1634  -10.5572  C     
22   C        -9.9011  -17.6550  -11.3676  C     
23   C        -6.0946  -16.4725  -10.9862  C     
24   O        -5.3637  -16.6676  -10.0249  O     
25   N        -6.5069  -15.2242  -11.2903  N     
26   C        -6.1134  -14.0764  -10.4607  C     
27   C        -4.8527  -13.3733  -10.8964  C     
28   C        -3.5691  -13.5975  -10.3242  C     
29   C        -2.4287  -12.9209  -10.8444  C     
30   C        -2.5660  -11.9841  -11.8786  C     
31   C        -3.8342  -11.7032  -12.4051  C     
32   C        -4.9577  -12.3704  -11.9033  C     
33   C        -5.4877  -20.8990  -10.2192  C     
34   C        -5.0599  -20.3085   -8.9625  C     
35   O        -6.2023  -21.8891  -10.0904  O     
36   C        -7.5088  -15.0525  -12.3420  C     
37   C        -8.0510  -13.7575  -12.9852  C     
38   C        -6.9668  -14.5621  -13.6961  C     
39   Cl       -3.3531  -14.5619   -8.9311  Cl    
40   Cl       -0.8615  -13.1467  -10.2253  Cl    
41   Cl      -14.4815  -12.0284   -7.6438  Cl    
42   Cl       -9.2561  -13.1410   -8.5631  Cl    
43   F       -10.8759   -8.5349   -7.3694  F     
44   C        -5.1783  -18.1589  -12.4835  C     
45   C        -6.5321  -19.9413  -13.4419  C     
46   C        -7.7622  -19.3951  -12.6474  C     
47   H       -12.7582  -16.6587   -6.6741  H     
48   H       -10.9839  -16.4346   -6.5590  H     
49   H       -13.0129  -14.4127   -6.3457  H     
50   H       -11.2482  -14.2179   -6.2786  H     
51   H        -9.1953  -10.3867   -8.0047  H     
52   H       -13.2455   -9.5357   -7.2686  H     
53   H        -3.9848  -18.7659  -10.7665  H     
54   H        -3.4815  -19.5234  -12.2458  H     
55   H        -6.1520  -18.1253  -14.3104  H     
56   H        -4.8461  -19.1439  -14.2835  H     
57   H        -4.8958  -21.3609  -13.2846  H     
58   H        -6.3675  -21.8751  -12.4910  H     
59   H        -7.5199  -17.9964   -8.9960  H     
60   H        -9.3487  -17.2812   -7.5898  H     
61   H       -11.8236  -16.9134  -10.9926  H     
62   H       -10.0960  -17.7189  -12.3736  H     
63   H        -6.9297  -13.3599  -10.4330  H     
64   H        -6.0372  -14.3769   -9.4121  H     
65   H        -1.7564  -11.5058  -12.2751  H     
66   H        -3.9455  -10.9924  -13.1307  H     
67   H        -5.8576  -12.0906  -12.2807  H     
68   H        -3.9732  -20.3505   -8.8839  H     
69   H        -5.4767  -20.8154   -8.0860  H     
70   H        -5.3764  -19.2675   -8.9115  H     
71   H        -8.2492  -15.8432  -12.4488  H     
72   H        -9.0178  -13.8304  -13.4740  H     
73   H        -7.7559  -12.7989  -12.5755  H     
74   H        -5.9829  -14.0988  -13.7082  H     
75   H        -7.3148  -15.1136  -14.5650  H     
76   H        -4.4864  -17.3712  -12.7919  H     
77   H        -6.8712  -20.3866  -14.3913  H     
78   H        -8.2465  -20.2360  -12.1431  H     
79   H        -8.4505  -19.0292  -13.4057  H     
@<TRIPOS>BOND
     1    1    2 1
     2    1   20 2
     3    1   21 1
     4    2    3 1
     5    3    4 1
     6    4    5 1
     7    5    6 1
     8    6    7 2
     9    6   11 1
    10    7    8 1
    11    7   42 1
    12    8    9 2
    13    9   10 1
    14    9   43 1
    15   10   11 2
    16   11   41 1
    17   12   13 1
    18   12   15 1
    19   12   33 am
    20   13   44 1
    21   14   44 1
    22   14   45 1
    23   15   45 1
    24   16   17 2
    25   16   23 1
    26   16   44 1
    27   17   18 1
    28   17   46 1
    29   18   19 2
    30   18   22 1
    31   19   20 1
    32   21   22 2
    33   23   24 2
    34   23   25 am
    35   25   26 1
    36   25   36 1
    37   26   27 1
    38   27   28 2
    39   27   32 1
    40   28   29 1
    41   28   39 1
    42   29   30 2
    43   29   40 1
    44   30   31 1
    45   31   32 2
    46   33   34 1
    47   33   35 2
    48   36   37 1
    49   36   38 1
    50   37   38 1
    51   45   46 1
    52    3   47 1
    53    3   48 1
    54    4   49 1
    55    4   50 1
    56    8   51 1
    57   10   52 1
    58   13   53 1
    59   13   54 1
    60   14   55 1
    61   14   56 1
    62   15   57 1
    63   15   58 1
    64   19   59 1
    65   20   60 1
    66   21   61 1
    67   22   62 1
    68   26   63 1
    69   26   64 1
    70   30   65 1
    71   31   66 1
    72   32   67 1
    73   34   68 1
    74   34   69 1
    75   34   70 1
    76   36   71 1
    77   37   72 1
    78   37   73 1
    79   38   74 1
    80   38   75 1
    81   44   76 1
    82   45   77 1
    83   46   78 1
    84   46   79 1
@<TRIPOS>PROPERTY_DATA
  Total_Score	| 10.0474
  Crash		| -1.9735
  Polar		| 4.2662
  FragIndex	| 1
  FragRMSD	| 0.724

