@<TRIPOS>MOLECULE
BindingDB_50259449
 79 84 0 0 0
SMALL
NO_CHARGES


@<TRIPOS>ATOM
1    C       -10.5267  -17.1208   -8.8219  C     
2    O       -11.5047  -16.8862   -7.8805  O     
3    C       -12.7670  -16.2716   -8.2339  C     
4    C       -12.6137  -14.8077   -8.7185  C     
5    O       -11.4925  -14.1979   -8.0636  O     
6    C       -11.6640  -12.8682   -7.8147  C     
7    C       -10.9492  -11.9009   -8.5521  C     
8    C       -11.0324  -10.5389   -8.2011  C     
9    C       -12.5508  -11.1006   -6.3800  C     
10   C       -12.4664  -12.4623   -6.7309  C     
11   N        -4.8761  -20.1847  -11.3290  N     
12   C        -4.1932  -19.0026  -11.8347  C     
13   N        -5.7752  -18.8741  -13.7062  N     
14   C        -5.5901  -20.9415  -12.3537  C     
15   C        -6.2735  -17.5628  -11.6926  C     
16   C        -7.4347  -18.2632  -11.5305  C     
17   C        -8.4477  -17.8774  -10.6352  C     
18   C        -9.7082  -17.4387  -11.1100  C     
19   C       -10.7356  -17.0760  -10.2220  C     
20   C        -9.2783  -17.5624   -8.3438  C     
21   C        -8.2493  -17.9311   -9.2339  C     
22   C        -5.9751  -16.3732  -11.0526  C     
23   O        -5.1200  -16.4836  -10.1753  O     
24   N        -6.5272  -15.1570  -11.2812  N     
25   C        -6.0817  -13.9789  -10.5373  C     
26   C        -4.8359  -13.3240  -11.0675  C     
27   C        -3.5373  -13.4581  -10.4879  C     
28   C        -2.4280  -12.7574  -11.0359  C     
29   C        -2.6091  -11.9142  -12.1500  C     
30   C        -3.8745  -11.7687  -12.7288  C     
31   C        -4.9710  -12.4635  -12.1880  C     
32   C        -4.8878  -20.5445  -10.0274  C     
33   C        -4.1897  -19.8414   -8.9599  C     
34   O        -5.5047  -21.5398   -9.6675  O     
35   C        -7.7650  -15.0286  -12.0282  C     
36   C        -7.8842  -14.1498  -13.2883  C     
37   C        -7.8976  -15.6692  -13.4283  C     
38   Cl       -3.2753  -14.4017   -9.0953  Cl    
39   Cl       -0.8579  -12.8494  -10.4005  Cl    
40   C       -11.8243  -10.1395   -7.1043  C     
41   Cl      -11.8626   -8.5158   -6.6210  Cl    
42   C        -5.2084  -18.0789  -12.5889  C     
43   C        -6.5381  -20.0262  -13.1829  C     
44   C        -7.7286  -19.4581  -12.3594  C     
45   H       -13.2921  -16.8560   -8.9958  H     
46   H       -13.3883  -16.2757   -7.3292  H     
47   H       -12.4766  -14.8072   -9.8076  H     
48   H       -13.5483  -14.2812   -8.4925  H     
49   H       -10.3562  -12.1942   -9.3315  H     
50   H       -10.4946   -9.8497   -8.7304  H     
51   H       -13.1120  -10.8219   -5.5723  H     
52   H       -12.9762  -13.1515   -6.1785  H     
53   H        -3.6793  -18.4153  -11.0740  H     
54   H        -3.4192  -19.3209  -12.5402  H     
55   H        -6.3963  -18.2946  -14.2700  H     
56   H        -5.0269  -19.2252  -14.3000  H     
57   H        -4.8514  -21.3724  -13.0335  H     
58   H        -6.1769  -21.7756  -11.9587  H     
59   H        -9.9076  -17.3590  -12.1090  H     
60   H       -11.6453  -16.7823  -10.5955  H     
61   H        -9.1099  -17.6344   -7.3359  H     
62   H        -7.3635  -18.2600   -8.8523  H     
63   H        -6.8719  -13.2178  -10.5101  H     
64   H        -5.9644  -14.2630   -9.4928  H     
65   H        -1.8266  -11.3850  -12.5427  H     
66   H        -4.0081  -11.1403  -13.5258  H     
67   H        -5.8793  -12.3199  -12.6269  H     
68   H        -3.1200  -19.8019   -9.1785  H     
69   H        -4.3136  -20.3311   -7.9889  H     
70   H        -4.5786  -18.8268   -8.8682  H     
71   H        -8.6808  -15.0181  -11.4348  H     
72   H        -8.8513  -13.7012  -13.4873  H     
73   H        -7.0031  -13.6892  -13.7248  H     
74   H        -6.9854  -16.0779  -13.8700  H     
75   H        -8.8606  -16.1139  -13.6743  H     
76   H        -4.6569  -17.2552  -13.0545  H     
77   H        -6.9290  -20.5999  -14.0276  H     
78   H        -8.1230  -20.2600  -11.7319  H     
79   H        -8.5088  -19.2003  -13.0769  H     
@<TRIPOS>BOND
     1    1    2 1
     2    1   19 2
     3    1   20 1
     4    2    3 1
     5    3    4 1
     6    4    5 1
     7    5    6 1
     8    6    7 2
     9    6   10 1
    10    7    8 1
    11    8   40 2
    12    9   10 2
    13    9   40 1
    14   11   12 1
    15   11   14 1
    16   11   32 am
    17   12   42 1
    18   13   42 1
    19   13   43 1
    20   14   43 1
    21   15   16 2
    22   15   22 1
    23   15   42 1
    24   16   17 1
    25   16   44 1
    26   17   18 2
    27   17   21 1
    28   18   19 1
    29   20   21 2
    30   22   23 2
    31   22   24 am
    32   24   25 1
    33   24   35 1
    34   25   26 1
    35   26   27 2
    36   26   31 1
    37   27   28 1
    38   27   38 1
    39   28   29 2
    40   28   39 1
    41   29   30 1
    42   30   31 2
    43   32   33 1
    44   32   34 2
    45   35   36 1
    46   35   37 1
    47   36   37 1
    48   40   41 1
    49   43   44 1
    50    3   45 1
    51    3   46 1
    52    4   47 1
    53    4   48 1
    54    7   49 1
    55    8   50 1
    56    9   51 1
    57   10   52 1
    58   12   53 1
    59   12   54 1
    60   13   55 1
    61   13   56 1
    62   14   57 1
    63   14   58 1
    64   18   59 1
    65   19   60 1
    66   20   61 1
    67   21   62 1
    68   25   63 1
    69   25   64 1
    70   29   65 1
    71   30   66 1
    72   31   67 1
    73   33   68 1
    74   33   69 1
    75   33   70 1
    76   35   71 1
    77   36   72 1
    78   36   73 1
    79   37   74 1
    80   37   75 1
    81   42   76 1
    82   43   77 1
    83   44   78 1
    84   44   79 1
@<TRIPOS>PROPERTY_DATA
  Total_Score	| 10.1644
  Crash		| -2.0145
  Polar		| 4.5541
  FragIndex	| 1
  FragRMSD	| 0.645

