@<TRIPOS>MOLECULE
BindingDB_50259454
 79 84 0 0 0
SMALL
NO_CHARGES


@<TRIPOS>ATOM
1    C        -5.3421  -13.9990   -7.6940  C     
2    O        -4.3210  -13.1527   -7.3542  O     
3    C        -4.7010  -11.8849   -6.7776  C     
4    C        -3.5522  -10.8735   -6.9858  C     
5    O        -2.2996  -11.5870   -6.9334  O     
6    C        -1.1918  -10.7951   -6.7944  C     
7    C        -0.6562  -10.1115   -7.9096  C     
8    C         0.5313   -9.3668   -7.7777  C     
9    C         1.2024   -9.3270   -6.5408  C     
10   C         0.6817  -10.0153   -5.4283  C     
11   C        -0.5119  -10.7566   -5.5561  C     
12   N        -8.8591  -16.9669  -12.1580  N     
13   C       -10.2078  -16.9484  -11.5913  C     
14   N        -9.6368  -18.9145  -10.2098  N     
15   C        -8.2172  -18.2728  -12.1226  C     
16   C        -9.5086  -16.7172   -9.1771  C     
17   C        -8.1494  -16.7938   -9.1389  C     
18   C        -7.3478  -15.7985   -8.5875  C     
19   C        -6.8018  -15.9209   -7.2876  C     
20   C        -5.8044  -15.0314   -6.8469  C     
21   C        -5.8641  -13.8943   -8.9956  C     
22   C        -6.8693  -14.7716   -9.4349  C     
23   C       -10.2181  -16.2960   -8.0806  C     
24   O       -10.1408  -17.0922   -7.1478  O     
25   N       -11.1716  -15.3340   -8.0536  N     
26   C       -11.2081  -14.1883   -8.9520  C     
27   C       -11.2467  -12.8446   -8.2641  C     
28   C       -10.0715  -12.1711   -7.8255  C     
29   C       -10.1571  -10.9565   -7.0989  C     
30   C       -11.4083  -10.3771   -6.8385  C     
31   C       -12.5700  -10.9952   -7.3078  C     
32   C       -12.4901  -12.2099   -8.0142  C     
33   C        -8.2447  -15.8532  -12.6067  C     
34   C        -6.8508  -15.7680  -13.0212  C     
35   O        -8.8319  -14.7756  -12.5925  O     
36   C       -12.2478  -15.4562   -7.0840  C     
37   C       -13.7293  -15.1320   -7.3681  C     
38   C       -13.2572  -16.5778   -7.4265  C     
39   Cl       -8.5410  -12.7839   -8.1988  Cl    
40   Cl       -8.8050  -10.1566   -6.4644  Cl    
41   F        -0.9878  -11.4088   -4.5290  F     
42   F         1.3246   -9.9823   -4.2902  F     
43   F        -1.2455  -10.1722   -9.0757  F     
44   C       -10.2359  -17.5580  -10.1559  C     
45   C        -8.2336  -18.8439  -10.6741  C     
46   C        -7.4303  -17.9702   -9.6652  C     
47   H        -5.6145  -11.4895   -7.2396  H     
48   H        -4.8753  -12.0013   -5.7067  H     
49   H        -3.6866  -10.3915   -7.9608  H     
50   H        -3.5957  -10.1065   -6.2041  H     
51   H         0.9220   -8.8734   -8.5848  H     
52   H         2.0724   -8.7950   -6.4537  H     
53   H       -10.6541  -15.9550  -11.5289  H     
54   H       -10.8589  -17.5400  -12.2411  H     
55   H        -9.6619  -19.3336   -9.2771  H     
56   H       -10.1769  -19.4986  -10.8522  H     
57   H        -8.7687  -18.9533  -12.7773  H     
58   H        -7.1868  -18.2809  -12.4763  H     
59   H        -7.1032  -16.6771   -6.6670  H     
60   H        -5.3912  -15.1613   -5.9212  H     
61   H        -5.5075  -13.1805   -9.6296  H     
62   H        -7.2286  -14.6626  -10.3849  H     
63   H       -10.3488  -14.1878   -9.6270  H     
64   H       -12.0865  -14.3163   -9.5910  H     
65   H       -11.4849   -9.5010   -6.3150  H     
66   H       -13.4833  -10.5742   -7.1239  H     
67   H       -13.3579  -12.6276   -8.3498  H     
68   H        -6.2033  -16.0245  -12.1828  H     
69   H        -6.5739  -14.7622  -13.3578  H     
70   H        -6.6566  -16.4549  -13.8408  H     
71   H       -11.9732  -15.4665   -6.0276  H     
72   H       -14.3346  -14.8727   -6.4972  H     
73   H       -13.9919  -14.7109   -8.3384  H     
74   H       -13.2538  -16.9908   -8.4365  H     
75   H       -13.6274  -17.1943   -6.6089  H     
76   H       -11.2868  -17.6938   -9.8784  H     
77   H        -7.8154  -19.8547  -10.6877  H     
78   H        -6.4878  -17.6740  -10.1367  H     
79   H        -7.1721  -18.5996   -8.8075  H     
@<TRIPOS>BOND
     1    1    2 1
     2    1   20 2
     3    1   21 1
     4    2    3 1
     5    3    4 1
     6    4    5 1
     7    5    6 1
     8    6    7 2
     9    6   11 1
    10    7    8 1
    11    7   43 1
    12    8    9 2
    13    9   10 1
    14   10   11 2
    15   10   42 1
    16   11   41 1
    17   12   13 1
    18   12   15 1
    19   12   33 am
    20   13   44 1
    21   14   44 1
    22   14   45 1
    23   15   45 1
    24   16   17 2
    25   16   23 1
    26   16   44 1
    27   17   18 1
    28   17   46 1
    29   18   19 2
    30   18   22 1
    31   19   20 1
    32   21   22 2
    33   23   24 2
    34   23   25 am
    35   25   26 1
    36   25   36 1
    37   26   27 1
    38   27   28 2
    39   27   32 1
    40   28   29 1
    41   28   39 1
    42   29   30 2
    43   29   40 1
    44   30   31 1
    45   31   32 2
    46   33   34 1
    47   33   35 2
    48   36   37 1
    49   36   38 1
    50   37   38 1
    51   45   46 1
    52    3   47 1
    53    3   48 1
    54    4   49 1
    55    4   50 1
    56    8   51 1
    57    9   52 1
    58   13   53 1
    59   13   54 1
    60   14   55 1
    61   14   56 1
    62   15   57 1
    63   15   58 1
    64   19   59 1
    65   20   60 1
    66   21   61 1
    67   22   62 1
    68   26   63 1
    69   26   64 1
    70   30   65 1
    71   31   66 1
    72   32   67 1
    73   34   68 1
    74   34   69 1
    75   34   70 1
    76   36   71 1
    77   37   72 1
    78   37   73 1
    79   38   74 1
    80   38   75 1
    81   44   76 1
    82   45   77 1
    83   46   78 1
    84   46   79 1
@<TRIPOS>PROPERTY_DATA
  Total_Score	| 2.5495
  Crash		| -5.4236
  Polar		| 0.0000
  FragIndex	| 1
  FragRMSD	| 1.398

