@<TRIPOS>MOLECULE
BindingDB_50259446
 79 84 0 0 0
SMALL
NO_CHARGES


@<TRIPOS>ATOM
1    C        -8.7839  -18.6217   -9.7913  C     
2    O        -9.7639  -19.5743   -9.8732  O     
3    C       -10.8383  -19.2950  -10.7982  C     
4    C       -11.6287  -20.5922  -11.0665  C     
5    O       -10.7498  -21.5380  -11.7061  O     
6    C       -11.3280  -22.7017  -12.1320  C     
7    C       -12.3357  -23.3683  -11.3993  C     
8    C       -12.8540  -24.5947  -11.8555  C     
9    C       -12.3506  -25.1740  -13.0347  C     
10   C       -11.3251  -24.5314  -13.7520  C     
11   C       -10.8115  -23.3042  -13.2945  C     
12   N        -2.3391  -15.1114   -7.8251  N     
13   C        -3.4129  -14.1569   -7.5616  C     
14   N        -3.6098  -13.7806  -10.0080  N     
15   C        -2.0359  -15.4897   -9.1927  C     
16   C        -5.5788  -14.6235   -8.8431  C     
17   C        -5.5215  -15.8261   -9.4916  C     
18   C        -6.6132  -16.7453   -9.5843  C     
19   C        -6.8894  -17.4617  -10.7847  C     
20   C        -7.9262  -18.4013  -10.8802  C     
21   C        -8.5400  -17.9396   -8.5852  C     
22   C        -7.4650  -17.0312   -8.4822  C     
23   C        -6.6897  -14.1177   -8.2022  C     
24   O        -6.5840  -14.1643   -6.9813  O     
25   N        -7.5836  -13.2705   -8.7623  N     
26   C        -8.0911  -12.0919   -8.0209  C     
27   C        -9.5254  -11.6584   -7.7556  C     
28   C       -10.7369  -12.3738   -8.0032  C     
29   C       -12.0041  -11.8050   -7.6960  C     
30   C       -12.0810  -10.5288   -7.1134  C     
31   C       -10.9105   -9.8140   -6.8298  C     
32   C        -9.6656  -10.3778   -7.1481  C     
33   C        -1.5141  -15.4891   -6.8221  C     
34   C        -0.3900  -16.4082   -6.9602  C     
35   O        -1.6754  -15.0462   -5.6913  O     
36   C        -7.9975  -13.3907  -10.1528  C     
37   C        -6.9372  -13.1183  -11.2341  C     
38   C        -7.7599  -14.4035  -11.2966  C     
39   Cl      -10.7441  -13.9383   -8.6417  Cl    
40   Cl      -13.4846  -12.5894   -7.9855  Cl    
41   C        -4.3669  -13.7668   -8.7440  C     
42   C        -3.1086  -15.1391  -10.2576  C     
43   C        -4.3166  -16.1265  -10.3112  C     
44   H       -11.5059  -18.5405  -10.3719  H     
45   H       -10.4739  -18.9259  -11.7617  H     
46   H       -11.9877  -20.9968  -10.1193  H     
47   H       -12.4922  -20.3560  -11.6991  H     
48   H       -12.6888  -22.9691  -10.5282  H     
49   H       -13.5857  -25.0702  -11.3237  H     
50   H       -12.7194  -26.0698  -13.3632  H     
51   H       -10.9421  -24.9601  -14.5982  H     
52   H       -10.0501  -22.8536  -13.8049  H     
53   H        -4.0226  -14.5350   -6.7390  H     
54   H        -2.9403  -13.2342   -7.2087  H     
55   H        -4.2198  -13.4935  -10.7769  H     
56   H        -2.8223  -13.1309   -9.9421  H     
57   H        -1.1124  -14.9728   -9.4728  H     
58   H        -1.8410  -16.5631   -9.2640  H     
59   H        -6.3534  -17.3094  -11.6366  H     
60   H        -8.0649  -18.9137  -11.7550  H     
61   H        -9.1279  -18.1256   -7.7688  H     
62   H        -7.2957  -16.6082   -7.5696  H     
63   H        -7.6262  -12.0570   -7.0320  H     
64   H        -7.6310  -11.2523   -8.5435  H     
65   H       -12.9861  -10.1066   -6.8909  H     
66   H       -10.9640   -8.8842   -6.4079  H     
67   H        -8.8360   -9.8260   -6.9248  H     
68   H        -0.7479  -17.3804   -7.3024  H     
69   H         0.1386  -16.5662   -6.0154  H     
70   H         0.3283  -16.0148   -7.6796  H     
71   H        -8.9192  -12.8865  -10.3565  H     
72   H        -7.1884  -12.3914  -12.0103  H     
73   H        -5.8928  -13.2758  -10.9631  H     
74   H        -7.1419  -15.2829  -11.1918  H     
75   H        -8.4829  -14.4004  -12.1156  H     
76   H        -4.6580  -12.7185   -8.6010  H     
77   H        -2.6102  -15.1376  -11.2335  H     
78   H        -3.9713  -17.1381  -10.0789  H     
79   H        -4.6010  -16.1182  -11.3619  H     
@<TRIPOS>BOND
     1    1    2 1
     2    1   20 2
     3    1   21 1
     4    2    3 1
     5    3    4 1
     6    4    5 1
     7    5    6 1
     8    6    7 2
     9    6   11 1
    10    7    8 1
    11    8    9 2
    12    9   10 1
    13   10   11 2
    14   12   13 1
    15   12   15 1
    16   12   33 am
    17   13   41 1
    18   14   41 1
    19   14   42 1
    20   15   42 1
    21   16   17 2
    22   16   23 1
    23   16   41 1
    24   17   18 1
    25   17   43 1
    26   18   19 2
    27   18   22 1
    28   19   20 1
    29   21   22 2
    30   23   24 2
    31   23   25 am
    32   25   26 1
    33   25   36 1
    34   26   27 1
    35   27   28 2
    36   27   32 1
    37   28   29 1
    38   28   39 1
    39   29   30 2
    40   29   40 1
    41   30   31 1
    42   31   32 2
    43   33   34 1
    44   33   35 2
    45   36   37 1
    46   36   38 1
    47   37   38 1
    48   42   43 1
    49    3   44 1
    50    3   45 1
    51    4   46 1
    52    4   47 1
    53    7   48 1
    54    8   49 1
    55    9   50 1
    56   10   51 1
    57   11   52 1
    58   13   53 1
    59   13   54 1
    60   14   55 1
    61   14   56 1
    62   15   57 1
    63   15   58 1
    64   19   59 1
    65   20   60 1
    66   21   61 1
    67   22   62 1
    68   26   63 1
    69   26   64 1
    70   30   65 1
    71   31   66 1
    72   32   67 1
    73   34   68 1
    74   34   69 1
    75   34   70 1
    76   36   71 1
    77   37   72 1
    78   37   73 1
    79   38   74 1
    80   38   75 1
    81   41   76 1
    82   42   77 1
    83   43   78 1
    84   43   79 1
@<TRIPOS>PROPERTY_DATA
  Total_Score	| 2.2634
  Crash		| -4.1363
  Polar		| 0.0044
  FragIndex	| 1
  FragRMSD	| 1.308

