@<TRIPOS>MOLECULE
BindingDB_50259457
 85 90 0 0 0
SMALL
NO_CHARGES


@<TRIPOS>ATOM
1    C       -10.5792  -17.0282   -9.1273  C     
2    O       -11.4867  -16.5292   -8.2160  O     
3    C       -12.7876  -16.0119   -8.5535  C     
4    C       -13.0992  -14.7436   -7.7338  C     
5    O       -12.7760  -13.5792   -8.5342  O     
6    C       -12.2945  -12.4452   -7.9185  C     
7    C       -13.1550  -11.4618   -7.3861  C     
8    C       -12.6174  -10.2976   -6.8157  C     
9    C       -11.2287  -10.0491   -6.8184  C     
10   C       -10.3557  -10.9957   -7.4360  C     
11   C       -10.9026  -12.2012   -7.9605  C     
12   N        -4.8247  -20.1944  -11.4120  N     
13   C        -4.1147  -18.9848  -11.8092  C     
14   N        -5.5624  -18.7723  -13.7764  N     
15   C        -5.4674  -20.9026  -12.5182  C     
16   C        -6.1952  -17.5530  -11.7341  C     
17   C        -7.3690  -18.2568  -11.6811  C     
18   C        -8.4427  -17.9085  -10.8273  C     
19   C        -9.7479  -17.6767  -11.3358  C     
20   C       -10.8023  -17.2626  -10.5035  C     
21   C        -9.3086  -17.3282   -8.6027  C     
22   C        -8.2603  -17.7844   -9.4253  C     
23   C        -5.9711  -16.3836  -11.0310  C     
24   O        -5.0368  -16.4393  -10.2397  O     
25   N        -6.6736  -15.2397  -11.1455  N     
26   C        -6.4357  -14.1049  -10.2627  C     
27   C        -5.1741  -13.3349  -10.5128  C     
28   C        -4.6066  -12.4207   -9.5720  C     
29   C        -3.3942  -11.7442   -9.8758  C     
30   C        -2.7680  -11.9481  -11.1158  C     
31   C        -3.3199  -12.8364  -12.0501  C     
32   C        -4.5146  -13.5125  -11.7524  C     
33   C        -4.9187  -20.6158  -10.1319  C     
34   C        -4.3071  -19.9521   -8.9878  C     
35   O        -5.5586  -21.6263   -9.8573  O     
36   C        -7.8271  -15.1373  -12.0013  C     
37   C        -7.8234  -14.0395  -13.0849  C     
38   C        -7.7622  -15.5097  -13.4880  C     
39   Cl       -5.3548  -12.0978   -8.0747  Cl    
40   Cl       -2.6536  -10.6496   -8.8076  Cl    
41   Cl       -9.9360  -13.3959   -8.6875  Cl    
42   Cl      -14.8417  -11.5877   -7.4808  Cl    
43   C        -8.9034  -10.6853   -7.5400  C     
44   C       -10.7525   -8.7658   -6.2237  C     
45   C        -5.0744  -18.0272  -12.5840  C     
46   C        -6.3604  -19.9399  -13.3570  C     
47   C        -7.6022  -19.3993  -12.5952  C     
48   H       -12.9002  -15.7487   -9.6037  H     
49   H       -13.5246  -16.7777   -8.3180  H     
50   H       -14.1785  -14.7258   -7.5484  H     
51   H       -12.5773  -14.7757   -6.7625  H     
52   H       -13.2586   -9.6061   -6.4226  H     
53   H        -3.6560  -18.4384  -10.9818  H     
54   H        -3.2921  -19.2708  -12.4735  H     
55   H        -6.1415  -18.1630  -14.3581  H     
56   H        -4.7671  -19.1018  -14.3320  H     
57   H        -4.6851  -21.3085  -13.1654  H     
58   H        -6.0798  -21.7538  -12.2025  H     
59   H        -9.9520  -17.7818  -12.3336  H     
60   H       -11.7237  -17.1227  -10.9260  H     
61   H        -9.1312  -17.2050   -7.6025  H     
62   H        -7.3602  -18.0119   -8.9902  H     
63   H        -7.2609  -13.3762  -10.3135  H     
64   H        -6.4556  -14.5065   -9.2497  H     
65   H        -1.9062  -11.4505  -11.3517  H     
66   H        -2.8587  -12.9840  -12.9500  H     
67   H        -4.8786  -14.1583  -12.4557  H     
68   H        -3.2252  -19.8939   -9.1207  H     
69   H        -4.4995  -20.4817   -8.0495  H     
70   H        -4.7183  -18.9469   -8.8861  H     
71   H        -8.8039  -15.2534  -11.5288  H     
72   H        -8.7760  -13.5409  -13.2626  H     
73   H        -6.8969  -13.4776  -13.1745  H     
74   H        -6.8024  -15.8515  -13.8658  H     
75   H        -8.6776  -15.9473  -13.8624  H     
76   H        -8.7791   -9.7284   -8.0486  H     
77   H        -8.3279  -11.4099   -8.1026  H     
78   H        -8.4616  -10.6122   -6.5445  H     
79   H       -10.4573   -8.0783   -7.0308  H     
80   H        -9.8968   -8.9386   -5.5522  H     
81   H       -11.5268   -8.2676   -5.6244  H     
82   H        -4.4870  -17.1828  -12.9650  H     
83   H        -6.6884  -20.4705  -14.2565  H     
84   H        -8.0585  -20.2276  -12.0466  H     
85   H        -8.3137  -19.0906  -13.3622  H     
@<TRIPOS>BOND
     1    1    2 1
     2    1   20 2
     3    1   21 1
     4    2    3 1
     5    3    4 1
     6    4    5 1
     7    5    6 1
     8    6    7 2
     9    6   11 1
    10    7    8 1
    11    7   42 1
    12    8    9 2
    13    9   10 1
    14    9   44 1
    15   10   11 2
    16   10   43 1
    17   11   41 1
    18   12   13 1
    19   12   15 1
    20   12   33 am
    21   13   45 1
    22   14   45 1
    23   14   46 1
    24   15   46 1
    25   16   17 2
    26   16   23 1
    27   16   45 1
    28   17   18 1
    29   17   47 1
    30   18   19 2
    31   18   22 1
    32   19   20 1
    33   21   22 2
    34   23   24 2
    35   23   25 am
    36   25   26 1
    37   25   36 1
    38   26   27 1
    39   27   28 2
    40   27   32 1
    41   28   29 1
    42   28   39 1
    43   29   30 2
    44   29   40 1
    45   30   31 1
    46   31   32 2
    47   33   34 1
    48   33   35 2
    49   36   37 1
    50   36   38 1
    51   37   38 1
    52   46   47 1
    53    3   48 1
    54    3   49 1
    55    4   50 1
    56    4   51 1
    57    8   52 1
    58   13   53 1
    59   13   54 1
    60   14   55 1
    61   14   56 1
    62   15   57 1
    63   15   58 1
    64   19   59 1
    65   20   60 1
    66   21   61 1
    67   22   62 1
    68   26   63 1
    69   26   64 1
    70   30   65 1
    71   31   66 1
    72   32   67 1
    73   34   68 1
    74   34   69 1
    75   34   70 1
    76   36   71 1
    77   37   72 1
    78   37   73 1
    79   38   74 1
    80   38   75 1
    81   43   76 1
    82   43   77 1
    83   43   78 1
    84   44   79 1
    85   44   80 1
    86   44   81 1
    87   45   82 1
    88   46   83 1
    89   47   84 1
    90   47   85 1
@<TRIPOS>PROPERTY_DATA
  Total_Score	| 12.2626
  Crash		| -1.7966
  Polar		| 3.5677
  FragIndex	| 1
  FragRMSD	| 0.386

