@<TRIPOS>MOLECULE
BindingDB_50259456
 79 84 0 0 0
SMALL
NO_CHARGES


@<TRIPOS>ATOM
1    C       -10.8739  -17.2503   -9.3765  C     
2    O       -11.9666  -16.9086   -8.6229  O     
3    C       -12.5073  -15.5914   -8.8676  C     
4    C       -11.6100  -14.4412   -8.3566  C     
5    O       -12.2449  -13.1789   -8.6341  O     
6    C       -11.6936  -12.0480   -8.0839  C     
7    C       -10.3068  -11.7690   -8.1515  C     
8    C        -9.7856  -10.5776   -7.6156  C     
9    C       -10.6465   -9.6400   -7.0220  C     
10   C       -12.0319   -9.8879   -6.9717  C     
11   C       -12.5578  -11.0860   -7.5071  C     
12   N        -4.7576  -20.0960  -11.3538  N     
13   C        -4.1220  -18.8539  -11.7677  C     
14   N        -5.5859  -18.7489  -13.7310  N     
15   C        -5.3336  -20.8590  -12.4568  C     
16   C        -6.2887  -17.5212  -11.7309  C     
17   C        -7.4350  -18.2693  -11.6908  C     
18   C        -8.5685  -17.9318  -10.9202  C     
19   C        -9.8072  -17.6199  -11.5408  C     
20   C       -10.9461  -17.2956  -10.7818  C     
21   C        -9.6582  -17.5720   -8.7448  C     
22   C        -8.5208  -17.9095   -9.5056  C     
23   C        -6.1013  -16.3440  -11.0230  C     
24   O        -5.1838  -16.4101  -10.2126  O     
25   N        -6.7625  -15.1721  -11.1828  N     
26   C        -6.4930  -13.9308  -10.4463  C     
27   C        -5.5038  -13.8823   -9.3210  C     
28   C        -4.3202  -13.0804   -9.3178  C     
29   C        -3.4115  -13.1596   -8.2346  C     
30   C        -3.6836  -14.0205   -7.1521  C     
31   C        -4.8639  -14.7759   -7.1255  C     
32   C        -5.7743  -14.6877   -8.1905  C     
33   C        -4.8338  -20.4726  -10.0624  C     
34   C        -5.4499  -21.7032   -9.5947  C     
35   O        -4.3554  -19.7657   -9.1798  O     
36   C        -7.9092  -15.0850  -12.0596  C     
37   C        -7.9164  -14.0442  -13.2068  C     
38   C        -7.8605  -15.5356  -13.5315  C     
39   Cl       -3.9358  -12.0548  -10.6231  Cl    
40   Cl       -1.9605  -12.2765   -8.1714  Cl    
41   F       -12.8048   -8.9858   -6.4247  F     
42   F        -9.4813  -12.5993   -8.7251  F     
43   Cl      -14.2362  -11.3591   -7.4691  Cl    
44   C        -5.1357  -17.9623  -12.5541  C     
45   C        -6.3004  -19.9625  -13.2899  C     
46   C        -7.5658  -19.4996  -12.5139  C     
47   H       -12.7099  -15.4541   -9.9395  H     
48   H       -13.4683  -15.5250   -8.3544  H     
49   H       -11.4200  -14.5816   -7.2861  H     
50   H       -10.6581  -14.4742   -8.8897  H     
51   H        -8.7807  -10.3880   -7.6617  H     
52   H       -10.2639   -8.7733   -6.6379  H     
53   H        -3.6918  -18.2782  -10.9449  H     
54   H        -3.2813  -19.0985  -12.4226  H     
55   H        -6.2037  -18.1816  -14.3112  H     
56   H        -4.7723  -19.0254  -14.2849  H     
57   H        -4.5225  -21.1922  -13.1069  H     
58   H        -5.8755  -21.7545  -12.1555  H     
59   H        -9.8944  -17.5962  -12.5573  H     
60   H       -11.8243  -17.0812  -11.2585  H     
61   H        -9.5976  -17.5548   -7.7250  H     
62   H        -7.6589  -18.1481   -9.0105  H     
63   H        -6.2245  -13.1814  -11.1912  H     
64   H        -7.4312  -13.5714  -10.0148  H     
65   H        -3.0158  -14.1048   -6.3857  H     
66   H        -5.0521  -15.4084   -6.3419  H     
67   H        -6.6257  -15.2549   -8.1433  H     
68   H        -6.5077  -21.7121   -9.8569  H     
69   H        -5.3790  -21.8144   -8.5060  H     
70   H        -4.9514  -22.5593  -10.0478  H     
71   H        -8.8878  -15.1414  -11.5789  H     
72   H        -8.8737  -13.5731  -13.4380  H     
73   H        -6.9921  -13.5190  -13.4455  H     
74   H        -6.8981  -15.8898  -13.8997  H     
75   H        -8.7862  -15.9801  -13.9011  H     
76   H        -4.5947  -17.0989  -12.9566  H     
77   H        -6.6054  -20.5229  -14.1801  H     
78   H        -7.9073  -20.3235  -11.8765  H     
79   H        -8.3410  -19.3359  -13.2697  H     
@<TRIPOS>BOND
     1    1    2 1
     2    1   20 2
     3    1   21 1
     4    2    3 1
     5    3    4 1
     6    4    5 1
     7    5    6 1
     8    6    7 2
     9    6   11 1
    10    7    8 1
    11    7   42 1
    12    8    9 2
    13    9   10 1
    14   10   11 2
    15   10   41 1
    16   11   43 1
    17   12   13 1
    18   12   15 1
    19   12   33 am
    20   13   44 1
    21   14   44 1
    22   14   45 1
    23   15   45 1
    24   16   17 2
    25   16   23 1
    26   16   44 1
    27   17   18 1
    28   17   46 1
    29   18   19 2
    30   18   22 1
    31   19   20 1
    32   21   22 2
    33   23   24 2
    34   23   25 am
    35   25   26 1
    36   25   36 1
    37   26   27 1
    38   27   28 2
    39   27   32 1
    40   28   29 1
    41   28   39 1
    42   29   30 2
    43   29   40 1
    44   30   31 1
    45   31   32 2
    46   33   34 1
    47   33   35 2
    48   36   37 1
    49   36   38 1
    50   37   38 1
    51   45   46 1
    52    3   47 1
    53    3   48 1
    54    4   49 1
    55    4   50 1
    56    8   51 1
    57    9   52 1
    58   13   53 1
    59   13   54 1
    60   14   55 1
    61   14   56 1
    62   15   57 1
    63   15   58 1
    64   19   59 1
    65   20   60 1
    66   21   61 1
    67   22   62 1
    68   26   63 1
    69   26   64 1
    70   30   65 1
    71   31   66 1
    72   32   67 1
    73   34   68 1
    74   34   69 1
    75   34   70 1
    76   36   71 1
    77   37   72 1
    78   37   73 1
    79   38   74 1
    80   38   75 1
    81   44   76 1
    82   45   77 1
    83   46   78 1
    84   46   79 1
@<TRIPOS>PROPERTY_DATA
  Total_Score	| 9.9810
  Crash		| -1.5095
  Polar		| 3.5514
  FragIndex	| 1
  FragRMSD	| 0.414

