@<TRIPOS>MOLECULE
BindingDB_50330355
 84 89 0 0 0
SMALL
NO_CHARGES


@<TRIPOS>ATOM
1    O        -5.0747  -16.5813  -10.0952  O     
2    C        -5.8429  -16.3490  -11.0217  C     
3    N        -6.1292  -15.0716  -11.3458  N     
4    C        -5.2594  -13.9747  -10.9152  C     
5    C        -5.2162  -13.5082   -9.4909  C     
6    C        -5.9626  -14.1954   -8.5128  C     
7    C        -6.0475  -13.7246   -7.2004  C     
8    C        -5.3846  -12.5441   -6.8336  C     
9    C        -4.5324  -11.8780   -7.7415  C     
10   C        -3.8579  -10.6560   -7.2009  C     
11   C        -4.4650  -12.3431   -9.0966  C     
12   C        -3.6846  -11.5994  -10.1384  C     
13   C        -7.2742  -14.7979  -12.1997  C     
14   C        -7.7249  -13.4958  -12.9067  C     
15   C        -6.8989  -14.5289  -13.6693  C     
16   C        -6.1858  -17.4662  -11.7534  C     
17   C        -5.1598  -17.9365  -12.7192  C     
18   N        -5.7351  -18.8090  -13.7769  N     
19   C        -4.0246  -18.7684  -12.0482  C     
20   N        -4.5759  -20.0089  -11.4521  N     
21   C        -5.3711  -20.8275  -12.3976  C     
22   C        -6.4182  -19.9697  -13.1741  C     
23   C        -7.5911  -19.4210  -12.3132  C     
24   C        -7.3551  -18.1516  -11.5900  C     
25   C        -8.4155  -17.7307  -10.7607  C     
26   C        -8.2598  -17.5832   -9.3637  C     
27   C        -9.3569  -17.2596   -8.5387  C     
28   C        -9.7079  -17.5207  -11.3091  C     
29   C       -10.8085  -17.2174  -10.4857  C     
30   C       -10.6410  -17.0733   -9.0905  C     
31   O       -11.7192  -16.9666   -8.2427  O     
32   C       -12.6638  -15.8897   -8.4460  C     
33   C       -12.2926  -14.5814   -7.6918  C     
34   O       -12.2313  -13.4778   -8.6207  O     
35   C       -11.8259  -12.2962   -8.0458  C     
36   C       -10.4497  -11.9734   -7.9876  C     
37   Cl       -9.2840  -13.0288   -8.6277  Cl    
38   C       -10.0432  -10.7673   -7.3841  C     
39   C       -10.9905   -9.8640   -6.8456  C     
40   C       -10.5267   -8.6100   -6.2120  C     
41   C       -12.3663  -10.1763   -6.9396  C     
42   C       -12.7818  -11.3768   -7.5495  C     
43   Cl      -14.4468  -11.6840   -7.6770  Cl    
44   H        -4.2415  -14.2518  -11.2130  H     
45   H        -5.5082  -13.0795  -11.4852  H     
46   H        -6.4983  -15.0254   -8.7593  H     
47   H        -6.6186  -14.2240   -6.5128  H     
48   H        -5.4908  -12.2225   -5.8637  H     
49   H        -2.8986  -10.4431   -7.6747  H     
50   H        -3.6453  -10.7678   -6.1325  H     
51   H        -4.5309   -9.7933   -7.3164  H     
52   H        -2.9115  -12.2559  -10.5394  H     
53   H        -3.1882  -10.7020   -9.7953  H     
54   H        -4.3370  -11.2850  -10.9480  H     
55   H        -8.1339  -15.4484  -12.0662  H     
56   H        -8.7703  -13.4548  -13.2264  H     
57   H        -7.2148  -12.5580  -12.7065  H     
58   H        -5.8606  -14.2491  -13.8392  H     
59   H        -7.4117  -15.1683  -14.3867  H     
60   H        -4.7103  -17.0861  -13.2419  H     
61   H        -6.4037  -18.2804  -14.3437  H     
62   H        -4.9874  -19.1518  -14.3854  H     
63   H        -3.2726  -19.0442  -12.7921  H     
64   H        -3.5188  -18.1973  -11.2747  H     
65   H        -3.8051  -20.5784  -11.0936  H     
66   H        -5.1762  -19.7451  -10.6660  H     
67   H        -4.6873  -21.2959  -13.1106  H     
68   H        -5.8745  -21.6201  -11.8394  H     
69   H        -6.8294  -20.5868  -13.9763  H     
70   H        -8.4376  -19.2925  -12.9977  H     
71   H        -7.8859  -20.2025  -11.5924  H     
72   H        -7.3503  -17.7537   -8.9266  H     
73   H        -9.2239  -17.2069   -7.5269  H     
74   H        -9.8647  -17.5957  -12.3183  H     
75   H       -11.7439  -17.1421  -10.8975  H     
76   H       -12.8302  -15.7032   -9.5095  H     
77   H       -13.6129  -16.2561   -8.0500  H     
78   H       -13.0538  -14.3897   -6.9242  H     
79   H       -11.3286  -14.7001   -7.1777  H     
80   H        -9.0450  -10.5424   -7.3458  H     
81   H        -9.8784   -8.8470   -5.3627  H     
82   H       -11.3603   -8.0005   -5.8489  H     
83   H        -9.9616   -8.0166   -6.9341  H     
84   H       -13.0685   -9.5276   -6.5712  H     
@<TRIPOS>BOND
     1    1    2 2
     2    2    3 am
     3    2   16 1
     4    3    4 1
     5    3   13 1
     6    4    5 1
     7    5    6 1
     8    5   11 2
     9    6    7 2
    10    7    8 1
    11    8    9 2
    12    9   10 1
    13    9   11 1
    14   11   12 1
    15   13   14 1
    16   13   15 1
    17   14   15 1
    18   16   17 1
    19   16   24 2
    20   17   18 1
    21   17   19 1
    22   22   18 1
    23   19   20 1
    24   20   21 1
    25   21   22 1
    26   22   23 1
    27   23   24 1
    28   24   25 1
    29   25   26 1
    30   25   28 2
    31   26   27 2
    32   27   30 1
    33   28   29 1
    34   29   30 2
    35   30   31 1
    36   31   32 1
    37   32   33 1
    38   33   34 1
    39   34   35 1
    40   35   36 1
    41   35   42 2
    42   36   37 1
    43   36   38 2
    44   38   39 1
    45   39   40 1
    46   39   41 2
    47   41   42 1
    48   42   43 1
    49    4   44 1
    50    4   45 1
    51    6   46 1
    52    7   47 1
    53    8   48 1
    54   10   49 1
    55   10   50 1
    56   10   51 1
    57   12   52 1
    58   12   53 1
    59   12   54 1
    60   13   55 1
    61   14   56 1
    62   14   57 1
    63   15   58 1
    64   15   59 1
    65   17   60 1
    66   18   61 1
    67   18   62 1
    68   19   63 1
    69   19   64 1
    70   20   65 1
    71   20   66 1
    72   21   67 1
    73   21   68 1
    74   22   69 1
    75   23   70 1
    76   23   71 1
    77   26   72 1
    78   27   73 1
    79   28   74 1
    80   29   75 1
    81   32   76 1
    82   32   77 1
    83   33   78 1
    84   33   79 1
    85   38   80 1
    86   40   81 1
    87   40   82 1
    88   40   83 1
    89   41   84 1
@<TRIPOS>PROPERTY_DATA
  Total_Score	| 12.0328
  Crash		| -1.2467
  Polar		| 3.7740
  FragIndex	| 1
  FragRMSD	| 0.233

