@<TRIPOS>MOLECULE
BindingDB_50259448
 79 84 0 0 0
SMALL
NO_CHARGES


@<TRIPOS>ATOM
1    C       -10.3608  -17.2977   -8.6590  C     
2    O       -11.2442  -16.9523   -7.6526  O     
3    C       -12.5950  -16.4878   -7.8835  C     
4    C       -12.7824  -15.1428   -8.6491  C     
5    O       -11.7391  -14.1912   -8.3736  O     
6    C       -11.9857  -12.8806   -8.0060  C     
7    C       -10.8640  -12.1757   -7.5246  C     
8    C       -12.2588  -10.2202   -7.0474  C     
9    C       -13.3705  -10.8844   -7.5876  C     
10   C       -13.2233  -12.1967   -8.0911  C     
11   N        -4.7568  -20.2201  -11.4966  N     
12   C        -4.0964  -18.9715  -11.8703  C     
13   N        -5.6346  -18.7385  -13.7651  N     
14   C        -5.4001  -20.9037  -12.6125  C     
15   C        -6.1907  -17.5413  -11.6958  C     
16   C        -7.3307  -18.2804  -11.5436  C     
17   C        -8.3466  -17.9938  -10.5938  C     
18   C        -8.0650  -17.9404   -9.2011  C     
19   C        -9.0422  -17.5848   -8.2558  C     
20   C       -10.6879  -17.4451  -10.0277  C     
21   C        -9.7000  -17.7660  -10.9750  C     
22   C        -5.9605  -16.3454  -11.0463  C     
23   O        -4.9933  -16.3631  -10.2904  O     
24   N        -6.6541  -15.1941  -11.1805  N     
25   C        -6.2938  -14.0095  -10.4017  C     
26   C        -5.0062  -13.3173  -10.7447  C     
27   C        -4.3183  -12.4708   -9.8172  C     
28   C        -3.1467  -11.7807  -10.2241  C     
29   C        -2.6674  -11.9119  -11.5451  C     
30   C        -3.3390  -12.7328  -12.4599  C     
31   C        -4.4930  -13.4197  -12.0643  C     
32   C        -4.8456  -20.6797  -10.2334  C     
33   C        -4.3328  -19.9876   -9.0652  C     
34   O        -5.4297  -21.7334   -9.9917  O     
35   C        -7.8529  -15.0994  -11.9816  C     
36   C        -7.9614  -14.0421  -13.1035  C     
37   C        -7.8271  -15.5198  -13.4619  C     
38   Cl       -4.8800  -12.2642   -8.2162  Cl    
39   Cl       -2.2740  -10.7586   -9.1852  Cl    
40   C       -11.0041  -10.8608   -7.0317  C     
41   Cl       -9.6697  -10.0575   -6.3748  Cl    
42   C        -5.0953  -18.0068  -12.5915  C     
43   C        -6.3831  -19.9340  -13.3304  C     
44   C        -7.5602  -19.4499  -12.4264  C     
45   H       -13.1639  -17.2699   -8.3984  H     
46   H       -13.0671  -16.3751   -6.8914  H     
47   H       -12.7451  -15.3527   -9.7271  H     
48   H       -13.7963  -14.7645   -8.4013  H     
49   H        -9.9506  -12.6308   -7.4813  H     
50   H       -12.3798   -9.2738   -6.6591  H     
51   H       -14.2826  -10.4234   -7.6230  H     
52   H       -14.0280  -12.6375   -8.5343  H     
53   H        -3.6329  -18.4447  -11.0363  H     
54   H        -3.2797  -19.2106  -12.5603  H     
55   H        -6.2504  -18.1304  -14.3062  H     
56   H        -4.8629  -19.0306  -14.3682  H     
57   H        -4.6313  -21.2248  -13.3202  H     
58   H        -5.9512  -21.8057  -12.3322  H     
59   H        -7.1451  -18.1864   -8.8460  H     
60   H        -8.7881  -17.5566   -7.2680  H     
61   H       -11.6424  -17.3119  -10.3500  H     
62   H        -9.9857  -17.8111  -11.9575  H     
63   H        -7.0671  -13.2418  -10.4656  H     
64   H        -6.2824  -14.3233   -9.3572  H     
65   H        -1.8313  -11.4123  -11.8612  H     
66   H        -2.9887  -12.8253  -13.4176  H     
67   H        -4.9645  -13.9901  -12.7677  H     
68   H        -3.2512  -19.8809   -9.1467  H     
69   H        -4.5445  -20.5220   -8.1353  H     
70   H        -4.7879  -18.9992   -8.9889  H     
71   H        -8.7995  -15.2762  -11.4743  H     
72   H        -8.9483  -13.6369  -13.3137  H     
73   H        -7.0774  -13.4539  -13.3369  H     
74   H        -6.8589  -15.8204  -13.8563  H     
75   H        -8.7320  -16.0277  -13.7918  H     
76   H        -4.5191  -17.1654  -13.0005  H     
77   H        -6.7823  -20.4415  -14.2143  H     
78   H        -7.9124  -20.3040  -11.8348  H     
79   H        -8.3630  -19.1825  -13.1149  H     
@<TRIPOS>BOND
     1    1    2 1
     2    1   19 2
     3    1   20 1
     4    2    3 1
     5    3    4 1
     6    4    5 1
     7    5    6 1
     8    6    7 2
     9    6   10 1
    10    7   40 1
    11    8    9 1
    12    8   40 2
    13    9   10 2
    14   11   12 1
    15   11   14 1
    16   11   32 am
    17   12   42 1
    18   13   42 1
    19   13   43 1
    20   14   43 1
    21   15   16 2
    22   15   22 1
    23   15   42 1
    24   16   17 1
    25   16   44 1
    26   17   18 2
    27   17   21 1
    28   18   19 1
    29   20   21 2
    30   22   23 2
    31   22   24 am
    32   24   25 1
    33   24   35 1
    34   25   26 1
    35   26   27 2
    36   26   31 1
    37   27   28 1
    38   27   38 1
    39   28   29 2
    40   28   39 1
    41   29   30 1
    42   30   31 2
    43   32   33 1
    44   32   34 2
    45   35   36 1
    46   35   37 1
    47   36   37 1
    48   40   41 1
    49   43   44 1
    50    3   45 1
    51    3   46 1
    52    4   47 1
    53    4   48 1
    54    7   49 1
    55    8   50 1
    56    9   51 1
    57   10   52 1
    58   12   53 1
    59   12   54 1
    60   13   55 1
    61   13   56 1
    62   14   57 1
    63   14   58 1
    64   18   59 1
    65   19   60 1
    66   20   61 1
    67   21   62 1
    68   25   63 1
    69   25   64 1
    70   29   65 1
    71   30   66 1
    72   31   67 1
    73   33   68 1
    74   33   69 1
    75   33   70 1
    76   35   71 1
    77   36   72 1
    78   36   73 1
    79   37   74 1
    80   37   75 1
    81   42   76 1
    82   43   77 1
    83   44   78 1
    84   44   79 1
@<TRIPOS>PROPERTY_DATA
  Total_Score	| 10.2075
  Crash		| -1.3320
  Polar		| 3.7601
  FragIndex	| 1
  FragRMSD	| 0.707

