@<TRIPOS>MOLECULE
BindingDB_50259452
 82 87 0 0 0
SMALL
NO_CHARGES


@<TRIPOS>ATOM
1    C       -10.7237  -17.2276   -9.1497  C     
2    O       -11.8008  -16.9472   -8.3389  O     
3    C       -12.5564  -15.7643   -8.6731  C     
4    C       -12.1804  -14.5541   -7.7838  C     
5    O       -12.1961  -13.3626   -8.5987  O     
6    C       -11.7865  -12.2123   -7.9763  C     
7    C       -10.4162  -11.8616   -7.9110  C     
8    C       -10.0179  -10.6362   -7.3547  C     
9    C       -10.9767   -9.7141   -6.8715  C     
10   C       -12.3458  -10.0570   -6.9631  C     
11   C       -12.7481  -11.2856   -7.5145  C     
12   N        -4.7325  -20.1042  -11.3496  N     
13   C        -4.1099  -18.8769  -11.8340  C     
14   N        -5.6289  -18.8304  -13.7541  N     
15   C        -5.3779  -20.8902  -12.3988  C     
16   C        -6.2620  -17.5355  -11.7593  C     
17   C        -7.4105  -18.2726  -11.6518  C     
18   C        -8.4984  -17.9159  -10.8171  C     
19   C        -9.7976  -17.7298  -11.3575  C     
20   C       -10.8938  -17.4123  -10.5355  C     
21   C        -9.4454  -17.4191   -8.5940  C     
22   C        -8.3510  -17.7598   -9.4160  C     
23   C        -6.0208  -16.3719  -11.0609  C     
24   O        -5.2700  -16.5361  -10.1089  O     
25   N        -6.5322  -15.1481  -11.3187  N     
26   C        -6.2085  -14.0046  -10.4671  C     
27   C        -4.9290  -13.3103  -10.8657  C     
28   C        -3.6733  -13.4256  -10.1806  C     
29   C        -2.5277  -12.7305  -10.6823  C     
30   C        -2.6198  -11.9346  -11.8450  C     
31   C        -3.8547  -11.7839  -12.4946  C     
32   C        -4.9867  -12.4537  -11.9996  C     
33   C        -4.7279  -20.4954  -10.0560  C     
34   C        -4.0725  -19.7738   -8.9731  C     
35   O        -5.2913  -21.5311   -9.7207  O     
36   C        -7.5520  -14.9852  -12.3425  C     
37   C        -8.0400  -13.6781  -13.0138  C     
38   C        -6.9889  -14.5403  -13.7071  C     
39   Cl       -3.5287  -14.3047   -8.7173  Cl    
40   Cl       -0.9953  -12.8186   -9.9436  Cl    
41   Cl      -14.4041  -11.6239   -7.6355  Cl    
42   Cl       -9.2288  -12.9032   -8.5209  Cl    
43   C       -10.5442   -8.4259   -6.2926  C     
44   C        -5.1451  -18.0052  -12.6174  C     
45   C        -6.3536  -20.0147  -13.2489  C     
46   C        -7.5991  -19.5011  -12.4627  C     
47   H       -12.4563  -15.5011   -9.7328  H     
48   H       -13.6111  -15.9975   -8.5106  H     
49   H       -12.8959  -14.4735   -6.9592  H     
50   H       -11.1902  -14.7171   -7.3582  H     
51   H        -9.0239  -10.3933   -7.3158  H     
52   H       -13.0533   -9.3991   -6.6331  H     
53   H        -3.6539  -18.2721  -11.0533  H     
54   H        -3.2957  -19.1555  -12.5117  H     
55   H        -6.2491  -18.2802  -14.3515  H     
56   H        -4.8349  -19.1465  -14.3180  H     
57   H        -4.5983  -21.2805  -13.0623  H     
58   H        -5.9287  -21.7609  -12.0324  H     
59   H        -9.9722  -17.7996  -12.3631  H     
60   H       -11.8235  -17.3119  -10.9535  H     
61   H        -9.3076  -17.3274   -7.5853  H     
62   H        -7.4390  -17.9106   -8.9782  H     
63   H        -7.0136  -13.2715  -10.5002  H     
64   H        -6.1700  -14.3336   -9.4220  H     
65   H        -1.8046  -11.4457  -12.2218  H     
66   H        -3.9505  -11.1479  -13.2924  H     
67   H        -5.8711  -12.2567  -12.4658  H     
68   H        -3.0078  -19.6522   -9.1880  H     
69   H        -4.1633  -20.2928   -8.0143  H     
70   H        -4.5319  -18.7934   -8.8610  H     
71   H        -8.3190  -15.7573  -12.4022  H     
72   H        -9.0059  -13.7007  -13.5180  H     
73   H        -7.6638  -12.7016  -12.7115  H     
74   H        -5.9742  -14.1465  -13.7074  H     
75   H        -7.2964  -15.1684  -14.5261  H     
76   H        -9.9271   -8.6094   -5.4094  H     
77   H       -11.3937   -7.8089   -5.9955  H     
78   H        -9.9575   -7.8645   -7.0241  H     
79   H        -4.6162  -17.1536  -13.0626  H     
80   H        -6.6933  -20.6017  -14.1111  H     
81   H        -7.9511  -20.3099  -11.8140  H     
82   H        -8.3765  -19.3117  -13.2098  H     
@<TRIPOS>BOND
     1    1    2 1
     2    1   20 2
     3    1   21 1
     4    2    3 1
     5    3    4 1
     6    4    5 1
     7    5    6 1
     8    6    7 2
     9    6   11 1
    10    7    8 1
    11    7   42 1
    12    8    9 2
    13    9   10 1
    14    9   43 1
    15   10   11 2
    16   11   41 1
    17   12   13 1
    18   12   15 1
    19   12   33 am
    20   13   44 1
    21   14   44 1
    22   14   45 1
    23   15   45 1
    24   16   17 2
    25   16   23 1
    26   16   44 1
    27   17   18 1
    28   17   46 1
    29   18   19 2
    30   18   22 1
    31   19   20 1
    32   21   22 2
    33   23   24 2
    34   23   25 am
    35   25   26 1
    36   25   36 1
    37   26   27 1
    38   27   28 2
    39   27   32 1
    40   28   29 1
    41   28   39 1
    42   29   30 2
    43   29   40 1
    44   30   31 1
    45   31   32 2
    46   33   34 1
    47   33   35 2
    48   36   37 1
    49   36   38 1
    50   37   38 1
    51   45   46 1
    52    3   47 1
    53    3   48 1
    54    4   49 1
    55    4   50 1
    56    8   51 1
    57   10   52 1
    58   13   53 1
    59   13   54 1
    60   14   55 1
    61   14   56 1
    62   15   57 1
    63   15   58 1
    64   19   59 1
    65   20   60 1
    66   21   61 1
    67   22   62 1
    68   26   63 1
    69   26   64 1
    70   30   65 1
    71   31   66 1
    72   32   67 1
    73   34   68 1
    74   34   69 1
    75   34   70 1
    76   36   71 1
    77   37   72 1
    78   37   73 1
    79   38   74 1
    80   38   75 1
    81   43   76 1
    82   43   77 1
    83   43   78 1
    84   44   79 1
    85   45   80 1
    86   46   81 1
    87   46   82 1
@<TRIPOS>PROPERTY_DATA
  Total_Score	| 11.3085
  Crash		| -1.7630
  Polar		| 4.2780
  FragIndex	| 1
  FragRMSD	| 0.497

