@<TRIPOS>MOLECULE
BindingDB_50259451
 79 84 0 0 0
SMALL
NO_CHARGES


@<TRIPOS>ATOM
1    C        -3.1796  -12.3619  -10.8686  C     
2    O        -2.2966  -11.3317  -11.1093  O     
3    C        -1.0164  -11.2253  -10.4550  C     
4    C        -1.0770  -10.9315   -8.9385  C     
5    O         0.2773  -10.9300   -8.4446  O     
6    C         0.3978  -10.8425   -7.0844  C     
7    C         0.1007  -11.9708   -6.2879  C     
8    C         0.3030  -11.9304   -4.8954  C     
9    C         0.8283  -10.7675   -4.2981  C     
10   C         1.1324   -9.6423   -5.0888  C     
11   C         0.9221   -9.6768   -6.4811  C     
12   N        -9.1887  -17.6242  -10.4666  N     
13   C        -9.3618  -16.4545   -9.6175  C     
14   N        -7.3218  -17.1460   -8.3920  N     
15   C        -7.9422  -18.3734  -10.4237  C     
16   C        -7.3184  -14.8945   -9.2983  C     
17   C        -6.2217  -15.2313  -10.0393  C     
18   C        -5.2182  -14.3091  -10.3854  C     
19   C        -5.4491  -13.2139  -11.2507  C     
20   C        -4.4512  -12.2454  -11.4690  C     
21   C        -2.9119  -13.5111  -10.0910  C     
22   C        -3.9190  -14.4543   -9.8376  C     
23   C        -7.7346  -13.5868   -9.0748  C     
24   O        -8.4954  -13.1609   -9.9309  O     
25   N        -7.5368  -12.8317   -7.9697  N     
26   C        -8.2088  -11.5357   -7.7477  C     
27   C        -9.6904  -11.2188   -7.7194  C     
28   C       -10.7973  -12.0749   -7.9999  C     
29   C       -12.1364  -11.6159   -7.8707  C     
30   C       -12.3875  -10.3048   -7.4332  C     
31   C       -11.3245   -9.4406   -7.1453  C     
32   C       -10.0073   -9.8951   -7.3000  C     
33   C       -10.2156  -18.0884  -11.2167  C     
34   C       -11.5594  -17.5166  -11.2486  C     
35   O       -10.0695  -19.0934  -11.9052  O     
36   C        -6.4863  -13.2100   -7.0369  C     
37   C        -5.0311  -13.0725   -7.5361  C     
38   C        -5.5200  -12.1770   -6.4063  C     
39   Cl      -10.6025  -13.6802   -8.4709  Cl    
40   Cl      -13.5056  -12.5685   -8.2095  Cl    
41   Br        1.3734   -8.1846   -7.5055  Br    
42   F         0.0213  -12.9753   -4.1645  F     
43   C        -8.1581  -15.9789   -8.7317  C     
44   C        -6.7718  -17.7287   -9.6271  C     
45   C        -5.9644  -16.6414  -10.4142  C     
46   H        -0.4292  -12.1285  -10.6297  H     
47   H        -0.4880  -10.4012  -10.9367  H     
48   H        -1.5470   -9.9600   -8.7725  H     
49   H        -1.6772  -11.6967   -8.4394  H     
50   H        -0.2563  -12.8246   -6.7252  H     
51   H         0.9965  -10.7403   -3.2890  H     
52   H         1.5185   -8.8028   -4.6506  H     
53   H        -9.6812  -15.6270  -10.2500  H     
54   H       -10.1842  -16.6771   -8.9297  H     
55   H        -6.5543  -16.8419   -7.7886  H     
56   H        -7.8821  -17.8447   -7.8976  H     
57   H        -8.1618  -19.3404   -9.9586  H     
58   H        -7.5907  -18.5787  -11.4401  H     
59   H        -6.3468  -13.1059  -11.7248  H     
60   H        -4.6583  -11.4433  -12.0699  H     
61   H        -1.9916  -13.6604   -9.6714  H     
62   H        -3.6995  -15.2265   -9.2015  H     
63   H        -7.8893  -11.1534   -6.7756  H     
64   H        -7.7617  -10.8625   -8.4819  H     
65   H       -13.3468   -9.9611   -7.3324  H     
66   H       -11.5094   -8.4809   -6.8418  H     
67   H        -9.2606   -9.2324   -7.0839  H     
68   H       -12.0157  -17.5859  -10.2600  H     
69   H       -12.2151  -18.0388  -11.9524  H     
70   H       -11.5205  -16.4693  -11.5498  H     
71   H        -6.6226  -14.1232   -6.4576  H     
72   H        -4.3113  -13.8301   -7.2208  H     
73   H        -4.8457  -12.5023   -8.4456  H     
74   H        -5.6060  -11.1262   -6.6885  H     
75   H        -5.1628  -12.4207   -5.4087  H     
76   H        -8.5592  -15.6503   -7.7721  H     
77   H        -6.0879  -18.5320   -9.3332  H     
78   H        -6.1538  -16.7292  -11.4887  H     
79   H        -4.9087  -16.8944  -10.2782  H     
@<TRIPOS>BOND
     1    1    2 1
     2    1   20 2
     3    1   21 1
     4    2    3 1
     5    3    4 1
     6    4    5 1
     7    5    6 1
     8    6    7 2
     9    6   11 1
    10    7    8 1
    11    8    9 2
    12    8   42 1
    13    9   10 1
    14   10   11 2
    15   11   41 1
    16   12   13 1
    17   12   15 1
    18   12   33 am
    19   13   43 1
    20   14   43 1
    21   14   44 1
    22   15   44 1
    23   16   17 2
    24   16   23 1
    25   16   43 1
    26   17   18 1
    27   17   45 1
    28   18   19 2
    29   18   22 1
    30   19   20 1
    31   21   22 2
    32   23   24 2
    33   23   25 am
    34   25   26 1
    35   25   36 1
    36   26   27 1
    37   27   28 2
    38   27   32 1
    39   28   29 1
    40   28   39 1
    41   29   30 2
    42   29   40 1
    43   30   31 1
    44   31   32 2
    45   33   34 1
    46   33   35 2
    47   36   37 1
    48   36   38 1
    49   37   38 1
    50   44   45 1
    51    3   46 1
    52    3   47 1
    53    4   48 1
    54    4   49 1
    55    7   50 1
    56    9   51 1
    57   10   52 1
    58   13   53 1
    59   13   54 1
    60   14   55 1
    61   14   56 1
    62   15   57 1
    63   15   58 1
    64   19   59 1
    65   20   60 1
    66   21   61 1
    67   22   62 1
    68   26   63 1
    69   26   64 1
    70   30   65 1
    71   31   66 1
    72   32   67 1
    73   34   68 1
    74   34   69 1
    75   34   70 1
    76   36   71 1
    77   37   72 1
    78   37   73 1
    79   38   74 1
    80   38   75 1
    81   43   76 1
    82   44   77 1
    83   45   78 1
    84   45   79 1
@<TRIPOS>PROPERTY_DATA
  Total_Score	| 3.0452
  Crash		| -3.7216
  Polar		| 0.0178
  FragIndex	| 1
  FragRMSD	| 1.141

