@<TRIPOS>MOLECULE
BindingDB_50259431
 95 100 0 0 0
SMALL
NO_CHARGES


@<TRIPOS>ATOM
1    N        -4.8328  -20.1333  -11.3457  N     
2    C        -4.1415  -18.9129  -11.7454  C     
3    N        -5.6297  -18.7310  -13.6922  N     
4    C        -5.4240  -20.8618  -12.4598  C     
5    C        -6.2622  -17.5295  -11.6442  C     
6    C        -7.4202  -18.2665  -11.5810  C     
7    C        -8.4956  -17.9606  -10.7144  C     
8    C        -8.2958  -17.7973   -9.3168  C     
9    C        -9.3602  -17.4604   -8.4659  C     
10   C       -10.6663  -17.2958   -8.9753  C     
11   C       -10.8931  -17.5374  -10.3502  C     
12   C        -9.8255  -17.8498  -11.2009  C     
13   C        -6.0386  -16.3701  -10.9330  C     
14   O        -5.1366  -16.4618  -10.1029  O     
15   N        -6.6645  -15.1910  -11.1171  N     
16   C        -6.2976  -14.0295  -10.2963  C     
17   C        -4.9952  -13.3334  -10.6010  C     
18   C        -4.4100  -12.3744   -9.7040  C     
19   C        -3.2375  -11.6491  -10.1009  C     
20   C        -2.6522  -11.9255  -11.3545  C     
21   C        -3.2000  -12.8815  -12.2193  C     
22   C        -4.3714  -13.5644  -11.8547  C     
23   O       -11.6528  -16.9342   -8.0963  O     
24   C       -12.6766  -16.0166   -8.5696  C     
25   C       -12.7271  -14.7790   -7.6411  C     
26   C       -11.5180  -13.8378   -7.8409  C     
27   O       -11.9045  -12.7844   -8.7434  O     
28   C       -11.1152  -11.5792   -8.7225  C     
29   C       -11.5482  -10.5197   -7.7589  C     
30   C       -12.6633  -10.6378   -6.8819  C     
31   C       -12.9161   -9.6135   -5.9493  C     
32   C       -12.1391   -8.4398   -5.9298  C     
33   C       -11.0712   -8.2955   -6.8294  C     
34   C       -10.7744   -9.3283   -7.7354  C     
35   O       -13.4613  -11.7609   -6.8487  O     
36   C       -14.6817  -11.6515   -7.6024  C     
37   C        -4.9991  -20.4745  -10.0477  C     
38   C        -5.7373  -21.6362   -9.5806  C     
39   O        -4.5328  -19.7686   -9.1553  O     
40   C        -7.8288  -15.0663  -11.9595  C     
41   C        -7.8352  -14.0160  -13.0859  C     
42   C        -7.7742  -15.5064  -13.4281  C     
43   C        -5.0281  -12.1759   -8.3532  C     
44   C        -2.6031  -10.5940   -9.2561  C     
45   C        -5.1416  -17.9803  -12.5066  C     
46   C        -6.3767  -19.9304  -13.2616  C     
47   C        -7.6183  -19.4421  -12.4608  C     
48   H        -3.6853  -18.3676  -10.9106  H     
49   H        -3.3112  -19.1778  -12.4095  H     
50   H        -6.2317  -18.1308  -14.2467  H     
51   H        -4.8442  -19.0323  -14.2600  H     
52   H        -4.6205  -21.1963  -13.1190  H     
53   H        -5.9754  -21.7591  -12.1700  H     
54   H        -7.3677  -17.9073   -8.9101  H     
55   H        -9.1836  -17.3253   -7.4707  H     
56   H       -11.8432  -17.4791  -10.7322  H     
57   H       -10.0386  -17.9788  -12.1948  H     
58   H        -7.0794  -13.2628  -10.3508  H     
59   H        -6.2996  -14.3606   -9.2519  H     
60   H        -1.8088  -11.4258  -11.6600  H     
61   H        -2.7575  -13.0612  -13.1196  H     
62   H        -4.7732  -14.2188  -12.5262  H     
63   H       -12.5248  -15.6778   -9.6063  H     
64   H       -13.6378  -16.5461   -8.5245  H     
65   H       -13.6522  -14.2344   -7.8417  H     
66   H       -12.7612  -15.1190   -6.6115  H     
67   H       -11.2371  -13.4152   -6.8805  H     
68   H       -10.6753  -14.4067   -8.2364  H     
69   H       -10.0543  -11.8124   -8.5423  H     
70   H       -11.1974  -11.1561   -9.7262  H     
71   H       -13.6732   -9.7189   -5.2694  H     
72   H       -12.3488   -7.6969   -5.2548  H     
73   H       -10.5040   -7.4486   -6.8119  H     
74   H        -9.9855   -9.2058   -8.3636  H     
75   H       -15.2880  -10.7889   -7.3186  H     
76   H       -15.2690  -12.5479   -7.4148  H     
77   H       -14.4604  -11.6051   -8.6654  H     
78   H        -6.7721  -21.5776   -9.9191  H     
79   H        -5.7484  -21.7054   -8.4894  H     
80   H        -5.2748  -22.5433   -9.9688  H     
81   H        -8.7989  -15.1601  -11.4791  H     
82   H        -8.7961  -13.5440  -13.3050  H     
83   H        -6.9065  -13.4642  -13.2746  H     
84   H        -6.8138  -15.8514  -13.8055  H     
85   H        -8.6959  -15.9469  -13.7934  H     
86   H        -6.0854  -11.9244   -8.4535  H     
87   H        -4.5721  -11.3849   -7.7636  H     
88   H        -4.9340  -13.0982   -7.7771  H     
89   H        -3.3284   -9.8083   -9.0530  H     
90   H        -1.7438  -10.1281   -9.7338  H     
91   H        -2.2634  -11.0280   -8.3189  H     
92   H        -4.5848  -17.1197  -12.8987  H     
93   H        -6.7183  -20.4642  -14.1574  H     
94   H        -8.0018  -20.2836  -11.8727  H     
95   H        -8.3808  -19.1908  -13.1977  H     
@<TRIPOS>BOND
     1    1    2 1
     2    1    4 1
     3    1   37 am
     4    2   45 1
     5    3   45 1
     6    3   46 1
     7    4   46 1
     8    5    6 2
     9    5   13 1
    10    5   45 1
    11    6    7 1
    12    6   47 1
    13    7    8 2
    14    7   12 1
    15    8    9 1
    16    9   10 2
    17   10   11 1
    18   10   23 1
    19   11   12 2
    20   13   14 2
    21   13   15 am
    22   15   16 1
    23   15   40 1
    24   16   17 1
    25   17   18 2
    26   17   22 1
    27   18   19 1
    28   18   43 1
    29   19   20 2
    30   19   44 1
    31   20   21 1
    32   21   22 2
    33   23   24 1
    34   24   25 1
    35   25   26 1
    36   26   27 1
    37   27   28 1
    38   28   29 1
    39   29   30 2
    40   29   34 1
    41   30   31 1
    42   30   35 1
    43   31   32 2
    44   32   33 1
    45   33   34 2
    46   35   36 1
    47   37   38 1
    48   37   39 2
    49   40   41 1
    50   40   42 1
    51   41   42 1
    52   46   47 1
    53    2   48 1
    54    2   49 1
    55    3   50 1
    56    3   51 1
    57    4   52 1
    58    4   53 1
    59    8   54 1
    60    9   55 1
    61   11   56 1
    62   12   57 1
    63   16   58 1
    64   16   59 1
    65   20   60 1
    66   21   61 1
    67   22   62 1
    68   24   63 1
    69   24   64 1
    70   25   65 1
    71   25   66 1
    72   26   67 1
    73   26   68 1
    74   28   69 1
    75   28   70 1
    76   31   71 1
    77   32   72 1
    78   33   73 1
    79   34   74 1
    80   36   75 1
    81   36   76 1
    82   36   77 1
    83   38   78 1
    84   38   79 1
    85   38   80 1
    86   40   81 1
    87   41   82 1
    88   41   83 1
    89   42   84 1
    90   42   85 1
    91   43   86 1
    92   43   87 1
    93   43   88 1
    94   44   89 1
    95   44   90 1
    96   44   91 1
    97   45   92 1
    98   46   93 1
    99   47   94 1
   100   47   95 1
@<TRIPOS>PROPERTY_DATA
  Total_Score	| 12.3912
  Crash		| -2.4324
  Polar		| 3.5237
  FragIndex	| 1
  FragRMSD	| 0.096

