@<TRIPOS>MOLECULE
BindingDB_50259447
 79 84 0 0 0
SMALL
NO_CHARGES


@<TRIPOS>ATOM
1    C       -10.4131  -17.0113   -8.8218  C     
2    O       -11.3239  -16.4692   -7.9518  O     
3    C       -11.4086  -15.0252   -8.0175  C     
4    C       -12.7407  -14.5345   -8.6484  C     
5    O       -12.7407  -13.1703   -9.1260  O     
6    C       -12.2174  -12.2058   -8.3056  C     
7    C       -12.4304  -10.4156   -6.6594  C     
8    C       -11.0482  -10.1620   -6.7478  C     
9    C       -10.2492  -10.9120   -7.6287  C     
10   C       -10.8371  -11.9198   -8.4115  C     
11   N        -4.8289  -20.2095  -11.3649  N     
12   C        -4.1818  -19.0210  -11.9087  C     
13   N        -5.8021  -18.9739  -13.7491  N     
14   C        -5.5400  -21.0036  -12.3611  C     
15   C        -6.2794  -17.6090  -11.7640  C     
16   C        -7.4267  -18.3223  -11.5562  C     
17   C        -8.4276  -17.9245  -10.6469  C     
18   C        -9.7370  -17.6010  -11.0896  C     
19   C       -10.7198  -17.1577  -10.1874  C     
20   C        -9.1368  -17.3865   -8.3564  C     
21   C        -8.1573  -17.8404   -9.2585  C     
22   C        -6.0046  -16.4053  -11.1485  C     
23   O        -5.0836  -16.4768  -10.3466  O     
24   N        -6.6403  -15.2246  -11.3225  N     
25   C        -6.2852  -14.0448  -10.5276  C     
26   C        -5.0631  -13.3165  -11.0126  C     
27   C        -3.7670  -13.4153  -10.4190  C     
28   C        -2.6616  -12.7382  -11.0022  C     
29   C        -2.8482  -11.9235  -12.1357  C     
30   C        -4.1308  -11.7519  -12.6734  C     
31   C        -5.2197  -12.4331  -12.1103  C     
32   C        -4.8208  -20.5382  -10.0566  C     
33   C        -4.1440  -19.7856   -9.0102  C     
34   O        -5.4108  -21.5399   -9.6664  O     
35   C        -7.8591  -15.1342  -12.1001  C     
36   C        -7.8874  -14.1338  -13.2753  C     
37   C        -7.9975  -15.6288  -13.5496  C     
38   Cl       -1.0829  -12.8356  -10.3809  Cl    
39   Cl       -3.5105  -14.2775   -8.9724  Cl    
40   C       -13.0261  -11.4234   -7.4453  C     
41   Cl      -14.7057  -11.6445   -7.3600  Cl    
42   C        -5.2257  -18.1369  -12.6657  C     
43   C        -6.5340  -20.1207  -13.1759  C     
44   C        -7.7123  -19.5471  -12.3358  C     
45   H       -11.3653  -14.6549   -6.9892  H     
46   H       -10.5617  -14.5759   -8.5496  H     
47   H       -12.9646  -15.1488   -9.5235  H     
48   H       -13.5589  -14.6833   -7.9391  H     
49   H       -12.9975   -9.8583   -6.0180  H     
50   H       -10.6238   -9.4261   -6.1779  H     
51   H        -9.2474  -10.7189   -7.7057  H     
52   H       -10.2521  -12.4446   -9.0672  H     
53   H        -3.6649  -18.4103  -11.1687  H     
54   H        -3.4104  -19.3393  -12.6173  H     
55   H        -6.4402  -18.4224  -14.3267  H     
56   H        -5.0475  -19.3212  -14.3432  H     
57   H        -4.8047  -21.4295  -13.0505  H     
58   H        -6.0961  -21.8479  -11.9458  H     
59   H        -9.9813  -17.6446  -12.0819  H     
60   H       -11.6490  -16.9111  -10.5345  H     
61   H        -8.9107  -17.3047   -7.3619  H     
62   H        -7.2387  -18.1015   -8.8908  H     
63   H        -7.1101  -13.3239  -10.4969  H     
64   H        -6.1748  -14.3508   -9.4857  H     
65   H        -2.0593  -11.4286  -12.5637  H     
66   H        -4.2733  -11.1265  -13.4712  H     
67   H        -6.1444  -12.2450  -12.4955  H     
68   H        -4.2635  -20.2434   -8.0239  H     
69   H        -4.5523  -18.7773   -8.9534  H     
70   H        -3.0755  -19.7330   -9.2244  H     
71   H        -8.7909  -15.1249  -11.5315  H     
72   H        -8.8164  -13.5910  -13.4565  H     
73   H        -6.9615  -13.7515  -13.7046  H     
74   H        -7.1122  -16.0590  -14.0149  H     
75   H        -8.9850  -15.9857  -13.8428  H     
76   H        -4.6957  -17.3155  -13.1623  H     
77   H        -6.9350  -20.7213  -13.9983  H     
78   H        -8.0751  -20.3351  -11.6689  H     
79   H        -8.5157  -19.3198  -13.0396  H     
@<TRIPOS>BOND
     1    1    2 1
     2    1   19 2
     3    1   20 1
     4    2    3 1
     5    3    4 1
     6    4    5 1
     7    5    6 1
     8    6   10 1
     9    6   40 2
    10    7    8 2
    11    7   40 1
    12    8    9 1
    13    9   10 2
    14   11   12 1
    15   11   14 1
    16   11   32 am
    17   12   42 1
    18   13   42 1
    19   13   43 1
    20   14   43 1
    21   15   16 2
    22   15   22 1
    23   15   42 1
    24   16   17 1
    25   16   44 1
    26   17   18 2
    27   17   21 1
    28   18   19 1
    29   20   21 2
    30   22   23 2
    31   22   24 am
    32   24   25 1
    33   24   35 1
    34   25   26 1
    35   26   27 2
    36   26   31 1
    37   27   28 1
    38   27   39 1
    39   28   29 2
    40   28   38 1
    41   29   30 1
    42   30   31 2
    43   32   33 1
    44   32   34 2
    45   35   36 1
    46   35   37 1
    47   36   37 1
    48   40   41 1
    49   43   44 1
    50    3   45 1
    51    3   46 1
    52    4   47 1
    53    4   48 1
    54    7   49 1
    55    8   50 1
    56    9   51 1
    57   10   52 1
    58   12   53 1
    59   12   54 1
    60   13   55 1
    61   13   56 1
    62   14   57 1
    63   14   58 1
    64   18   59 1
    65   19   60 1
    66   20   61 1
    67   21   62 1
    68   25   63 1
    69   25   64 1
    70   29   65 1
    71   30   66 1
    72   31   67 1
    73   33   68 1
    74   33   69 1
    75   33   70 1
    76   35   71 1
    77   36   72 1
    78   36   73 1
    79   37   74 1
    80   37   75 1
    81   42   76 1
    82   43   77 1
    83   44   78 1
    84   44   79 1
@<TRIPOS>PROPERTY_DATA
  Total_Score	| 10.5246
  Crash		| -1.7476
  Polar		| 4.6746
  FragIndex	| 1
  FragRMSD	| 0.608

