@<TRIPOS>MOLECULE
BindingDB_50259464
 88 93 0 0 0
SMALL
NO_CHARGES


@<TRIPOS>ATOM
1    C       -10.6796  -17.2797   -9.0862  C     
2    O       -11.7453  -17.0490   -8.2520  O     
3    C       -12.5859  -15.9092   -8.5427  C     
4    C       -12.1763  -14.6256   -7.7684  C     
5    O       -12.1864  -13.4834   -8.6568  O     
6    C       -11.8001  -12.3015   -8.0668  C     
7    C       -10.4336  -11.9497   -7.9820  C     
8    C       -10.0477  -10.7267   -7.4037  C     
9    C       -11.0145   -9.8196   -6.9167  C     
10   C       -12.3775  -10.1623   -7.0325  C     
11   C       -12.7700  -11.3877   -7.6071  C     
12   N        -4.7595  -20.1145  -11.3748  N     
13   C        -4.0820  -18.8792  -11.7715  C     
14   N        -5.5327  -18.7042  -13.7413  N     
15   C        -5.3592  -20.8362  -12.4917  C     
16   C        -6.2118  -17.5163  -11.6926  C     
17   C        -7.3652  -18.2521  -11.6398  C     
18   C        -8.4611  -17.9423  -10.7853  C     
19   C        -8.2833  -17.6839   -9.4018  C     
20   C        -9.3698  -17.3495   -8.5672  C     
21   C       -10.8830  -17.6063  -10.4378  C     
22   C        -9.7937  -17.9129  -11.2768  C     
23   C        -6.0070  -16.3441  -10.9962  C     
24   O        -5.1119  -16.4031  -10.1570  O     
25   N        -6.6526  -15.1715  -11.1743  N     
26   C        -6.3014  -13.9960  -10.3758  C     
27   C        -5.0103  -13.2979  -10.6907  C     
28   C        -4.3766  -12.3831   -9.7788  C     
29   C        -3.2217  -11.6481  -10.2105  C     
30   C        -2.7109  -11.8593  -11.5096  C     
31   C        -3.3292  -12.7429  -12.4000  C     
32   C        -4.4728  -13.4475  -11.9929  C     
33   C        -4.8887  -20.5310  -10.1010  C     
34   C        -4.3417  -19.8383   -8.9416  C     
35   O        -5.4972  -21.5580   -9.8384  O     
36   C        -7.8381  -15.0772  -11.9954  C     
37   C        -7.9160  -13.9727  -13.0679  C     
38   C        -7.7863  -15.4358  -13.4941  C     
39   Cl      -14.4217  -11.7264   -7.7616  Cl    
40   Cl       -9.2379  -12.9795   -8.5948  Cl    
41   C       -10.5833   -8.5382   -6.3076  C     
42   C        -4.9238  -12.2276   -8.3945  C     
43   C        -2.5187  -10.6545   -9.3467  C     
44   C        -5.0737  -17.9538  -12.5468  C     
45   C        -6.2893  -19.9023  -13.3238  C     
46   C        -7.5517  -19.4053  -12.5531  C     
47   H       -12.6359  -15.7022   -9.6119  H     
48   H       -13.5998  -16.1811   -8.2415  H     
49   H       -12.8710  -14.4601   -6.9387  H     
50   H       -11.1762  -14.7654   -7.3473  H     
51   H        -9.0538  -10.4876   -7.3464  H     
52   H       -13.0930   -9.5104   -6.7074  H     
53   H        -3.6409  -18.3265  -10.9417  H     
54   H        -3.2478  -19.1397  -12.4331  H     
55   H        -6.1276  -18.1090  -14.3215  H     
56   H        -4.7246  -18.9981  -14.2954  H     
57   H        -4.5470  -21.1981  -13.1349  H     
58   H        -5.9349  -21.7216  -12.1967  H     
59   H        -7.3571  -17.7679   -8.9777  H     
60   H        -9.2043  -17.1760   -7.5771  H     
61   H       -11.8325  -17.6316  -10.8224  H     
62   H        -9.9975  -18.1037  -12.2616  H     
63   H        -7.0905  -13.2433  -10.4332  H     
64   H        -6.2828  -14.3308   -9.3349  H     
65   H        -1.8792  -11.3547  -11.8385  H     
66   H        -2.9514  -12.8679  -13.3449  H     
67   H        -4.9153  -14.0641  -12.6741  H     
68   H        -3.2570  -19.7734   -9.0305  H     
69   H        -4.5680  -20.3535   -8.0044  H     
70   H        -4.7654  -18.8369   -8.8775  H     
71   H        -8.8027  -15.2333  -11.5091  H     
72   H        -8.8975  -13.5416  -13.2510  H     
73   H        -7.0262  -13.3716  -13.2580  H     
74   H        -6.8056  -15.7300  -13.8807  H     
75   H        -8.6951  -15.9036  -13.8793  H     
76   H        -9.9675   -8.7398   -5.4274  H     
77   H       -11.4326   -7.9237   -5.9971  H     
78   H        -9.9935   -7.9624   -7.0248  H     
79   H        -5.9806  -11.9530   -8.4331  H     
80   H        -4.4293  -11.4695   -7.7883  H     
81   H        -4.8230  -13.1767   -7.8627  H     
82   H        -3.2122   -9.8635   -9.0545  H     
83   H        -1.6758  -10.1722   -9.8514  H     
84   H        -2.1294  -11.1420   -8.4489  H     
85   H        -4.5154  -17.0930  -12.9337  H     
86   H        -6.6031  -20.4479  -14.2213  H     
87   H        -7.9779  -20.2517  -12.0074  H     
88   H        -8.2679  -19.1172  -13.3237  H     
@<TRIPOS>BOND
     1    1    2 1
     2    1   20 2
     3    1   21 1
     4    2    3 1
     5    3    4 1
     6    4    5 1
     7    5    6 1
     8    6    7 2
     9    6   11 1
    10    7    8 1
    11    7   40 1
    12    8    9 2
    13    9   10 1
    14    9   41 1
    15   10   11 2
    16   11   39 1
    17   12   13 1
    18   12   15 1
    19   12   33 am
    20   13   44 1
    21   14   44 1
    22   14   45 1
    23   15   45 1
    24   16   17 2
    25   16   23 1
    26   16   44 1
    27   17   18 1
    28   17   46 1
    29   18   19 2
    30   18   22 1
    31   19   20 1
    32   21   22 2
    33   23   24 2
    34   23   25 am
    35   25   26 1
    36   25   36 1
    37   26   27 1
    38   27   28 2
    39   27   32 1
    40   28   29 1
    41   28   42 1
    42   29   30 2
    43   29   43 1
    44   30   31 1
    45   31   32 2
    46   33   34 1
    47   33   35 2
    48   36   37 1
    49   36   38 1
    50   37   38 1
    51   45   46 1
    52    3   47 1
    53    3   48 1
    54    4   49 1
    55    4   50 1
    56    8   51 1
    57   10   52 1
    58   13   53 1
    59   13   54 1
    60   14   55 1
    61   14   56 1
    62   15   57 1
    63   15   58 1
    64   19   59 1
    65   20   60 1
    66   21   61 1
    67   22   62 1
    68   26   63 1
    69   26   64 1
    70   30   65 1
    71   31   66 1
    72   32   67 1
    73   34   68 1
    74   34   69 1
    75   34   70 1
    76   36   71 1
    77   37   72 1
    78   37   73 1
    79   38   74 1
    80   38   75 1
    81   41   76 1
    82   41   77 1
    83   41   78 1
    84   42   79 1
    85   42   80 1
    86   42   81 1
    87   43   82 1
    88   43   83 1
    89   43   84 1
    90   44   85 1
    91   45   86 1
    92   46   87 1
    93   46   88 1
@<TRIPOS>PROPERTY_DATA
  Total_Score	| 11.9919
  Crash		| -1.5491
  Polar		| 3.4834
  FragIndex	| 1
  FragRMSD	| 0.091

