@<TRIPOS>MOLECULE
BindingDB_50259455
 79 84 0 0 0
SMALL
NO_CHARGES


@<TRIPOS>ATOM
1    C       -10.5128  -17.3406   -8.8943  C     
2    O       -11.4011  -16.9775   -7.9076  O     
3    C       -12.7771  -16.6194   -8.1346  C     
4    C       -12.9801  -15.1547   -8.6060  C     
5    O       -11.8943  -14.3514   -8.1142  O     
6    C       -11.9596  -12.9677   -8.0011  C     
7    C       -13.1433  -12.2228   -7.8199  C     
8    C       -13.0809  -10.8555   -7.4440  C     
9    C       -11.8362  -10.2244   -7.2779  C     
10   C       -10.6473  -10.9544   -7.4540  C     
11   C       -10.7043  -12.3236   -7.8149  C     
12   N        -4.6879  -20.0541  -11.3919  N     
13   C        -4.0966  -18.7812  -11.8080  C     
14   N        -5.6159  -18.7127  -13.7377  N     
15   C        -5.3160  -20.8142  -12.4659  C     
16   C        -6.2852  -17.5407  -11.7028  C     
17   C        -7.4021  -18.3214  -11.6231  C     
18   C        -8.4484  -18.0597  -10.7256  C     
19   C        -8.1991  -17.9965   -9.3331  C     
20   C        -9.2025  -17.6022   -8.4458  C     
21   C       -10.7944  -17.5128  -10.2691  C     
22   C        -9.7672  -17.8280  -11.1758  C     
23   C        -6.0959  -16.4098  -10.9419  C     
24   O        -5.5492  -16.6236   -9.8636  O     
25   N        -6.4978  -15.1599  -11.2672  N     
26   C        -6.1047  -13.9859  -10.4864  C     
27   C        -4.8389  -13.3542  -11.0042  C     
28   C        -3.5344  -13.5947  -10.4706  C     
29   C        -2.3974  -12.9221  -11.0107  C     
30   C        -2.5475  -12.0458  -12.0889  C     
31   C        -3.8191  -11.7886  -12.6112  C     
32   C        -4.9513  -12.4066  -12.0439  C     
33   C        -4.6721  -20.4896  -10.1113  C     
34   C        -4.0702  -19.7984   -8.9899  C     
35   O        -5.2523  -21.5394   -9.8195  O     
36   C        -7.4673  -15.0121  -12.3379  C     
37   C        -8.0304  -13.7174  -12.9753  C     
38   C        -6.9509  -14.5280  -13.7091  C     
39   Cl       -3.2864  -14.6078   -9.1359  Cl    
40   Cl       -0.8336  -13.1410  -10.3781  Cl    
41   F        -9.6065  -13.0146   -7.9628  F     
42   F       -14.3235  -12.7806   -7.8319  F     
43   Cl       -9.1541  -10.2009   -7.1802  Cl    
44   C        -5.1552  -17.9180  -12.5722  C     
45   C        -6.3108  -19.9342  -13.2848  C     
46   C        -7.5806  -19.4826  -12.5035  C     
47   H       -13.2428  -17.3157   -8.8282  H     
48   H       -13.2857  -16.7436   -7.1808  H     
49   H       -13.0076  -15.1080   -9.7105  H     
50   H       -13.9542  -14.8455   -8.2279  H     
51   H       -13.9390  -10.3214   -7.2968  H     
52   H       -11.7917   -9.2427   -6.9800  H     
53   H        -3.6770  -18.1913  -10.9939  H     
54   H        -3.2686  -18.9975  -12.4932  H     
55   H        -6.2623  -18.1662  -14.3091  H     
56   H        -4.8103  -18.9656  -14.3123  H     
57   H        -4.5268  -21.1632  -13.1359  H     
58   H        -5.8563  -21.6988  -12.1289  H     
59   H        -7.2745  -18.2156   -8.9574  H     
60   H        -8.9837  -17.5275   -7.4522  H     
61   H       -11.7383  -17.3877  -10.6339  H     
62   H        -9.9936  -17.8756  -12.1765  H     
63   H        -6.9400  -13.2679  -10.4591  H     
64   H        -5.9383  -14.2317   -9.4378  H     
65   H        -1.7551  -11.5464  -12.4574  H     
66   H        -3.9430  -11.1085  -13.3744  H     
67   H        -5.8775  -12.1210  -12.3849  H     
68   H        -3.0031  -19.6556   -9.1740  H     
69   H        -4.1693  -20.3544   -8.0492  H     
70   H        -4.5493  -18.8342   -8.8477  H     
71   H        -8.2493  -15.7648  -12.4150  H     
72   H        -9.0163  -13.7729  -13.4286  H     
73   H        -7.6791  -12.7489  -12.6868  H     
74   H        -5.9284  -14.1422  -13.6968  H     
75   H        -7.2528  -15.1912  -14.5059  H     
76   H        -4.6673  -17.0165  -12.9716  H     
77   H        -6.6196  -20.4978  -14.1752  H     
78   H        -7.9678  -20.3399  -11.9472  H     
79   H        -8.3301  -19.2041  -13.2499  H     
@<TRIPOS>BOND
     1    1    2 1
     2    1   20 2
     3    1   21 1
     4    2    3 1
     5    3    4 1
     6    4    5 1
     7    5    6 1
     8    6    7 2
     9    6   11 1
    10    7    8 1
    11    7   42 1
    12    8    9 2
    13    9   10 1
    14   10   11 2
    15   10   43 1
    16   11   41 1
    17   12   13 1
    18   12   15 1
    19   12   33 am
    20   13   44 1
    21   14   44 1
    22   14   45 1
    23   15   45 1
    24   16   17 2
    25   16   23 1
    26   16   44 1
    27   17   18 1
    28   17   46 1
    29   18   19 2
    30   18   22 1
    31   19   20 1
    32   21   22 2
    33   23   24 2
    34   23   25 am
    35   25   26 1
    36   25   36 1
    37   26   27 1
    38   27   28 2
    39   27   32 1
    40   28   29 1
    41   28   39 1
    42   29   30 2
    43   29   40 1
    44   30   31 1
    45   31   32 2
    46   33   34 1
    47   33   35 2
    48   36   37 1
    49   36   38 1
    50   37   38 1
    51   45   46 1
    52    3   47 1
    53    3   48 1
    54    4   49 1
    55    4   50 1
    56    8   51 1
    57    9   52 1
    58   13   53 1
    59   13   54 1
    60   14   55 1
    61   14   56 1
    62   15   57 1
    63   15   58 1
    64   19   59 1
    65   20   60 1
    66   21   61 1
    67   22   62 1
    68   26   63 1
    69   26   64 1
    70   30   65 1
    71   31   66 1
    72   32   67 1
    73   34   68 1
    74   34   69 1
    75   34   70 1
    76   36   71 1
    77   37   72 1
    78   37   73 1
    79   38   74 1
    80   38   75 1
    81   44   76 1
    82   45   77 1
    83   46   78 1
    84   46   79 1
@<TRIPOS>PROPERTY_DATA
  Total_Score	| 9.8951
  Crash		| -2.2881
  Polar		| 4.3256
  FragIndex	| 1
  FragRMSD	| 0.601

