@<TRIPOS>MOLECULE
BindingDB_50259450
 83 88 0 0 0
SMALL
NO_CHARGES


@<TRIPOS>ATOM
1    C       -10.4998  -17.1085   -8.7800  C     
2    O       -11.4030  -16.8256   -7.7728  O     
3    C       -12.7587  -16.3605   -7.9880  C     
4    C       -12.9219  -14.9087   -7.4959  C     
5    O       -12.2979  -14.0059   -8.4365  O     
6    C       -11.9317  -12.7614   -7.9899  C     
7    C       -10.6149  -12.3517   -8.2938  C     
8    C       -10.1544  -11.0792   -7.9112  C     
9    C       -11.0072  -10.2009   -7.2248  C     
10   C       -12.3267  -10.5906   -6.9330  C     
11   C       -12.8042  -11.8596   -7.3307  C     
12   N        -4.9016  -20.2438  -11.2844  N     
13   C        -4.1861  -19.0700  -11.7818  C     
14   N        -5.7390  -18.9339  -13.6703  N     
15   C        -5.6145  -20.9898  -12.3174  C     
16   C        -6.2337  -17.5836  -11.6788  C     
17   C        -7.4102  -18.2556  -11.5089  C     
18   C        -8.4216  -17.8443  -10.6142  C     
19   C        -8.1640  -17.7275   -9.2271  C     
20   C        -9.1809  -17.3585   -8.3291  C     
21   C       -10.7721  -17.2478  -10.1574  C     
22   C        -9.7458  -17.6080  -11.0608  C     
23   C        -5.9535  -16.3851  -11.0667  C     
24   O        -5.0515  -16.4733  -10.2407  O     
25   N        -6.5614  -15.1953  -11.2726  N     
26   C        -6.2236  -14.0103  -10.4749  C     
27   C        -4.9900  -13.2793  -10.9298  C     
28   C        -3.7202  -13.3513  -10.2809  C     
29   C        -2.5891  -12.6873  -10.8407  C     
30   C        -2.7304  -11.9190  -12.0118  C     
31   C        -3.9930  -11.7613  -12.5988  C     
32   C        -5.1033  -12.4266  -12.0561  C     
33   C        -4.9446  -20.5993   -9.9835  C     
34   C        -4.2573  -19.9044   -8.9084  C     
35   O        -5.5941  -21.5804   -9.6307  O     
36   C        -7.7553  -15.0952  -12.0827  C     
37   C        -7.6696  -14.1859  -13.3211  C     
38   C        -7.9197  -15.6762  -13.4992  C     
39   Cl       -3.5173  -14.1669   -8.7989  Cl    
40   Cl       -1.0359  -12.7551  -10.1533  Cl    
41   O       -14.0762  -12.2273   -6.9947  O     
42   C       -15.0841  -11.7613   -7.9051  C     
43   C        -5.1699  -18.1352  -12.5565  C     
44   C        -6.5420  -20.0540  -13.1483  C     
45   C        -7.7221  -19.4441  -12.3369  C     
46   H       -13.0951  -16.4310   -9.0156  H     
47   H       -13.4155  -16.9971   -7.3825  H     
48   H       -13.9952  -14.6897   -7.4390  H     
49   H       -12.4946  -14.8231   -6.4889  H     
50   H        -9.9824  -12.9838   -8.7966  H     
51   H        -9.1927  -10.7935   -8.1214  H     
52   H       -10.6717   -9.2839   -6.9251  H     
53   H       -12.9476   -9.9502   -6.4240  H     
54   H        -3.6730  -18.4950  -11.0118  H     
55   H        -3.4067  -19.4102  -12.4699  H     
56   H        -6.3213  -18.3463  -14.2656  H     
57   H        -4.9720  -19.3096  -14.2391  H     
58   H        -4.8773  -21.4327  -12.9905  H     
59   H        -6.2179  -21.8137  -11.9338  H     
60   H        -7.2323  -17.9251   -8.8588  H     
61   H        -8.9556  -17.2894   -7.3350  H     
62   H       -11.7192  -17.1288  -10.5195  H     
63   H        -9.9850  -17.6720  -12.0524  H     
64   H        -7.0537  -13.2935  -10.4812  H     
65   H        -6.1450  -14.2873   -9.4216  H     
66   H        -1.9267  -11.4489  -12.4331  H     
67   H        -4.1004  -11.1692  -13.4273  H     
68   H        -6.0112  -12.2549  -12.4827  H     
69   H        -3.1814  -19.9007   -9.0986  H     
70   H        -4.4236  -20.3721   -7.9368  H     
71   H        -4.6152  -18.8756   -8.8454  H     
72   H        -8.6964  -14.9933  -11.5443  H     
73   H        -8.5289  -13.5519  -13.5262  H     
74   H        -6.6875  -13.9063  -13.7077  H     
75   H        -7.0762  -16.1939  -13.9459  H     
76   H        -8.9370  -15.9313  -13.8020  H     
77   H       -15.1440  -10.6733   -7.8972  H     
78   H       -16.0433  -12.1603   -7.5714  H     
79   H       -14.9064  -12.1134   -8.9225  H     
80   H        -4.5896  -17.3260  -13.0154  H     
81   H        -6.9437  -20.6178  -13.9880  H     
82   H        -8.1597  -20.2319  -11.7150  H     
83   H        -8.4780  -19.1510  -13.0661  H     
@<TRIPOS>BOND
     1    1    2 1
     2    1   20 2
     3    1   21 1
     4    2    3 1
     5    3    4 1
     6    4    5 1
     7    5    6 1
     8    6    7 2
     9    6   11 1
    10    7    8 1
    11    8    9 2
    12    9   10 1
    13   10   11 2
    14   11   41 1
    15   12   13 1
    16   12   15 1
    17   12   33 am
    18   13   43 1
    19   14   43 1
    20   14   44 1
    21   15   44 1
    22   16   17 2
    23   16   23 1
    24   16   43 1
    25   17   18 1
    26   17   45 1
    27   18   19 2
    28   18   22 1
    29   19   20 1
    30   21   22 2
    31   23   24 2
    32   23   25 am
    33   25   26 1
    34   25   36 1
    35   26   27 1
    36   27   28 2
    37   27   32 1
    38   28   29 1
    39   28   39 1
    40   29   30 2
    41   29   40 1
    42   30   31 1
    43   31   32 2
    44   33   34 1
    45   33   35 2
    46   36   37 1
    47   36   38 1
    48   37   38 1
    49   41   42 1
    50   44   45 1
    51    3   46 1
    52    3   47 1
    53    4   48 1
    54    4   49 1
    55    7   50 1
    56    8   51 1
    57    9   52 1
    58   10   53 1
    59   13   54 1
    60   13   55 1
    61   14   56 1
    62   14   57 1
    63   15   58 1
    64   15   59 1
    65   19   60 1
    66   20   61 1
    67   21   62 1
    68   22   63 1
    69   26   64 1
    70   26   65 1
    71   30   66 1
    72   31   67 1
    73   32   68 1
    74   34   69 1
    75   34   70 1
    76   34   71 1
    77   36   72 1
    78   37   73 1
    79   37   74 1
    80   38   75 1
    81   38   76 1
    82   42   77 1
    83   42   78 1
    84   42   79 1
    85   43   80 1
    86   44   81 1
    87   45   82 1
    88   45   83 1
@<TRIPOS>PROPERTY_DATA
  Total_Score	| 11.6700
  Crash		| -1.5280
  Polar		| 4.4973
  FragIndex	| 1
  FragRMSD	| 0.557

