@<TRIPOS>MOLECULE
BindingDB_50300262
 43 45 0 0 0
SMALL
NO_CHARGES


@<TRIPOS>ATOM
1    C         5.4737    3.2662   26.2916  C     
2    C         4.1815    3.7735   26.1044  C     
3    C         3.9056    4.6527   25.0458  C     
4    C         4.9528    5.0764   24.1922  C     
5    C         6.2619    4.5703   24.3729  C     
6    C         6.5446    3.6450   25.4277  C     
7    O         2.6481    5.1682   24.8777  O     
8    C         1.6385    4.1714   24.6239  C     
9    C         0.5700    4.7436   23.8111  C     
10   O        -0.6490    4.1885   23.6479  O     
11   N        -1.3248    4.9294   22.8291  N     
12   C        -0.5460    5.9678   22.4414  C     
13   N         0.6323    5.8614   23.0685  N     
14   C        -0.9257    6.9589   21.4987  C     
15   C         7.8194    3.0934   25.6274  C     
16   O         8.4618    2.6843   24.6641  O     
17   C         8.4257    2.9535   26.8429  C     
18   C         8.5444    1.5791   27.3904  C     
19   C         8.9815    4.0471   27.4126  C     
20   Cl        7.5190    5.2021   23.4145  Cl    
21   C        -0.2727    8.2147   21.4454  C     
22   C        -0.5723    9.1487   20.4354  C     
23   C        -1.5441    8.8462   19.4655  C     
24   C        -2.2363    7.6213   19.5261  C     
25   C        -1.9338    6.6925   20.5328  C     
26   Cl        4.5991    6.2290   22.9908  Cl    
27   C         9.2215    1.3917   28.7697  C     
28   H         5.6302    2.6211   27.0736  H     
29   H         3.4317    3.5051   26.7427  H     
30   H         2.0421    3.3005   24.0926  H     
31   H         1.2180    3.8271   25.5743  H     
32   H         7.5262    1.1669   27.4609  H     
33   H         9.1029    0.9658   26.6593  H     
34   H         9.4780    3.9866   28.2729  H     
35   H         8.9091    4.9505   26.9819  H     
36   H         0.4280    8.4587   22.1459  H     
37   H        -0.0741   10.0364   20.3975  H     
38   H        -1.7503    9.5108   18.7233  H     
39   H        -2.9504    7.4031   18.8229  H     
40   H        -2.4385    5.7984   20.5380  H     
41   H        10.2891    1.5978   28.6905  H     
42   H         9.0925    0.3499   29.1118  H     
43   H         8.7703    2.0444   29.5149  H     
@<TRIPOS>BOND
     1    1    2 2
     2    1    6 1
     3    2    3 1
     4    3    4 2
     5    3    7 1
     6    4    5 1
     7    4   26 1
     8    5    6 2
     9    5   20 1
    10    6   15 1
    11    7    8 1
    12    8    9 1
    13    9   10 1
    14    9   13 2
    15   10   11 1
    16   11   12 2
    17   12   13 1
    18   12   14 1
    19   14   21 2
    20   14   25 1
    21   15   16 2
    22   15   17 1
    23   17   18 1
    24   17   19 2
    25   18   27 1
    26   21   22 1
    27   22   23 2
    28   23   24 1
    29   24   25 2
    30    1   28 1
    31    2   29 1
    32    8   30 1
    33    8   31 1
    34   18   32 1
    35   18   33 1
    36   19   34 1
    37   19   35 1
    38   21   36 1
    39   22   37 1
    40   23   38 1
    41   24   39 1
    42   25   40 1
    43   27   41 1
    44   27   42 1
    45   27   43 1
@<TRIPOS>PROPERTY_DATA
  Total_Score	| 2.7274
  Crash		| -0.9101
  Polar		| 0.0245
  FragIndex	| 1
  FragRMSD	| 0.529

