@<TRIPOS>MOLECULE
BindingDB_50300266
 43 45 0 0 0
SMALL
NO_CHARGES


@<TRIPOS>ATOM
1    C         5.5058    3.2067   26.3382  C     
2    C         4.1943    3.6924   26.1873  C     
3    C         3.8995    4.5961   25.1530  C     
4    C         4.9123    5.0149   24.2686  C     
5    C         6.2445    4.5337   24.4226  C     
6    C         6.5516    3.6036   25.4668  C     
7    O         2.6340    5.1188   25.0431  O     
8    C         1.5862    4.2137   24.6349  C     
9    C         0.5854    4.9428   23.8366  C     
10   O        -0.5386    4.3786   23.3311  O     
11   N        -1.1280    5.2717   22.5894  N     
12   C        -0.4143    6.4115   22.6286  C     
13   N         0.6582    6.2068   23.4211  N     
14   C        -0.6786    7.5861   21.8984  C     
15   C         7.8315    3.0484   25.6612  C     
16   O         8.5128    2.6931   24.7013  O     
17   C         8.4589    2.9455   26.8626  C     
18   C         8.4448    1.6144   27.5128  C     
19   C         9.1230    4.0324   27.3041  C     
20   Cl        7.4506    5.1949   23.4171  Cl    
21   C        -0.3786    8.8663   22.4305  C     
22   C        -0.6169   10.0304   21.6799  C     
23   C        -1.1385    9.9386   20.3755  C     
24   C        -1.4211    8.6727   19.8260  C     
25   C        -1.2079    7.5089   20.5849  C     
26   Cl       -1.4233   11.3410   19.4687  Cl    
27   Cl        4.5036    6.1244   23.0397  Cl    
28   C         9.2129    1.3778   28.8347  C     
29   H         5.6652    2.5376   27.0934  H     
30   H         3.4688    3.3876   26.8322  H     
31   H         1.9388    3.3875   24.0127  H     
32   H         1.1132    3.8017   25.5267  H     
33   H         7.4028    1.3419   27.7070  H     
34   H         8.8443    0.8786   26.7968  H     
35   H         9.6589    4.0423   28.1333  H     
36   H         9.1209    4.8924   26.8005  H     
37   H        -0.0048    8.9578   23.3790  H     
38   H        -0.4005   10.9460   22.0832  H     
39   H        -1.7835    8.5933   18.8732  H     
40   H        -1.3959    6.5998   20.1552  H     
41   H        10.2731    1.6187   28.6963  H     
42   H         9.1314    0.3346   29.1409  H     
43   H         8.8045    1.9724   29.6558  H     
@<TRIPOS>BOND
     1    1    2 2
     2    1    6 1
     3    2    3 1
     4    3    4 2
     5    3    7 1
     6    4    5 1
     7    4   27 1
     8    5    6 2
     9    5   20 1
    10    6   15 1
    11    7    8 1
    12    8    9 1
    13    9   10 1
    14    9   13 2
    15   10   11 1
    16   11   12 2
    17   12   13 1
    18   12   14 1
    19   14   21 2
    20   14   25 1
    21   15   16 2
    22   15   17 1
    23   17   18 1
    24   17   19 2
    25   18   28 1
    26   21   22 1
    27   22   23 2
    28   23   24 1
    29   23   26 1
    30   24   25 2
    31    1   29 1
    32    2   30 1
    33    8   31 1
    34    8   32 1
    35   18   33 1
    36   18   34 1
    37   19   35 1
    38   19   36 1
    39   21   37 1
    40   22   38 1
    41   24   39 1
    42   25   40 1
    43   28   41 1
    44   28   42 1
    45   28   43 1
@<TRIPOS>PROPERTY_DATA
  Total_Score	| 2.7145
  Crash		| -0.6300
  Polar		| 0.0196
  FragIndex	| 1
  FragRMSD	| 0.453

