@<TRIPOS>MOLECULE
BindingDB_50300265
 47 49 0 0 0
SMALL
NO_CHARGES


@<TRIPOS>ATOM
1    C         5.5512    3.3019   26.3737  C     
2    C         4.2419    3.7929   26.2135  C     
3    C         3.9308    4.6497   25.1432  C     
4    C         4.9488    5.0530   24.2546  C     
5    C         6.2732    4.5724   24.4160  C     
6    C         6.5829    3.6613   25.4761  C     
7    O         2.6451    5.1183   24.9938  O     
8    C         1.6751    4.1159   24.6221  C     
9    C         0.5014    4.7578   24.0065  C     
10   O        -0.7882    4.5129   24.3598  O     
11   N        -1.5545    5.1578   23.5318  N     
12   C        -0.7744    5.8339   22.6617  C     
13   N         0.5201    5.5860   22.9646  N     
14   C        -1.2186    6.5652   21.5505  C     
15   C         7.8545    3.0700   25.6338  C     
16   O         8.4747    2.6867   24.6480  O     
17   C         8.4969    2.9240   26.8347  C     
18   C         8.5093    1.5748   27.4472  C     
19   C         9.1475    3.9828   27.3294  C     
20   Cl        7.4984    5.1818   23.3956  Cl    
21   C        -2.1229    5.9798   20.6326  C     
22   C        -2.5176    6.6716   19.4757  C     
23   C        -2.0294    7.9719   19.2220  C     
24   C        -1.1473    8.5683   20.1377  C     
25   C        -0.7337    7.8776   21.2895  C     
26   O        -2.4728    8.6741   18.1375  O     
27   Cl        4.5375    6.1244   23.0000  Cl    
28   C        -1.7845    8.3572   16.9181  C     
29   C         9.2426    1.3858   28.7905  C     
30   H         5.7156    2.6603   27.1491  H     
31   H         3.5172    3.5083   26.8765  H     
32   H         2.0627    3.4253   23.8736  H     
33   H         1.3705    3.5511   25.5020  H     
34   H         7.4745    1.2578   27.6087  H     
35   H         8.9568    0.8782   26.7276  H     
36   H         9.6863    3.9336   28.1573  H     
37   H         9.1561    4.8675   26.8571  H     
38   H        -2.4604    5.0225   20.7826  H     
39   H        -3.1517    6.2226   18.8137  H     
40   H        -0.8020    9.5148   19.9651  H     
41   H        -0.0825    8.3243   21.9404  H     
42   H        -0.7066    8.5051   17.0111  H     
43   H        -2.1492    9.0246   16.1376  H     
44   H        -1.9842    7.3312   16.6041  H     
45   H        10.3087    1.5708   28.6723  H     
46   H         9.1149    0.3446   29.1361  H     
47   H         8.8375    2.0365   29.5628  H     
@<TRIPOS>BOND
     1    1    2 2
     2    1    6 1
     3    2    3 1
     4    3    4 2
     5    3    7 1
     6    4    5 1
     7    4   27 1
     8    5    6 2
     9    5   20 1
    10    6   15 1
    11    7    8 1
    12    8    9 1
    13    9   10 1
    14    9   13 2
    15   10   11 1
    16   11   12 2
    17   12   13 1
    18   12   14 1
    19   14   21 2
    20   14   25 1
    21   15   16 2
    22   15   17 1
    23   17   18 1
    24   17   19 2
    25   18   29 1
    26   21   22 1
    27   22   23 2
    28   23   24 1
    29   23   26 1
    30   24   25 2
    31   26   28 1
    32    1   30 1
    33    2   31 1
    34    8   32 1
    35    8   33 1
    36   18   34 1
    37   18   35 1
    38   19   36 1
    39   19   37 1
    40   21   38 1
    41   22   39 1
    42   24   40 1
    43   25   41 1
    44   28   42 1
    45   28   43 1
    46   28   44 1
    47   29   45 1
    48   29   46 1
    49   29   47 1
@<TRIPOS>PROPERTY_DATA
  Total_Score	| 2.8173
  Crash		| -1.0088
  Polar		| 0.0218
  FragIndex	| 1
  FragRMSD	| 0.556

