@<TRIPOS>MOLECULE
BindingDB_50186225
 99 101 0 0 0
SMALL
NO_CHARGES


@<TRIPOS>ATOM
1    C         3.8366    4.7163   25.2801  C     
2    C         4.8344    5.1133   24.3615  C     
3    C         6.1479    4.5807   24.4543  C     
4    C         6.4829    3.6521   25.4890  C     
5    C         5.4559    3.2698   26.3888  C     
6    C         4.1573    3.7936   26.2885  C     
7    Cl        4.4212    6.2767   23.1884  Cl    
8    Cl        7.3334    5.1544   23.3676  Cl    
9    C         7.7700    3.1002   25.6555  C     
10   C         8.3570    2.8824   26.8623  C     
11   O         8.4295    2.7739   24.6735  O     
12   C         8.5587    1.6243   27.3117  C     
13   O         2.6013    5.3220   25.3134  O     
14   C         8.7659    4.0414   27.6540  C     
15   C        -0.0107    1.3783   24.1499  C     
16   C        -3.8008    6.3157   22.9219  C     
17   C        -4.2843    5.7626   24.1298  C     
18   C        -5.3352    6.4070   24.8423  C     
19   C        -5.9329    7.6032   24.3243  C     
20   C        -5.4370    8.1161   23.1012  C     
21   C        -4.4015    7.4812   22.4084  C     
22   Cl       -3.5621    4.3275   24.7049  Cl    
23   Cl       -5.8113    5.7644   26.3531  Cl    
24   C        -6.9819    8.2823   24.9590  C     
25   C        -6.8347    9.4970   25.5673  C     
26   O        -8.0997    7.7765   25.0015  O     
27   C        -6.5308    9.5453   27.0072  C     
28   C        -6.9848   10.6355   24.8525  C     
29   C        -7.7475    9.1751   27.8919  C     
30   O        -2.8300    5.6584   22.1886  O     
31   C        -4.3899    3.8470   18.4092  C     
32   C        -4.8351    3.1825   17.2433  C     
33   C        -4.2708    1.9519   16.8185  C     
34   C        -3.2653    1.3760   17.6426  C     
35   C        -2.8065    2.0062   18.8250  C     
36   C        -3.3733    3.2429   19.1880  C     
37   C        -4.6389    1.3574   15.6072  C     
38   N        -5.6811    1.7263   14.8877  N     
39   O        -3.9860    0.4399   15.1215  O     
40   C        -1.6813    1.4335   19.6157  C     
41   N        -1.8352    1.5880   21.0296  N     
42   C        -1.1905    0.8794   21.9599  C     
43   C        -1.3400    1.1967   23.3706  C     
44   O        -0.5211   -0.0989   21.6504  O     
45   C        -4.8438    5.2235   18.7271  C     
46   N        -3.7827    6.1177   18.3820  N     
47   C        -3.7709    7.4420   18.4671  C     
48   C        -2.5652    8.1679   18.0995  C     
49   O        -4.7096    8.0615   18.9626  O     
50   C        -1.6735    8.5064   19.3229  C     
51   N        -1.5371    7.3842   20.1938  N     
52   C        -1.3277    7.4083   21.5036  C     
53   O        -1.1170    8.4571   22.1095  O     
54   C        -1.4814    6.1721   22.2427  C     
55   N         0.6063    2.6533   23.9090  N     
56   C         1.1101    3.4781   24.8317  C     
57   C         1.5793    4.7917   24.4429  C     
58   O         1.0875    3.2101   26.0210  O     
59   H         5.6368    2.5911   27.1318  H     
60   H         3.4502    3.5118   26.9686  H     
61   H         8.9994    1.4519   28.1783  H     
62   H         8.2808    0.8399   26.7701  H     
63   H         9.4733    4.6522   27.0848  H     
64   H         9.2490    3.7679   28.5942  H     
65   H         7.8909    4.6510   27.8947  H     
66   H        -0.2240    1.2264   25.2141  H     
67   H         0.6954    0.5962   23.8557  H     
68   H        -5.8356    8.9601   22.6812  H     
69   H        -4.0828    7.8690   21.5158  H     
70   H        -5.7022    8.8625   27.2244  H     
71   H        -6.1951   10.5413   27.3177  H     
72   H        -6.8901   11.5300   25.2777  H     
73   H        -7.2017   10.6070   23.8786  H     
74   H        -8.5749    9.8746   27.7219  H     
75   H        -7.4518    9.2257   28.9447  H     
76   H        -8.0837    8.1576   27.6733  H     
77   H        -5.5454    3.6413   16.6655  H     
78   H        -2.8335    0.4915   17.3611  H     
79   H        -3.0208    3.7353   20.0103  H     
80   H        -5.8820    1.2750   14.0534  H     
81   H        -6.2666    2.4325   15.1953  H     
82   H        -1.5600    0.3718   19.3812  H     
83   H        -0.7560    1.9366   19.3203  H     
84   H        -2.4114    2.3052   21.3399  H     
85   H        -1.8876    0.3717   23.8352  H     
86   H        -1.9450    2.0972   23.5031  H     
87   H        -5.7729    5.4705   18.2042  H     
88   H        -5.0429    5.3147   19.8012  H     
89   H        -2.9857    5.7012   18.0147  H     
90   H        -1.9810    7.5788   17.3791  H     
91   H        -2.8437    9.0994   17.5892  H     
92   H        -0.6820    8.8121   18.9823  H     
93   H        -2.1296    9.3480   19.8507  H     
94   H        -1.7319    6.5132   19.8188  H     
95   H        -1.1529    6.2690   23.2834  H     
96   H        -0.8415    5.4244   21.7686  H     
97   H         0.6702    2.9368   22.9815  H     
98   H         0.7283    5.4709   24.5161  H     
99   H         1.8849    4.8040   23.3956  H     
@<TRIPOS>BOND
     1    1    2 2
     2    1    6 1
     3    1   13 1
     4    2    3 1
     5    2    7 1
     6    3    4 2
     7    3    8 1
     8    4    5 1
     9    4    9 1
    10    5    6 2
    11    9   10 1
    12    9   11 2
    13   10   12 2
    14   10   14 1
    15   13   57 1
    16   15   43 1
    17   15   55 1
    18   16   17 2
    19   16   21 1
    20   16   30 1
    21   17   18 1
    22   17   22 1
    23   18   19 2
    24   18   23 1
    25   19   20 1
    26   19   24 1
    27   20   21 2
    28   24   25 1
    29   24   26 2
    30   25   27 1
    31   25   28 2
    32   27   29 1
    33   30   54 1
    34   31   32 2
    35   31   36 1
    36   31   45 1
    37   32   33 1
    38   33   34 2
    39   33   37 1
    40   34   35 1
    41   35   36 2
    42   35   40 1
    43   37   38 am
    44   37   39 2
    45   40   41 1
    46   41   42 am
    47   42   43 1
    48   42   44 2
    49   45   46 1
    50   46   47 am
    51   47   48 1
    52   47   49 2
    53   48   50 1
    54   50   51 1
    55   51   52 am
    56   52   53 2
    57   52   54 1
    58   55   56 am
    59   56   57 1
    60   56   58 2
    61    5   59 1
    62    6   60 1
    63   12   61 1
    64   12   62 1
    65   14   63 1
    66   14   64 1
    67   14   65 1
    68   15   66 1
    69   15   67 1
    70   20   68 1
    71   21   69 1
    72   27   70 1
    73   27   71 1
    74   28   72 1
    75   28   73 1
    76   29   74 1
    77   29   75 1
    78   29   76 1
    79   32   77 1
    80   34   78 1
    81   36   79 1
    82   38   80 1
    83   38   81 1
    84   40   82 1
    85   40   83 1
    86   41   84 1
    87   43   85 1
    88   43   86 1
    89   45   87 1
    90   45   88 1
    91   46   89 1
    92   48   90 1
    93   48   91 1
    94   50   92 1
    95   50   93 1
    96   51   94 1
    97   54   95 1
    98   54   96 1
    99   55   97 1
   100   57   98 1
   101   57   99 1
@<TRIPOS>PROPERTY_DATA
  Total_Score	| 4.0435
  Crash		| -2.4655
  Polar		| 5.0059
  FragIndex	| 1
  FragRMSD	| 0.217

