@<TRIPOS>MOLECULE
BindingDB_50186228
 82 84 0 0 0
SMALL
NO_CHARGES


@<TRIPOS>ATOM
1    C        -1.7206    6.3103   22.8397  C     
2    C        -2.3472    5.8510   21.6656  C     
3    C        -2.1959    6.5100   20.4194  C     
4    C        -1.3442    7.6453   20.3793  C     
5    C        -0.6811    8.1200   21.5380  C     
6    C        -0.9150    7.4759   22.7652  C     
7    C        -2.8876    6.0684   19.2783  C     
8    N        -2.8250    6.6594   18.1021  N     
9    O        -3.6138    5.0854   19.3135  O     
10   C         0.2457    9.2771   21.4382  C     
11   N         1.5901    8.7920   21.3513  N     
12   C         2.6050    9.3314   20.6759  C     
13   C         6.2222    9.3706   20.6176  C     
14   C         6.9112    9.5704   21.8241  C     
15   C         8.2651    9.2123   21.9464  C     
16   C         8.9709    8.6384   20.8596  C     
17   C         8.2751    8.4527   19.6271  C     
18   C         6.9102    8.8390   19.5038  C     
19   Cl        6.0745    8.7064   18.0284  Cl    
20   Cl        9.0795    7.8253   18.2629  Cl    
21   C        10.3029    8.2597   21.0495  C     
22   O        10.6658    7.1256   20.7506  O     
23   C        11.2802    9.1269   21.4324  C     
24   C        12.0044    8.9048   22.6883  C     
25   C        11.6669   10.0943   20.5767  C     
26   C        11.9212   10.0896   23.6850  C     
27   O         4.9142    9.7853   20.5579  O     
28   C         3.9285    8.7549   20.7705  C     
29   O         2.4564   10.3503   20.0030  O     
30   C        -1.8288    5.5637   24.1315  C     
31   N        -0.6748    4.8536   24.6131  N     
32   C         0.5219    4.6858   24.0470  C     
33   C         1.5844    4.0113   24.7356  C     
34   O         0.8024    5.1554   22.9462  O     
35   O         2.6198    4.9771   25.0075  O     
36   C         3.8986    4.5024   25.1610  C     
37   C         4.9172    4.9536   24.2935  C     
38   C         6.2576    4.5054   24.4640  C     
39   C         6.5920    3.6044   25.5274  C     
40   C         5.5599    3.2389   26.4324  C     
41   C         4.2401    3.6764   26.2497  C     
42   Cl        4.5017    6.0700   23.0828  Cl    
43   Cl        7.4717    5.1441   23.4507  Cl    
44   C         7.8795    3.0613   25.6906  C     
45   C         8.5274    2.9060   26.8878  C     
46   O         8.4922    2.6621   24.7056  O     
47   C         8.5182    1.5609   27.4953  C     
48   C         9.1983    3.9684   27.3852  C     
49   C         9.1917    1.3384   28.8851  C     
50   H        -2.9353    5.0161   21.7250  H     
51   H        -1.1820    8.1333   19.4955  H     
52   H        -0.4325    7.8017   23.6088  H     
53   H        -3.3366    6.3006   17.3550  H     
54   H        -2.2858    7.4577   17.9720  H     
55   H        -0.0440    9.9057   20.5967  H     
56   H         0.1804    9.8983   22.3335  H     
57   H         1.7909    7.9872   21.8628  H     
58   H         6.4251    9.9854   22.6246  H     
59   H         8.7187    9.3523   22.8521  H     
60   H        11.6291    8.0148   23.2057  H     
61   H        13.0585    8.7139   22.4614  H     
62   H        12.4264   10.6978   20.7963  H     
63   H        11.2177   10.2252   19.6985  H     
64   H        12.4747   10.9524   23.3099  H     
65   H        12.3538    9.7937   24.6415  H     
66   H        10.8833   10.3824   23.8509  H     
67   H         4.0643    8.2782   21.7478  H     
68   H         4.0196    7.9821   20.0045  H     
69   H        -2.0993    6.3036   24.8931  H     
70   H        -2.6568    4.8454   24.0945  H     
71   H        -0.7955    4.4209   25.4722  H     
72   H         1.2334    3.5811   25.6811  H     
73   H         1.9282    3.1864   24.1018  H     
74   H         5.7487    2.6305   27.2279  H     
75   H         3.5173    3.3951   26.9138  H     
76   H         7.4750    1.2483   27.6109  H     
77   H         8.9964    0.8527   26.8037  H     
78   H         9.7114    3.9079   28.2393  H     
79   H         9.2042    4.8443   26.9128  H     
80   H        10.2663    1.5670   28.8270  H     
81   H         9.0629    0.3066   29.1803  H     
82   H         8.7256    1.9764   29.6457  H     
@<TRIPOS>BOND
     1    1    2 2
     2    1    6 1
     3    1   30 1
     4    2    3 1
     5    3    4 2
     6    3    7 1
     7    4    5 1
     8    5    6 2
     9    5   10 1
    10    7    8 am
    11    7    9 2
    12   10   11 1
    13   11   12 am
    14   12   28 1
    15   12   29 2
    16   13   14 2
    17   13   18 1
    18   13   27 1
    19   14   15 1
    20   15   16 2
    21   16   17 1
    22   16   21 1
    23   17   18 2
    24   17   20 1
    25   18   19 1
    26   21   22 2
    27   21   23 1
    28   23   24 1
    29   23   25 2
    30   24   26 1
    31   27   28 1
    32   30   31 1
    33   31   32 am
    34   32   33 1
    35   32   34 2
    36   33   35 1
    37   35   36 1
    38   36   37 2
    39   36   41 1
    40   37   38 1
    41   37   42 1
    42   38   39 2
    43   38   43 1
    44   39   40 1
    45   39   44 1
    46   40   41 2
    47   44   45 1
    48   44   46 2
    49   45   47 1
    50   45   48 2
    51   47   49 1
    52    2   50 1
    53    4   51 1
    54    6   52 1
    55    8   53 1
    56    8   54 1
    57   10   55 1
    58   10   56 1
    59   11   57 1
    60   14   58 1
    61   15   59 1
    62   24   60 1
    63   24   61 1
    64   25   62 1
    65   25   63 1
    66   26   64 1
    67   26   65 1
    68   26   66 1
    69   28   67 1
    70   28   68 1
    71   30   69 1
    72   30   70 1
    73   31   71 1
    74   33   72 1
    75   33   73 1
    76   40   74 1
    77   41   75 1
    78   47   76 1
    79   47   77 1
    80   48   78 1
    81   48   79 1
    82   49   80 1
    83   49   81 1
    84   49   82 1
@<TRIPOS>PROPERTY_DATA
  Total_Score	| 4.3340
  Crash		| -1.5089
  Polar		| 1.4272
  FragIndex	| 1
  FragRMSD	| 0.635

