@<TRIPOS>MOLECULE
BindingDB_50186230
 105 107 0 0 0
SMALL
NO_CHARGES


@<TRIPOS>ATOM
1    C        11.6352    9.0497   22.0536  C     
2    C        12.8712    9.4847   21.5212  C     
3    C        14.0419    9.4732   22.3285  C     
4    C        13.9745    9.0510   23.6924  C     
5    C        12.7200    8.6180   24.1927  C     
6    C        11.5712    8.6175   23.3883  C     
7    Cl       12.8863   10.0663   19.9219  Cl    
8    Cl       15.4944   10.0772   21.6689  Cl    
9    C        15.0735    9.0773   24.5705  C     
10   C        15.0922    9.8492   25.7036  C     
11   O        16.0835    8.4307   24.3122  O     
12   C        15.7554    9.4434   26.8009  C     
13   O        10.4559    9.1485   21.3571  O     
14   C        14.3780   11.1223   25.7404  C     
15   C         5.6016    8.8857   20.5761  C     
16   C        -1.7756    7.5021   21.9745  C     
17   C        -2.5366    8.6812   22.1406  C     
18   C        -1.9784    9.8630   22.6934  C     
19   C        -0.6090    9.8299   23.0650  C     
20   C         0.1859    8.6736   22.9009  C     
21   C        -0.4191    7.5140   22.3709  C     
22   C        -2.7389   11.0279   22.8657  C     
23   N        -4.0153   11.1240   22.5597  N     
24   O        -2.2488   12.0524   23.3211  O     
25   C         1.6314    8.6803   23.2580  C     
26   N         2.4661    8.4609   22.1128  N     
27   C         3.2927    9.3364   21.5518  C     
28   C         4.0605    8.9860   20.3632  C     
29   O         3.4079   10.4687   22.0066  O     
30   C        -2.3638    6.2680   21.3861  C     
31   N        -2.4285    5.2405   22.3745  N     
32   C        -2.5722    3.9422   22.1901  C     
33   C        -2.5870    3.0204   23.3173  C     
34   O        -2.6105    3.4765   21.0582  O     
35   C        -3.0999    3.5142   24.7100  C     
36   C        -2.0877    4.1253   25.7266  C     
37   N        -0.7521    3.6512   25.5214  N     
38   C         6.2498    7.5806   20.0436  C     
39   N         7.6827    7.6259   20.0102  N     
40   C         0.2384    4.3601   24.9999  C     
41   C         1.5620    3.7731   24.9132  C     
42   O         0.0403    5.5024   24.6049  O     
43   O         2.5647    4.6965   25.3785  O     
44   C         3.8647    4.2737   25.2834  C     
45   C         4.7655    4.8776   24.3798  C     
46   C         6.1481    4.5516   24.4190  C     
47   C         6.6397    3.5931   25.3602  C     
48   C         5.6981    2.9852   26.2329  C     
49   C         4.3398    3.3314   26.2094  C     
50   Cl        4.1351    6.0100   23.2805  Cl    
51   Cl        7.2021    5.4176   23.3944  Cl    
52   C         7.9967    3.2238   25.4585  C     
53   C         8.6086    2.8654   26.6253  C     
54   O         8.7157    3.2040   24.4671  O     
55   C         8.2249    3.5243   27.8751  C     
56   C         9.5860    1.9403   26.6168  C     
57   C         8.2056    2.5619   29.0852  C     
58   C         8.4905    7.9095   21.0272  C     
59   C         9.9319    7.9018   20.8591  C     
60   O         8.0465    8.1585   22.1412  O     
61   H        12.6233    8.2987   25.1614  H     
62   H        10.6757    8.3248   23.7887  H     
63   H        15.7660    9.9955   27.6257  H     
64   H        16.2467    8.5833   26.8200  H     
65   H        13.9182   11.3748   24.7819  H     
66   H        15.0682   11.9270   26.0018  H     
67   H        13.5889   11.0820   26.4952  H     
68   H         6.0742    9.7192   20.0487  H     
69   H         5.8319    9.0069   21.6366  H     
70   H        -3.5172    8.6657   21.8540  H     
71   H        -0.1732   10.6641   23.4653  H     
72   H         0.1395    6.6629   22.2628  H     
73   H        -4.4831   11.9617   22.7003  H     
74   H        -4.4947   10.3676   22.1916  H     
75   H         1.9052    9.6102   23.7645  H     
76   H         1.8357    7.8778   23.9694  H     
77   H         2.4235    7.5801   21.7124  H     
78   H         3.8895    9.7476   19.5949  H     
79   H         3.6731    8.0505   19.9515  H     
80   H        -3.3720    6.4395   20.9999  H     
81   H        -1.7340    5.9551   20.5523  H     
82   H        -2.3431    5.5168   23.2870  H     
83   H        -3.2281    2.1786   23.0356  H     
84   H        -1.5778    2.6182   23.4320  H     
85   H        -3.8996    4.2410   24.5454  H     
86   H        -3.5580    2.6491   25.1979  H     
87   H        -2.1109    5.2246   25.7000  H     
88   H        -2.4025    3.8369   26.7345  H     
89   H        -0.5439    2.7502   25.8112  H     
90   H         5.9225    6.7290   20.6375  H     
91   H         5.9105    7.4178   19.0188  H     
92   H         8.1031    7.3975   19.1632  H     
93   H         1.5813    2.8673   25.5267  H     
94   H         1.7531    3.4954   23.8710  H     
95   H         5.9905    2.2770   26.9119  H     
96   H         3.6981    2.9042   26.8816  H     
97   H         8.9227    4.3443   28.0821  H     
98   H         7.2278    3.9739   27.7951  H     
99   H        10.0520    1.6839   27.4557  H     
100  H         9.8616    1.4830   25.7810  H     
101  H         7.5161    1.7341   28.9059  H     
102  H         7.8639    3.1003   29.9685  H     
103  H         9.2005    2.1591   29.2860  H     
104  H        10.2014    7.7856   19.8041  H     
105  H        10.3429    7.0490   21.4100  H     
@<TRIPOS>BOND
     1    1    2 2
     2    1    6 1
     3    1   13 1
     4    2    3 1
     5    2    7 1
     6    3    4 2
     7    3    8 1
     8    4    5 1
     9    4    9 1
    10    5    6 2
    11    9   10 1
    12    9   11 2
    13   10   12 2
    14   10   14 1
    15   13   59 1
    16   15   28 1
    17   15   38 1
    18   16   17 2
    19   16   21 1
    20   16   30 1
    21   17   18 1
    22   18   19 2
    23   18   22 1
    24   19   20 1
    25   20   21 2
    26   20   25 1
    27   22   23 am
    28   22   24 2
    29   25   26 1
    30   26   27 am
    31   27   28 1
    32   27   29 2
    33   30   31 1
    34   31   32 am
    35   32   33 1
    36   32   34 2
    37   33   35 1
    38   35   36 1
    39   36   37 1
    40   37   40 am
    41   38   39 1
    42   39   58 am
    43   40   41 1
    44   40   42 2
    45   41   43 1
    46   43   44 1
    47   44   45 2
    48   44   49 1
    49   45   46 1
    50   45   50 1
    51   46   47 2
    52   46   51 1
    53   47   48 1
    54   47   52 1
    55   48   49 2
    56   52   53 1
    57   52   54 2
    58   53   55 1
    59   53   56 2
    60   55   57 1
    61   58   59 1
    62   58   60 2
    63    5   61 1
    64    6   62 1
    65   12   63 1
    66   12   64 1
    67   14   65 1
    68   14   66 1
    69   14   67 1
    70   15   68 1
    71   15   69 1
    72   17   70 1
    73   19   71 1
    74   21   72 1
    75   23   73 1
    76   23   74 1
    77   25   75 1
    78   25   76 1
    79   26   77 1
    80   28   78 1
    81   28   79 1
    82   30   80 1
    83   30   81 1
    84   31   82 1
    85   33   83 1
    86   33   84 1
    87   35   85 1
    88   35   86 1
    89   36   87 1
    90   36   88 1
    91   37   89 1
    92   38   90 1
    93   38   91 1
    94   39   92 1
    95   41   93 1
    96   41   94 1
    97   48   95 1
    98   49   96 1
    99   55   97 1
   100   55   98 1
   101   56   99 1
   102   56  100 1
   103   57  101 1
   104   57  102 1
   105   57  103 1
   106   59  104 1
   107   59  105 1
@<TRIPOS>PROPERTY_DATA
  Total_Score	| 2.0133
  Crash		| -2.9096
  Polar		| 2.2373
  FragIndex	| 1
  FragRMSD	| 0.917

