@<TRIPOS>MOLECULE
BindingDB_50300263
 43 45 0 0 0
SMALL
NO_CHARGES


@<TRIPOS>ATOM
1    C         5.4937    3.2368   26.3886  C     
2    C         4.1830    3.7153   26.2525  C     
3    C         3.8592    4.6079   25.2121  C     
4    C         4.8680    5.0270   24.3162  C     
5    C         6.1986    4.5417   24.4508  C     
6    C         6.5275    3.6204   25.4939  C     
7    O         2.5894    5.1059   25.1282  O     
8    C         1.5998    4.1900   24.6094  C     
9    C         0.6004    4.9111   23.8152  C     
10   O        -0.5457    4.3571   23.3598  O     
11   N        -1.1467    5.2271   22.6085  N     
12   C        -0.4080    6.3517   22.5905  C     
13   N         0.6864    6.1619   23.3464  N     
14   C        -0.7265    7.5237   21.8819  C     
15   C         7.8077    3.0623   25.6550  C     
16   O         8.4801    2.7619   24.6753  O     
17   C         8.4322    2.9290   26.8623  C     
18   C         8.4591    1.5908   27.4838  C     
19   C         9.0467    4.0023   27.3883  C     
20   Cl        7.3986    5.1641   23.4096  Cl    
21   C        -1.2826    7.4445   20.5809  C     
22   C        -1.6012    8.6132   19.8702  C     
23   C        -1.3959    9.8763   20.4574  C     
24   C        -0.8538    9.9658   21.7532  C     
25   C        -0.5055    8.7966   22.4551  C     
26   F        -1.7066   10.9614   19.8019  F     
27   Cl        4.4425    6.1497   23.1112  Cl    
28   C         9.2233    1.3998   28.8086  C     
29   H         5.6714    2.5879   27.1578  H     
30   H         3.4655    3.4223   26.9156  H     
31   H         2.0435    3.4306   23.9480  H     
32   H         1.1038    3.6861   25.4391  H     
33   H         7.4276    1.2775   27.6653  H     
34   H         8.8878    0.8915   26.7590  H     
35   H         9.5308    3.9538   28.2463  H     
36   H         9.0491    4.8857   26.9169  H     
37   H        -1.4337    6.5335   20.1347  H     
38   H        -1.9883    8.5425   18.9253  H     
39   H        -0.7092   10.8801   22.1882  H     
40   H        -0.1193    8.8836   23.4009  H     
41   H        10.2894    1.5777   28.6914  H     
42   H         9.0970    0.3459   29.1352  H     
43   H         8.8328    2.0282   29.6036  H     
@<TRIPOS>BOND
     1    1    2 2
     2    1    6 1
     3    2    3 1
     4    3    4 2
     5    3    7 1
     6    4    5 1
     7    4   27 1
     8    5    6 2
     9    5   20 1
    10    6   15 1
    11    7    8 1
    12    8    9 1
    13    9   10 1
    14    9   13 2
    15   10   11 1
    16   11   12 2
    17   12   13 1
    18   12   14 1
    19   14   21 2
    20   14   25 1
    21   15   16 2
    22   15   17 1
    23   17   18 1
    24   17   19 2
    25   18   28 1
    26   21   22 1
    27   22   23 2
    28   23   24 1
    29   23   26 1
    30   24   25 2
    31    1   29 1
    32    2   30 1
    33    8   31 1
    34    8   32 1
    35   18   33 1
    36   18   34 1
    37   19   35 1
    38   19   36 1
    39   21   37 1
    40   22   38 1
    41   24   39 1
    42   25   40 1
    43   28   41 1
    44   28   42 1
    45   28   43 1
@<TRIPOS>PROPERTY_DATA
  Total_Score	| 2.5883
  Crash		| -0.7484
  Polar		| 0.0150
  FragIndex	| 1
  FragRMSD	| 0.462

