@<TRIPOS>MOLECULE
BindingDB_50186231
 30 30 0 0 0
SMALL
NO_CHARGES


@<TRIPOS>ATOM
1    C         0.3747    4.6259   24.0914  C     
2    C         1.5633    3.9690   24.6528  C     
3    O         2.5361    4.9789   24.9851  O     
4    C         3.8213    4.5355   25.1356  C     
5    C         4.8400    4.9878   24.2759  C     
6    Cl        4.4224    6.1210   23.0778  Cl    
7    C         6.1703    4.5205   24.4325  C     
8    Cl        7.3837    5.1828   23.4296  Cl    
9    C         6.4985    3.6040   25.4757  C     
10   C         5.4662    3.1989   26.3524  C     
11   C         4.1482    3.6592   26.1939  C     
12   C         7.7955    3.0822   25.6480  C     
13   C         8.4059    2.9306   26.8616  C     
14   C         8.5076    1.5702   27.4348  C     
15   C         9.2174    1.4028   28.8001  C     
16   C         8.9655    4.0181   27.4213  C     
17   O         8.4740    2.7693   24.6797  O     
18   O        -0.8494    4.4312   24.6314  O     
19   O         0.4874    5.3783   22.9717  O     
20   H         1.2879    3.4072   25.5496  H     
21   H         1.9384    3.2731   23.9003  H     
22   H         5.6565    2.5418   27.1240  H     
23   H         3.4218    3.3524   26.8388  H     
24   H         7.4975    1.1756   27.5423  H     
25   H         9.0294    0.9349   26.7154  H     
26   H        10.2752    1.6451   28.7164  H     
27   H         9.1388    0.3443   29.1348  H     
28   H         8.7499    2.0205   29.5607  H     
29   H         9.4446    3.9660   28.2846  H     
30   H         8.9105    4.9168   26.9843  H     
@<TRIPOS>BOND
     1    1    2 1
     2    1   18 2
     3    1   19 1
     4    2    3 1
     5    3    4 1
     6    4    5 2
     7    4   11 1
     8    5    6 1
     9    5    7 1
    10    7    8 1
    11    7    9 2
    12    9   10 1
    13    9   12 1
    14   10   11 2
    15   12   13 1
    16   12   17 2
    17   13   14 1
    18   13   16 2
    19   14   15 1
    20    2   20 1
    21    2   21 1
    22   10   22 1
    23   11   23 1
    24   14   24 1
    25   14   25 1
    26   15   26 1
    27   15   27 1
    28   15   28 1
    29   16   29 1
    30   16   30 1
@<TRIPOS>PROPERTY_DATA
  Total_Score	| 2.1073
  Crash		| -0.6811
  Polar		| 0.0159
  FragIndex	| 1
  FragRMSD	| 0.253

