@<TRIPOS>MOLECULE
BindingDB_50300261
 36 37 0 0 0
SMALL
NO_CHARGES


@<TRIPOS>ATOM
1    C         5.5100    3.2720   26.2877  C     
2    C         4.2135    3.7735   26.1152  C     
3    C         3.9425    4.6750   25.0715  C     
4    C         4.9851    5.1002   24.2230  C     
5    C         6.2977    4.5906   24.3998  C     
6    C         6.5772    3.6460   25.4319  C     
7    O         2.6767    5.1673   24.9132  O     
8    C         1.6613    4.1956   24.5799  C     
9    C         0.6046    4.8379   23.7868  C     
10   O        -0.6176    4.2862   23.5578  O     
11   N        -1.2780    5.1055   22.7924  N     
12   C        -0.4973    6.1590   22.5286  C     
13   N         0.6887    5.9974   23.1457  N     
14   C        -0.8694    7.3032   21.6956  C     
15   C         7.8365    3.0459   25.6192  C     
16   O         8.5146    2.7059   24.6603  O     
17   C         8.4343    2.9115   26.8386  C     
18   C         8.5448    1.5553   27.4158  C     
19   C         8.9896    4.0078   27.3864  C     
20   Cl        7.5405    5.1971   23.4020  Cl    
21   Cl        4.6105    6.2402   23.0170  Cl    
22   C         9.2030    1.3821   28.7992  C     
23   H         5.6461    2.6026   27.0460  H     
24   H         3.4639    3.4755   26.7436  H     
25   H         2.0476    3.3616   23.9838  H     
26   H         1.2295    3.7999   25.4982  H     
27   H        -1.1289    6.9574   20.6932  H     
28   H        -0.0423    8.0132   21.6242  H     
29   H        -1.7323    7.8069   22.1390  H     
30   H         7.5403    1.1324   27.4995  H     
31   H         9.0909    0.9266   26.7027  H     
32   H         9.4767    3.9813   28.2381  H     
33   H         8.9426    4.8980   26.9320  H     
34   H        10.2570    1.6320   28.7723  H     
35   H         9.1276    0.3147   29.1040  H     
36   H         8.6987    1.9740   29.5609  H     
@<TRIPOS>BOND
     1    1    2 2
     2    1    6 1
     3    2    3 1
     4    3    4 2
     5    3    7 1
     6    4    5 1
     7    4   21 1
     8    5    6 2
     9    5   20 1
    10    6   15 1
    11    7    8 1
    12    8    9 1
    13    9   10 1
    14    9   13 2
    15   10   11 1
    16   11   12 2
    17   12   13 1
    18   12   14 1
    19   15   16 2
    20   15   17 1
    21   17   18 1
    22   17   19 2
    23   18   22 1
    24    1   23 1
    25    2   24 1
    26    8   25 1
    27    8   26 1
    28   14   27 1
    29   14   28 1
    30   14   29 1
    31   18   30 1
    32   18   31 1
    33   19   32 1
    34   19   33 1
    35   22   34 1
    36   22   35 1
    37   22   36 1
@<TRIPOS>PROPERTY_DATA
  Total_Score	| 2.6726
  Crash		| -0.7491
  Polar		| 0.0170
  FragIndex	| 1
  FragRMSD	| 0.514

