@<TRIPOS>MOLECULE
BindingDB_50186229
 96 98 0 0 0
SMALL
NO_CHARGES


@<TRIPOS>ATOM
1    C         3.8366    4.3893   24.8192  C     
2    C         4.8938    4.9704   24.0836  C     
3    C         6.2467    4.6202   24.3659  C     
4    C         6.5533    3.6801   25.4015  C     
5    C         5.4739    3.1945   26.1830  C     
6    C         4.1429    3.5349   25.8943  C     
7    C         7.8475    3.2012   25.6605  C     
8    O         8.5479    2.8162   24.7378  O     
9    C         8.3765    3.0449   26.9123  C     
10   C         8.3026    1.7259   27.5616  C     
11   C         8.8577    4.1344   27.5484  C     
12   C         9.2547    1.4613   28.7529  C     
13   C        -3.7256    8.5005   22.9312  C     
14   C        -2.4787    9.1184   22.6844  C     
15   C        -1.4300    8.4461   22.0095  C     
16   C        -1.6711    7.1135   21.5908  C     
17   C        -2.9052    6.4650   21.8238  C     
18   C        -3.9160    7.1633   22.5139  C     
19   C        -0.2038    9.0766   21.7280  C     
20   N         0.0182   10.3579   21.9288  N     
21   O         0.7346    8.4589   21.2441  O     
22   C        -3.1145    5.0809   21.3187  C     
23   N        -2.1672    4.1722   21.8899  N     
24   C        -2.2554    3.6031   23.0814  C     
25   C        -1.1285    2.8531   23.5932  C     
26   O        -3.2851    3.6915   23.7568  O     
27   C        -4.8348    9.2694   23.5462  C     
28   N        -4.8206    9.1403   24.9711  N     
29   C        -5.8186    8.7154   25.7381  C     
30   C        -5.6638    8.7074   27.1827  C     
31   O        -6.8847    8.3459   25.2622  O     
32   N         0.0157    3.6759   23.8453  N     
33   N        -4.5576    7.9182   27.6338  N     
34   C         0.2128    4.4268   24.9188  C     
35   O        -0.6554    4.5331   25.7817  O     
36   C         1.5156    4.9784   25.2384  C     
37   O         2.5444    4.4918   24.3446  O     
38   Cl        4.5017    6.1339   22.9047  Cl    
39   Cl        7.4880    5.3757   23.4836  Cl    
40   C        -4.5144    6.5951   27.7269  C     
41   C        -3.3305    5.9346   28.2332  C     
42   O        -5.4696    5.9004   27.3969  O     
43   O        -3.7192    5.0649   29.3152  O     
44   C        -2.6746    4.4735   29.9746  C     
45   C        -2.1322    3.2377   29.5488  C     
46   C        -1.1041    2.6110   30.2949  C     
47   C        -0.6162    3.2046   31.5046  C     
48   C        -1.1656    4.4565   31.8883  C     
49   C        -2.1821    5.0720   31.1551  C     
50   Cl       -2.7768    2.5393   28.1328  Cl    
51   Cl       -0.4118    1.1801   29.6796  Cl    
52   C         0.3335    2.5995   32.3479  C     
53   C         0.1355    1.4009   32.9754  C     
54   O         1.2572    3.2769   32.7909  O     
55   C         0.9878    0.2282   32.7246  C     
56   C        -0.8368    1.3143   33.9156  C     
57   C         2.2931    0.4053   31.9097  C     
58   H         5.6174    2.5435   26.9544  H     
59   H         3.3933    3.1595   26.4790  H     
60   H         7.2843    1.5770   27.9242  H     
61   H         8.4938    0.9338   26.8293  H     
62   H         9.1963    4.0813   28.4839  H     
63   H         8.8864    5.0246   27.0999  H     
64   H        10.2891    1.6631   28.4745  H     
65   H         9.1754    0.4228   29.0735  H     
66   H         8.9925    2.0876   29.6061  H     
67   H        -2.3469   10.0820   22.9984  H     
68   H        -0.9392    6.5999   21.0916  H     
69   H        -4.8124    6.7046   22.6952  H     
70   H         0.8769   10.7405   21.6920  H     
71   H        -0.6773   10.9306   22.2824  H     
72   H        -4.1321    4.7214   21.4945  H     
73   H        -2.9556    5.0847   20.2397  H     
74   H        -1.3469    4.0117   21.3822  H     
75   H        -1.3964    2.3464   24.5207  H     
76   H        -0.8574    2.0857   22.8647  H     
77   H        -4.7311   10.3316   23.3093  H     
78   H        -5.7871    8.9577   23.1074  H     
79   H        -4.0050    9.4101   25.4239  H     
80   H        -5.5028    9.7360   27.5149  H     
81   H        -6.5741    8.3517   27.6766  H     
82   H         0.7439    3.6158   23.2105  H     
83   H        -3.7725    8.4090   27.9276  H     
84   H         1.4925    6.0797   25.1758  H     
85   H         1.7292    4.6855   26.2710  H     
86   H        -2.8742    5.3665   27.4186  H     
87   H        -2.5993    6.6681   28.5894  H     
88   H        -0.8548    4.9241   32.7494  H     
89   H        -2.5795    5.9601   31.4741  H     
90   H         1.2683   -0.2120   33.6871  H     
91   H         0.3829   -0.5152   32.1974  H     
92   H        -1.0083    0.4593   34.3863  H     
93   H        -1.4229    2.0851   34.1328  H     
94   H         2.0765    0.8346   30.9292  H     
95   H         2.7694   -0.5677   31.7625  H     
96   H         2.9949    1.0520   32.4418  H     
@<TRIPOS>BOND
     1    1    2 2
     2    1    6 1
     3    1   37 1
     4    2    3 1
     5    2   38 1
     6    3    4 2
     7    3   39 1
     8    4    5 1
     9    4    7 1
    10    5    6 2
    11    7    8 2
    12    7    9 1
    13    9   10 1
    14    9   11 2
    15   10   12 1
    16   13   14 2
    17   13   18 1
    18   13   27 1
    19   14   15 1
    20   15   16 2
    21   15   19 1
    22   16   17 1
    23   17   18 2
    24   17   22 1
    25   19   20 am
    26   19   21 2
    27   22   23 1
    28   23   24 am
    29   24   25 1
    30   24   26 2
    31   25   32 1
    32   27   28 1
    33   28   29 am
    34   29   30 1
    35   29   31 2
    36   30   33 1
    37   32   34 am
    38   33   40 am
    39   34   35 2
    40   34   36 1
    41   36   37 1
    42   40   41 1
    43   40   42 2
    44   41   43 1
    45   43   44 1
    46   44   45 2
    47   44   49 1
    48   45   46 1
    49   45   50 1
    50   46   47 2
    51   46   51 1
    52   47   48 1
    53   47   52 1
    54   48   49 2
    55   52   53 1
    56   52   54 2
    57   53   55 1
    58   53   56 2
    59   55   57 1
    60    5   58 1
    61    6   59 1
    62   10   60 1
    63   10   61 1
    64   11   62 1
    65   11   63 1
    66   12   64 1
    67   12   65 1
    68   12   66 1
    69   14   67 1
    70   16   68 1
    71   18   69 1
    72   20   70 1
    73   20   71 1
    74   22   72 1
    75   22   73 1
    76   23   74 1
    77   25   75 1
    78   25   76 1
    79   27   77 1
    80   27   78 1
    81   28   79 1
    82   30   80 1
    83   30   81 1
    84   32   82 1
    85   33   83 1
    86   36   84 1
    87   36   85 1
    88   41   86 1
    89   41   87 1
    90   48   88 1
    91   49   89 1
    92   55   90 1
    93   55   91 1
    94   56   92 1
    95   56   93 1
    96   57   94 1
    97   57   95 1
    98   57   96 1
@<TRIPOS>PROPERTY_DATA
  Total_Score	| 0.1126
  Crash		| -1.5630
  Polar		| 1.4591
  FragIndex	| 1
  FragRMSD	| 0.598

