@<TRIPOS>MOLECULE
BindingDB_50186226
 62 63 0 0 0
SMALL
NO_CHARGES


@<TRIPOS>ATOM
1    C         3.8306    4.5384   25.0714  C     
2    C         4.1469    3.6366   26.0993  C     
3    C         5.4704    3.1915   26.2700  C     
4    C         6.5274    3.6193   25.4195  C     
5    C         6.1937    4.5620   24.3837  C     
6    C         4.8547    5.0172   24.2298  C     
7    Cl        4.4447    6.1625   23.0333  Cl    
8    Cl        7.4106    5.2316   23.4010  Cl    
9    C         7.8232    3.1149   25.6207  C     
10   O         8.5215    2.8232   24.6533  O     
11   C         8.4195    2.9749   26.8506  C     
12   C         8.5106    1.6227   27.4294  C     
13   C         8.9682    4.0534   27.4293  C     
14   C         9.2569    1.4418   28.7685  C     
15   C        -1.6582   -0.2896   22.6789  C     
16   C        -2.8968   -0.9427   22.8211  C     
17   C        -3.9745   -0.6778   21.9393  C     
18   C        -3.7484    0.2559   20.8868  C     
19   C        -2.5119    0.9213   20.7307  C     
20   C        -1.4729    0.6422   21.6468  C     
21   C        -5.2190   -1.3053   22.1204  C     
22   N        -6.2879   -1.0368   21.3955  N     
23   O        -5.3903   -2.1388   22.9954  O     
24   C        -2.3027    1.9315   19.6634  C     
25   N        -2.2006    3.2253   20.2677  N     
26   C        -3.1231    4.1727   20.2737  C     
27   C        -2.9371    5.4296   20.9813  C     
28   O        -4.1714    4.0313   19.6407  O     
29   C        -1.8044    5.4799   22.0727  C     
30   C        -1.9701    4.4255   23.2003  C     
31   N        -0.7424    4.0116   23.8039  N     
32   C         0.3582    4.7340   24.0048  C     
33   C         1.5178    4.0967   24.5991  C     
34   O         0.4095    5.9172   23.6717  O     
35   O         2.5571    5.0387   24.9766  O     
36   H         3.4166    3.2956   26.7336  H     
37   H         5.6486    2.5261   27.0307  H     
38   H         7.4907    1.2406   27.5779  H     
39   H         8.9899    0.9682   26.6941  H     
40   H         9.4527    3.9889   28.2853  H     
41   H         8.9317    4.9542   26.9846  H     
42   H        10.3247    1.6079   28.6490  H     
43   H         9.1231    0.3989   29.1315  H     
44   H         8.8692    2.1011   29.5456  H     
45   H        -0.8994   -0.4833   23.3353  H     
46   H        -3.0032   -1.5961   23.5944  H     
47   H        -4.5045    0.4723   20.2284  H     
48   H        -0.5685    1.1166   21.5626  H     
49   H        -7.1216   -1.4999   21.5820  H     
50   H        -6.2553   -0.3794   20.6854  H     
51   H        -1.3746    1.7190   19.1411  H     
52   H        -3.1137    1.9135   18.9323  H     
53   H        -1.3931    3.3944   20.7710  H     
54   H        -2.7230    6.1813   20.2244  H     
55   H        -3.8711    5.7160   21.4726  H     
56   H        -0.8411    5.3766   21.5821  H     
57   H        -1.8241    6.4860   22.5273  H     
58   H        -2.6472    4.8135   23.9705  H     
59   H        -2.4348    3.5248   22.7975  H     
60   H        -0.7115    3.0926   24.1147  H     
61   H         1.1950    3.5655   25.4997  H     
62   H         1.9020    3.3638   23.8665  H     
@<TRIPOS>BOND
     1    1    2 2
     2    1    6 1
     3    1   35 1
     4    2    3 1
     5    3    4 2
     6    4    5 1
     7    4    9 1
     8    5    6 2
     9    5    8 1
    10    6    7 1
    11    9   10 2
    12    9   11 1
    13   11   12 1
    14   11   13 2
    15   12   14 1
    16   15   16 2
    17   15   20 1
    18   16   17 1
    19   17   18 2
    20   17   21 1
    21   18   19 1
    22   19   20 2
    23   19   24 1
    24   21   22 am
    25   21   23 2
    26   24   25 1
    27   25   26 am
    28   26   27 1
    29   26   28 2
    30   27   29 1
    31   29   30 1
    32   30   31 1
    33   31   32 am
    34   32   33 1
    35   32   34 2
    36   33   35 1
    37    2   36 1
    38    3   37 1
    39   12   38 1
    40   12   39 1
    41   13   40 1
    42   13   41 1
    43   14   42 1
    44   14   43 1
    45   14   44 1
    46   15   45 1
    47   16   46 1
    48   18   47 1
    49   20   48 1
    50   22   49 1
    51   22   50 1
    52   24   51 1
    53   24   52 1
    54   25   53 1
    55   27   54 1
    56   27   55 1
    57   29   56 1
    58   29   57 1
    59   30   58 1
    60   30   59 1
    61   31   60 1
    62   33   61 1
    63   33   62 1
@<TRIPOS>PROPERTY_DATA
  Total_Score	| 3.2839
  Crash		| -1.5436
  Polar		| 1.0165
  FragIndex	| 1
  FragRMSD	| 0.312

