@<TRIPOS>MOLECULE
BindingDB_50300264
 46 48 0 0 0
SMALL
NO_CHARGES


@<TRIPOS>ATOM
1    C         5.5849    3.0687   26.2961  C     
2    C         4.2343    3.3559   26.0556  C     
3    C         3.8708    4.2339   25.0149  C     
4    C         4.8694    4.8542   24.2381  C     
5    C         6.2415    4.5264   24.4463  C     
6    C         6.6068    3.5969   25.4643  C     
7    O         2.5470    4.3640   24.6986  O     
8    C         1.8804    5.5167   25.2125  C     
9    C         0.9603    5.9476   24.1579  C     
10   O         1.0171    7.1292   23.5132  O     
11   N         0.1231    7.1114   22.5685  N     
12   C        -0.5074    5.9224   22.5966  C     
13   N         0.0168    5.1898   23.5923  N     
14   C        -1.5035    5.4841   21.6849  C     
15   C         7.9277    3.1625   25.6658  C     
16   O         8.6720    2.9772   24.7031  O     
17   C         8.4857    3.0132   26.8898  C     
18   C         8.5981    1.6593   27.4312  C     
19   C         8.9399    4.1121   27.5243  C     
20   Cl        7.4332    5.3126   23.5019  Cl    
21   C        -2.1671    4.2537   21.8799  C     
22   C        -3.1095    3.7899   20.9467  C     
23   C        -3.4291    4.5454   19.7960  C     
24   C        -2.7680    5.7815   19.6067  C     
25   C        -1.8241    6.2487   20.5394  C     
26   C        -4.4437    4.0234   18.8348  C     
27   F        -4.6662    4.8317   17.7463  F     
28   F        -4.0416    2.8035   18.3506  F     
29   F        -5.6506    3.8669   19.4707  F     
30   Cl        4.3809    5.9610   23.0431  Cl    
31   C         9.2765    1.4814   28.8128  C     
32   H         5.8236    2.4170   27.0612  H     
33   H         3.5068    2.9062   26.6091  H     
34   H         1.3167    5.2594   26.1194  H     
35   H         2.5710    6.3334   25.4292  H     
36   H         7.5855    1.2395   27.5090  H     
37   H         9.1665    1.0462   26.7220  H     
38   H         9.3663    4.0477   28.4122  H     
39   H         8.8504    5.0241   27.1095  H     
40   H        -1.9733    3.6779   22.7041  H     
41   H        -3.5656    2.8882   21.1155  H     
42   H        -2.9570    6.3552   18.7812  H     
43   H        -1.3668    7.1454   20.3638  H     
44   H        10.3310    1.7655   28.7784  H     
45   H         9.2259    0.4181   29.1127  H     
46   H         8.7732    2.0606   29.5859  H     
@<TRIPOS>BOND
     1    1    2 2
     2    1    6 1
     3    2    3 1
     4    3    4 2
     5    3    7 1
     6    4    5 1
     7    4   30 1
     8    5    6 2
     9    5   20 1
    10    6   15 1
    11    7    8 1
    12    8    9 1
    13    9   10 1
    14    9   13 2
    15   10   11 1
    16   11   12 2
    17   12   13 1
    18   12   14 1
    19   14   21 2
    20   14   25 1
    21   15   16 2
    22   15   17 1
    23   17   18 1
    24   17   19 2
    25   18   31 1
    26   21   22 1
    27   22   23 2
    28   23   24 1
    29   23   26 1
    30   24   25 2
    31   26   27 1
    32   26   28 1
    33   26   29 1
    34    1   32 1
    35    2   33 1
    36    8   34 1
    37    8   35 1
    38   18   36 1
    39   18   37 1
    40   19   38 1
    41   19   39 1
    42   21   40 1
    43   22   41 1
    44   24   42 1
    45   25   43 1
    46   31   44 1
    47   31   45 1
    48   31   46 1
@<TRIPOS>PROPERTY_DATA
  Total_Score	| 3.5350
  Crash		| -0.8650
  Polar		| 0.0055
  FragIndex	| 1
  FragRMSD	| 0.751

