@<TRIPOS>MOLECULE
BindingDB_7645
 38 41 0 0 0
SMALL
NO_CHARGES


@<TRIPOS>ATOM
1    C        -0.1132   25.8202    7.3514  C     
2    C        -1.5971   24.7232    9.3927  C     
3    C        -0.9695   23.9410    8.4892  C     
4    C        -0.2382   24.4807    7.4671  C     
5    C        -0.7125   27.9672    8.4281  C     
6    C        -1.5057   28.2296    9.5551  C     
7    C        -1.4552   26.0978    9.2742  C     
8    N        -0.7053   26.6243    8.2726  N     
9    N        -1.9370   27.0668   10.0641  N     
10   C        -1.7611   29.5171   10.2249  C     
11   C         0.0464   28.8980    7.6702  C     
12   C         2.0690   29.2838    6.4465  C     
13   C        -0.3574   30.2276    7.4113  C     
14   C         0.5108   31.0572    6.6802  C     
15   N         1.2554   28.4899    7.1833  N     
16   N         1.6851   30.5668    6.2100  N     
17   N         3.2310   28.8460    5.9242  N     
18   C         3.8060   27.6145    6.0656  C     
19   C         4.3704   26.9939    4.9272  C     
20   C         5.0200   25.7444    5.0374  C     
21   C         5.1288   25.1087    6.2850  C     
22   C         4.5793   25.7207    7.4284  C     
23   C         3.9158   26.9655    7.3193  C     
24   H         0.3901   26.2005    6.5861  H     
25   H        -2.1349   24.3350   10.1324  H     
26   H        -1.0399   22.9540    8.5741  H     
27   H         0.1833   23.8888    6.7894  H     
28   H        -0.8162   30.0236   10.4176  H     
29   H        -2.2691   29.3626   11.1756  H     
30   H        -2.3876   30.1501    9.5995  H     
31   H        -1.2649   30.5896    7.7176  H     
32   H         0.2456   32.0224    6.4745  H     
33   H         3.6862   29.4561    5.3235  H     
34   H         4.3013   27.4413    4.0119  H     
35   H         5.4240   25.3072    4.2027  H     
36   H         5.6261   24.2095    6.3657  H     
37   H         4.6774   25.2619    8.3462  H     
38   H         3.5402   27.4027    8.1672  H     
@<TRIPOS>BOND
     1    1    4 2
     2    1    8 1
     3    2    3 2
     4    2    7 1
     5    3    4 1
     6    5    6 2
     7    5    8 1
     8    5   11 1
     9    6    9 1
    10    6   10 1
    11    7    8 1
    12    7    9 2
    13   11   13 1
    14   11   15 2
    15   12   15 1
    16   12   16 2
    17   12   17 1
    18   13   14 2
    19   14   16 1
    20   17   18 1
    21   18   19 2
    22   18   23 1
    23   19   20 1
    24   20   21 2
    25   21   22 1
    26   22   23 2
    27    1   24 1
    28    2   25 1
    29    3   26 1
    30    4   27 1
    31   10   28 1
    32   10   29 1
    33   10   30 1
    34   13   31 1
    35   14   32 1
    36   17   33 1
    37   19   34 1
    38   20   35 1
    39   21   36 1
    40   22   37 1
    41   23   38 1
@<TRIPOS>PROPERTY_DATA
  Total_Score	| 7.7105
  Crash		| -0.5007
  Polar		| 2.0378
  FragIndex	| 1
  FragRMSD	| 0.173

