@<TRIPOS>MOLECULE
BindingDB_7653
 38 41 0 0 0
SMALL
NO_CHARGES


@<TRIPOS>ATOM
1    C        -0.1269   25.7548    7.3879  C     
2    C        -1.6088   24.7063    9.4516  C     
3    C        -1.0040   23.9020    8.5598  C     
4    C        -0.2600   24.4177    7.5266  C     
5    C        -0.7092   27.9515    8.4254  C     
6    C        -1.4939   28.2119    9.5690  C     
7    C        -1.4411   26.0771    9.3047  C     
8    N        -0.7021   26.5966    8.2923  N     
9    N        -1.9210   27.0471   10.0826  N     
10   C        -1.8154   29.4819   10.2379  C     
11   C         0.0284   28.9035    7.6539  C     
12   C         2.0889   29.3329    6.4834  C     
13   C        -0.3859   30.2256    7.3596  C     
14   C         0.4898   31.0695    6.6453  C     
15   N         1.2528   28.5257    7.1920  N     
16   N         1.6939   30.6021    6.2244  N     
17   N         3.2803   28.9235    5.9902  N     
18   C         3.8718   27.6922    6.0775  C     
19   C         4.2782   27.0805    4.8694  C     
20   C         4.8486   25.7967    4.8582  C     
21   C         5.0331   25.0941    6.0631  C     
22   C         4.6703   25.7031    7.2797  C     
23   C         4.1128   26.9954    7.2851  C     
24   Cl        5.7257   23.5513    6.0490  Cl    
25   H         0.3826   26.1098    6.6157  H     
26   H        -2.1579   24.3358   10.1929  H     
27   H        -1.1037   22.9160    8.6485  H     
28   H         0.1707   23.8019    6.8764  H     
29   H        -0.9055   30.0496   10.4340  H     
30   H        -2.3127   29.2845   11.1945  H     
31   H        -2.5010   30.0625    9.6245  H     
32   H        -1.3106   30.5787    7.6313  H     
33   H         0.2274   32.0344    6.4334  H     
34   H         3.7473   29.5647    5.4310  H     
35   H         4.1435   27.5606    3.9776  H     
36   H         5.1326   25.3748    3.9696  H     
37   H         4.7991   25.2015    8.1626  H     
38   H         3.8838   27.4265    8.1799  H     
@<TRIPOS>BOND
     1    1    4 2
     2    1    8 1
     3    2    3 2
     4    2    7 1
     5    3    4 1
     6    5    6 2
     7    5    8 1
     8    5   11 1
     9    6    9 1
    10    6   10 1
    11    7    8 1
    12    7    9 2
    13   11   13 1
    14   11   15 2
    15   12   15 1
    16   12   16 2
    17   12   17 1
    18   13   14 2
    19   14   16 1
    20   17   18 1
    21   18   19 2
    22   18   23 1
    23   19   20 1
    24   20   21 2
    25   21   22 1
    26   21   24 1
    27   22   23 2
    28    1   25 1
    29    2   26 1
    30    3   27 1
    31    4   28 1
    32   10   29 1
    33   10   30 1
    34   10   31 1
    35   13   32 1
    36   14   33 1
    37   17   34 1
    38   19   35 1
    39   20   36 1
    40   22   37 1
    41   23   38 1
@<TRIPOS>PROPERTY_DATA
  Total_Score	| 7.6244
  Crash		| -0.5493
  Polar		| 1.9923
  FragIndex	| 1
  FragRMSD	| 0.205

