@<TRIPOS>MOLECULE
BindingDB_7646
 58 61 0 0 0
SMALL
NO_CHARGES


@<TRIPOS>ATOM
1    C        -0.0838   25.7911    7.3524  C     
2    C        -1.5851   24.6972    9.3891  C     
3    C        -0.9662   23.9138    8.4840  C     
4    C        -0.2239   24.4455    7.4617  C     
5    C        -0.6817   27.9486    8.4310  C     
6    C        -1.4755   28.1999    9.5596  C     
7    C        -1.4266   26.0718    9.2670  C     
8    N        -0.6729   26.6006    8.2719  N     
9    N        -1.9154   27.0307   10.0573  N     
10   C        -1.7618   29.4723   10.2446  C     
11   C         0.0633   28.8997    7.6710  C     
12   C         2.1045   29.3738    6.5153  C     
13   C        -0.3975   30.1930    7.3559  C     
14   C         0.4539   31.0570    6.6359  C     
15   N         1.2937   28.5369    7.2362  N     
16   N         1.6686   30.6164    6.2280  N     
17   N         3.3047   28.9806    6.0248  N     
18   C         3.8877   27.7622    6.1766  C     
19   C         3.8353   27.0273    7.3863  C     
20   C         4.4637   25.7778    7.4976  C     
21   C         5.1415   25.2424    6.3779  C     
22   C         5.2529   25.9876    5.2013  C     
23   C         4.6373   27.2482    5.0962  C     
24   O         5.7846   24.0245    6.4452  O     
25   C         4.9936   22.8835    6.1485  C     
26   C         5.8984   21.6023    6.0029  C     
27   C         5.3806   20.5241    5.0040  C     
28   N         4.3000   20.8758    4.0245  N     
29   C         4.7283   21.7257    2.8756  C     
30   C         3.5976   19.6507    3.5129  C     
31   O         7.2549   21.9416    5.7033  O     
32   H         0.4365   26.1611    6.5948  H     
33   H        -2.1167   24.3109   10.1338  H     
34   H        -1.0460   22.9265    8.5665  H     
35   H         0.2080   23.8528    6.7940  H     
36   H        -0.8301   30.0106   10.4189  H     
37   H        -2.2458   29.2959   11.2050  H     
38   H        -2.4299   30.0831    9.6375  H     
39   H        -1.3332   30.5197    7.5968  H     
40   H         0.1425   31.9994    6.4071  H     
41   H         3.7230   29.5891    5.3924  H     
42   H         3.3608   27.4153    8.2045  H     
43   H         4.4343   25.2601    8.3768  H     
44   H         5.7700   25.6171    4.3990  H     
45   H         4.7032   27.7571    4.2114  H     
46   H         4.2614   22.7382    6.9717  H     
47   H         4.3838   23.0332    5.2510  H     
48   H         5.9585   21.1219    6.9917  H     
49   H         6.2521   20.1259    4.4490  H     
50   H         5.0009   19.6973    5.6094  H     
51   H         3.5868   21.3879    4.5438  H     
52   H         5.1886   22.6521    3.2131  H     
53   H         3.8685   22.0203    2.2756  H     
54   H         5.4479   21.2176    2.2458  H     
55   H         4.2769   19.0311    2.9272  H     
56   H         2.7460   19.9272    2.8897  H     
57   H         3.2129   19.0593    4.3491  H     
58   H         7.4882   22.6282    6.3605  H     
@<TRIPOS>BOND
     1    1    4 2
     2    1    8 1
     3    2    3 2
     4    2    7 1
     5    3    4 1
     6    5    6 2
     7    5    8 1
     8    5   11 1
     9    6    9 1
    10    6   10 1
    11    7    8 1
    12    7    9 2
    13   11   13 1
    14   11   15 2
    15   12   15 1
    16   12   16 2
    17   12   17 1
    18   13   14 2
    19   14   16 1
    20   17   18 1
    21   18   19 2
    22   18   23 1
    23   19   20 1
    24   20   21 2
    25   21   22 1
    26   21   24 1
    27   22   23 2
    28   24   25 1
    29   25   26 1
    30   26   27 1
    31   26   31 1
    32   27   28 1
    33   28   29 1
    34   28   30 1
    35    1   32 1
    36    2   33 1
    37    3   34 1
    38    4   35 1
    39   10   36 1
    40   10   37 1
    41   10   38 1
    42   13   39 1
    43   14   40 1
    44   17   41 1
    45   19   42 1
    46   20   43 1
    47   22   44 1
    48   23   45 1
    49   25   46 1
    50   25   47 1
    51   26   48 1
    52   27   49 1
    53   27   50 1
    54   28   51 1
    55   29   52 1
    56   29   53 1
    57   29   54 1
    58   30   55 1
    59   30   56 1
    60   30   57 1
    61   31   58 1
@<TRIPOS>PROPERTY_DATA
  Total_Score	| 9.7527
  Crash		| -1.0774
  Polar		| 4.4583
  FragIndex	| 1
  FragRMSD	| 0.286

