@<TRIPOS>MOLECULE
BindingDB_7658
 43 46 0 0 0
SMALL
NO_CHARGES


@<TRIPOS>ATOM
1    C        -0.1241   25.7568    7.4976  C     
2    C        -1.7805   24.8053    9.4811  C     
3    C        -1.2031   23.9667    8.5952  C     
4    C        -0.3752   24.4323    7.6052  C     
5    C        -0.6309   27.9675    8.5009  C     
6    C        -1.4465   28.2930    9.5877  C     
7    C        -1.5062   26.1620    9.3646  C     
8    N        -0.6842   26.6186    8.3845  N     
9    N        -1.9764   27.1754   10.1054  N     
10   C         0.1043   28.8947    7.7190  C     
11   C         2.0736   29.2893    6.4140  C     
12   C        -0.3048   30.2263    7.4892  C     
13   C         0.5076   31.0434    6.6835  C     
14   N         1.2788   28.4899    7.1744  N     
15   N         1.6680   30.5609    6.1691  N     
16   N         3.2399   28.8642    5.8813  N     
17   C         3.8420   27.6545    6.0741  C     
18   C         3.8714   26.9888    7.3257  C     
19   C         4.5570   25.7699    7.4777  C     
20   C         5.2400   25.1966    6.3856  C     
21   C         5.2131   25.8546    5.1350  C     
22   C         4.5416   27.0810    4.9943  C     
23   S         6.1918   23.7570    6.6344  S     
24   O         6.9999   23.8396    8.0057  O     
25   O         5.1881   22.5377    6.8178  O     
26   N         7.2466   23.3783    5.3782  N     
27   C         8.4003   24.1614    5.1170  C     
28   H         0.4550   26.0827    6.7597  H     
29   H        -2.3930   24.4666   10.1851  H     
30   H        -1.3844   22.9943    8.6531  H     
31   H         0.0262   23.8024    6.9489  H     
32   H        -1.6127   29.2332    9.9554  H     
33   H        -1.1764   30.5919    7.8736  H     
34   H         0.2329   32.0074    6.4945  H     
35   H         3.6715   29.4579    5.2505  H     
36   H         3.4358   27.4050    8.1490  H     
37   H         4.5723   25.3131    8.3972  H     
38   H         5.6943   25.4541    4.3288  H     
39   H         4.5700   27.5652    4.0976  H     
40   H         7.1629   22.5096    4.9520  H     
41   H         8.1373   25.2167    5.0673  H     
42   H         8.8306   23.8634    4.1650  H     
43   H         9.1413   24.0126    5.8992  H     
@<TRIPOS>BOND
     1    1    4 2
     2    1    8 1
     3    2    3 2
     4    2    7 1
     5    3    4 1
     6    5    6 2
     7    5    8 1
     8    5   10 1
     9    6    9 1
    10    7    8 1
    11    7    9 2
    12   10   12 1
    13   10   14 2
    14   11   14 1
    15   11   15 2
    16   11   16 1
    17   12   13 2
    18   13   15 1
    19   16   17 1
    20   17   18 2
    21   17   22 1
    22   18   19 1
    23   19   20 2
    24   20   21 1
    25   20   23 1
    26   21   22 2
    27   23   24 2
    28   23   25 2
    29   23   26 1
    30   26   27 1
    31    1   28 1
    32    2   29 1
    33    3   30 1
    34    4   31 1
    35    6   32 1
    36   12   33 1
    37   13   34 1
    38   16   35 1
    39   18   36 1
    40   19   37 1
    41   21   38 1
    42   22   39 1
    43   26   40 1
    44   27   41 1
    45   27   42 1
    46   27   43 1
@<TRIPOS>PROPERTY_DATA
  Total_Score	| 8.4690
  Crash		| -0.7048
  Polar		| 2.1721
  FragIndex	| 1
  FragRMSD	| 0.148

