@<TRIPOS>MOLECULE
BindingDB_7642
 33 35 0 0 0
SMALL
NO_CHARGES


@<TRIPOS>ATOM
1    C        -0.2442   25.7874    7.3691  C     
2    C        -1.6816   24.7301    9.4635  C     
3    C        -1.0768   23.9276    8.5641  C     
4    C        -0.3665   24.4477    7.5074  C     
5    C        -0.8095   27.9696    8.4318  C     
6    C        -1.5939   28.2296    9.5716  C     
7    C        -1.5341   26.1000    9.3075  C     
8    N        -0.7999   26.6201    8.2920  N     
9    N        -2.0227   27.0657   10.0858  N     
10   C        -1.8480   29.5099   10.2566  C     
11   C        -0.0608   28.9126    7.6653  C     
12   C         1.9509   29.2726    6.3962  C     
13   C        -0.4280   30.2658    7.4466  C     
14   C         0.4639   31.0932    6.7215  C     
15   N         1.1130   28.4851    7.1200  N     
16   N         1.6186   30.5747    6.2105  N     
17   N         3.0831   28.8086    5.8152  N     
18   C         3.5534   27.5694    5.8147  C     
19   C         4.7270   27.2893    5.0228  C     
20   O         3.0153   26.6531    6.4243  O     
21   H         0.2278   26.1498    6.5743  H     
22   H        -2.1989   24.3567   10.2231  H     
23   H        -1.1563   22.9425    8.6622  H     
24   H         0.0265   23.8381    6.8314  H     
25   H        -0.8913   29.9675   10.5195  H     
26   H        -2.4215   29.3437   11.1806  H     
27   H        -2.4101   30.1846    9.6077  H     
28   H        -1.3258   30.6401    7.8149  H     
29   H         0.2398   32.0795    6.5703  H     
30   H         3.5989   29.4570    5.3063  H     
31   H         4.5382   27.5541    3.9788  H     
32   H         5.0100   26.2351    5.0620  H     
33   H         5.5641   27.8853    5.3881  H     
@<TRIPOS>BOND
     1    1    4 2
     2    1    8 1
     3    2    3 2
     4    2    7 1
     5    3    4 1
     6    5    6 2
     7    5    8 1
     8    5   11 1
     9    6    9 1
    10    6   10 1
    11    7    8 1
    12    7    9 2
    13   11   13 1
    14   11   15 2
    15   12   15 1
    16   12   16 2
    17   12   17 1
    18   13   14 2
    19   14   16 1
    20   17   18 am
    21   18   19 1
    22   18   20 2
    23    1   21 1
    24    2   22 1
    25    3   23 1
    26    4   24 1
    27   10   25 1
    28   10   26 1
    29   10   27 1
    30   13   28 1
    31   14   29 1
    32   17   30 1
    33   19   31 1
    34   19   32 1
    35   19   33 1
@<TRIPOS>PROPERTY_DATA
  Total_Score	| 6.8364
  Crash		| -0.5624
  Polar		| 2.0937
  FragIndex	| 1
  FragRMSD	| 0.588

