@<TRIPOS>MOLECULE
BindingDB_7652
 38 41 0 0 0
SMALL
NO_CHARGES


@<TRIPOS>ATOM
1    C        -0.1661   25.7542    7.3835  C     
2    C        -1.5941   24.6690    9.4697  C     
3    C        -1.0332   23.8838    8.5297  C     
4    C        -0.3224   24.4202    7.4824  C     
5    C        -0.6775   27.9156    8.4981  C     
6    C        -1.4336   28.1749    9.6563  C     
7    C        -1.4161   26.0416    9.3577  C     
8    N        -0.6983   26.5691    8.3352  N     
9    N        -1.8654   27.0094   10.1645  N     
10   C        -1.7007   29.4548   10.3352  C     
11   C         0.0534   28.8469    7.7103  C     
12   C         2.0381   29.2296    6.4128  C     
13   C        -0.3844   30.1525    7.4008  C     
14   C         0.4382   30.9661    6.6000  C     
15   N         1.2520   28.4499    7.2013  N     
16   N         1.6133   30.4844    6.1207  N     
17   N         3.1927   28.7864    5.8663  N     
18   C         3.7496   27.5561    6.0476  C     
19   C         4.1546   26.8248    4.9106  C     
20   C         4.7336   25.5478    5.0517  C     
21   C         4.9450   25.0068    6.3367  C     
22   C         4.5734   25.7450    7.4774  C     
23   C         3.9744   27.0113    7.3328  C     
24   Cl        5.1541   24.6499    3.6795  Cl    
25   H         0.3197   26.1288    6.6025  H     
26   H        -2.1086   24.2815   10.2273  H     
27   H        -1.1340   22.8969    8.5973  H     
28   H         0.0617   23.8198    6.7869  H     
29   H        -0.7625   29.9939   10.4804  H     
30   H        -2.1591   29.2891   11.3105  H     
31   H        -2.3807   30.0623    9.7363  H     
32   H        -1.2902   30.5086    7.7127  H     
33   H         0.1412   31.9112    6.3531  H     
34   H         3.6167   29.3642    5.2103  H     
35   H         3.9957   27.2071    3.9749  H     
36   H         5.3620   24.0821    6.4495  H     
37   H         4.7403   25.3607    8.4109  H     
38   H         3.7232   27.5398    8.1701  H     
@<TRIPOS>BOND
     1    1    4 2
     2    1    8 1
     3    2    3 2
     4    2    7 1
     5    3    4 1
     6    5    6 2
     7    5    8 1
     8    5   11 1
     9    6    9 1
    10    6   10 1
    11    7    8 1
    12    7    9 2
    13   11   13 1
    14   11   15 2
    15   12   15 1
    16   12   16 2
    17   12   17 1
    18   13   14 2
    19   14   16 1
    20   17   18 1
    21   18   19 2
    22   18   23 1
    23   19   20 1
    24   20   21 2
    25   20   24 1
    26   21   22 1
    27   22   23 2
    28    1   25 1
    29    2   26 1
    30    3   27 1
    31    4   28 1
    32   10   29 1
    33   10   30 1
    34   10   31 1
    35   13   32 1
    36   14   33 1
    37   17   34 1
    38   19   35 1
    39   21   36 1
    40   22   37 1
    41   23   38 1
@<TRIPOS>PROPERTY_DATA
  Total_Score	| 7.7435
  Crash		| -0.5786
  Polar		| 1.9545
  FragIndex	| 1
  FragRMSD	| 0.279

