@<TRIPOS>MOLECULE
BindingDB_7651
 38 41 0 0 0
SMALL
NO_CHARGES


@<TRIPOS>ATOM
1    C        -0.1061   25.6640    7.4375  C     
2    C        -1.7119   24.6743    9.4494  C     
3    C        -1.0844   23.8492    8.5813  C     
4    C        -0.2848   24.3376    7.5797  C     
5    C        -0.6362   27.8669    8.4498  C     
6    C        -1.4716   28.1829    9.5487  C     
7    C        -1.4746   26.0373    9.3251  C     
8    N        -0.6720   26.5175    8.3351  N     
9    N        -1.9732   27.0448   10.0566  N     
10   C        -1.7449   29.4935   10.1758  C     
11   C         0.1593   28.7550    7.6614  C     
12   C         2.2644   29.0725    6.5455  C     
13   C        -0.2420   30.0393    7.2326  C     
14   C         0.6662   30.8175    6.4876  C     
15   N         1.4009   28.3389    7.2950  N     
16   N         1.8777   30.3148    6.1540  N     
17   N         3.4620   28.6099    6.1222  N     
18   C         4.0156   27.3798    6.3932  C     
19   C         4.6956   26.6794    5.3563  C     
20   C         5.2396   25.3992    5.5956  C     
21   C         5.1340   24.8123    6.8669  C     
22   C         4.5309   25.5236    7.9189  C     
23   C         3.9724   26.7923    7.6798  C     
24   Cl        4.8275   27.2986    3.7843  Cl    
25   H         0.4411   25.9953    6.6781  H     
26   H        -2.2962   24.3250   10.1757  H     
27   H        -1.2065   22.8690    8.6649  H     
28   H         0.1233   23.7126    6.9241  H     
29   H        -0.8118   30.0232   10.3915  H     
30   H        -2.2971   29.3830   11.1151  H     
31   H        -2.3612   30.0873    9.4944  H     
32   H        -1.1654   30.4117    7.4335  H     
33   H         0.4091   31.7517    6.1838  H     
34   H         3.9398   29.1706    5.4888  H     
35   H         5.6962   24.8811    4.8404  H     
36   H         5.4840   23.8715    7.0281  H     
37   H         4.4847   25.1116    8.8546  H     
38   H         3.5374   27.2876    8.4625  H     
@<TRIPOS>BOND
     1    1    4 2
     2    1    8 1
     3    2    3 2
     4    2    7 1
     5    3    4 1
     6    5    6 2
     7    5    8 1
     8    5   11 1
     9    6    9 1
    10    6   10 1
    11    7    8 1
    12    7    9 2
    13   11   13 1
    14   11   15 2
    15   12   15 1
    16   12   16 2
    17   12   17 1
    18   13   14 2
    19   14   16 1
    20   17   18 1
    21   18   19 2
    22   18   23 1
    23   19   20 1
    24   19   24 1
    25   20   21 2
    26   21   22 1
    27   22   23 2
    28    1   25 1
    29    2   26 1
    30    3   27 1
    31    4   28 1
    32   10   29 1
    33   10   30 1
    34   10   31 1
    35   13   32 1
    36   14   33 1
    37   17   34 1
    38   20   35 1
    39   21   36 1
    40   22   37 1
    41   23   38 1
@<TRIPOS>PROPERTY_DATA
  Total_Score	| 7.1480
  Crash		| -0.9655
  Polar		| 1.8624
  FragIndex	| 1
  FragRMSD	| 0.390

