@<TRIPOS>MOLECULE
BindingDB_7660
 53 56 0 0 0
SMALL
NO_CHARGES


@<TRIPOS>ATOM
1    C        -0.0880   25.7763    7.4182  C     
2    C        -1.6465   24.7480    9.4408  C     
3    C        -1.0683   23.9375    8.5283  C     
4    C        -0.3012   24.4429    7.5103  C     
5    C        -0.5856   27.9558    8.5008  C     
6    C        -1.4002   28.2412    9.5999  C     
7    C        -1.4238   26.1135    9.3300  C     
8    N        -0.6346   26.6127    8.3442  N     
9    N        -1.8972   27.1022   10.0989  N     
10   C         0.1490   28.9051    7.7473  C     
11   C         2.1018   29.3548    6.4295  C     
12   C        -0.2877   30.2301    7.5365  C     
13   C         0.5034   31.0812    6.7469  C     
14   N         1.3387   28.5338    7.1992  N     
15   N         1.6685   30.6255    6.2186  N     
16   N         3.2487   28.9535    5.8352  N     
17   C         3.8303   27.7295    5.9405  C     
18   C         3.9543   27.0218    7.1595  C     
19   C         4.5238   25.7357    7.1984  C     
20   C         4.9475   25.1222    5.9966  C     
21   C         4.8628   25.8314    4.7833  C     
22   C         4.3279   27.1339    4.7626  C     
23   S         5.6196   23.5131    6.0152  S     
24   O         5.0645   22.7727    7.3118  O     
25   O         5.1241   22.6344    4.7828  O     
26   N         7.3035   23.4953    6.1431  N     
27   C         8.1719   24.2590    5.3195  C     
28   C         8.2703   23.7195    3.8744  C     
29   C         9.5476   24.1929    3.1090  C     
30   O        10.7511   23.9071    3.8646  O     
31   C        11.9321   24.5536    3.3023  C     
32   H         0.4476   26.1382    6.6546  H     
33   H        -2.2029   24.3755   10.1701  H     
34   H        -1.1978   22.9583    8.5906  H     
35   H         0.0910   23.8359    6.8246  H     
36   H        -1.5719   29.1614    9.9960  H     
37   H        -1.1826   30.5624    7.8987  H     
38   H         0.2084   32.0435    6.5691  H     
39   H         3.6282   29.5558    5.1785  H     
40   H         3.6518   27.4571    8.0330  H     
41   H         4.6087   25.2535    8.0960  H     
42   H         5.1784   25.3942    3.9104  H     
43   H         4.2822   27.6210    3.8683  H     
44   H         7.7033   22.8472    6.7563  H     
45   H         7.8638   25.3080    5.2958  H     
46   H         9.1658   24.2072    5.7790  H     
47   H         8.2753   22.6234    3.8994  H     
48   H         7.3853   24.0282    3.3022  H     
49   H         9.5765   23.6204    2.1462  H     
50   H         9.4569   25.2770    2.8659  H     
51   H        12.2116   24.1028    2.3354  H     
52   H        12.7589   24.4017    4.0123  H     
53   H        11.7870   25.6399    3.1760  H     
@<TRIPOS>BOND
     1    1    4 2
     2    1    8 1
     3    2    3 2
     4    2    7 1
     5    3    4 1
     6    5    6 2
     7    5    8 1
     8    5   10 1
     9    6    9 1
    10    7    8 1
    11    7    9 2
    12   10   12 1
    13   10   14 2
    14   11   14 1
    15   11   15 2
    16   11   16 1
    17   12   13 2
    18   13   15 1
    19   16   17 1
    20   17   18 2
    21   17   22 1
    22   18   19 1
    23   19   20 2
    24   20   21 1
    25   20   23 1
    26   21   22 2
    27   23   24 2
    28   23   25 2
    29   23   26 1
    30   26   27 1
    31   27   28 1
    32   28   29 1
    33   29   30 1
    34   30   31 1
    35    1   32 1
    36    2   33 1
    37    3   34 1
    38    4   35 1
    39    6   36 1
    40   12   37 1
    41   13   38 1
    42   16   39 1
    43   18   40 1
    44   19   41 1
    45   21   42 1
    46   22   43 1
    47   26   44 1
    48   27   45 1
    49   27   46 1
    50   28   47 1
    51   28   48 1
    52   29   49 1
    53   29   50 1
    54   31   51 1
    55   31   52 1
    56   31   53 1
@<TRIPOS>PROPERTY_DATA
  Total_Score	| 8.8863
  Crash		| -0.7151
  Polar		| 3.1861
  FragIndex	| 1
  FragRMSD	| 0.233

