@<TRIPOS>MOLECULE
BindingDB_7657
 40 43 0 0 0
SMALL
NO_CHARGES


@<TRIPOS>ATOM
1    C        -0.0443   25.8338    7.3429  C     
2    C        -1.6128   24.7099    9.3074  C     
3    C        -0.9808   23.9420    8.3947  C     
4    C        -0.2002   24.4960    7.4095  C     
5    C        -0.6836   27.9673    8.4179  C     
6    C        -1.5115   28.2142    9.5156  C     
7    C        -1.4409   26.0874    9.2312  C     
8    N        -0.6573   26.6256    8.2617  N     
9    N        -1.9648   27.0484   10.0060  N     
10   C         0.0126   28.9510    7.6773  C     
11   C         1.9412   29.4526    6.3564  C     
12   C        -0.4350   30.2821    7.5232  C     
13   C         0.3440   31.1576    6.7452  C     
14   N         1.1860   28.6004    7.0969  N     
15   N         1.4979   30.7218    6.1779  N     
16   N         3.1051   29.0764    5.7828  N     
17   C         3.7378   27.8744    5.9188  C     
18   C         3.7839   27.1438    7.1327  C     
19   C         4.5230   25.9486    7.2272  C     
20   C         5.2190   25.4614    6.1010  C     
21   C         5.1763   26.1857    4.8937  C     
22   C         4.4482   27.3831    4.8055  C     
23   N         7.6913   24.4710    5.4044  N     
24   S         6.2595   24.0696    6.1886  S     
25   O         6.5333   23.6045    7.6862  O     
26   O         5.5566   22.9122    5.3514  O     
27   H         0.4902   26.2219    6.6019  H     
28   H        -2.1784   24.3061   10.0160  H     
29   H        -1.0801   22.9529    8.4374  H     
30   H         0.2397   23.9095    6.7355  H     
31   H        -1.7234   29.1310    9.9141  H     
32   H        -1.3090   30.6078    7.9422  H     
33   H         0.0473   32.1224    6.6038  H     
34   H         3.5085   29.7056    5.1693  H     
35   H         3.3263   27.4986    7.9735  H     
36   H         4.5761   25.4617    8.1228  H     
37   H         5.6958   25.8632    4.0717  H     
38   H         4.4433   27.9042    3.9219  H     
39   H         8.2343   23.7734    5.0041  H     
40   H         7.8196   25.3925    5.1178  H     
@<TRIPOS>BOND
     1    1    4 2
     2    1    8 1
     3    2    3 2
     4    2    7 1
     5    3    4 1
     6    5    6 2
     7    5    8 1
     8    5   10 1
     9    6    9 1
    10    7    8 1
    11    7    9 2
    12   10   12 1
    13   10   14 2
    14   11   14 1
    15   11   15 2
    16   11   16 1
    17   12   13 2
    18   13   15 1
    19   16   17 1
    20   17   18 2
    21   17   22 1
    22   18   19 1
    23   19   20 2
    24   20   21 1
    25   20   24 1
    26   21   22 2
    27   23   24 am
    28   24   25 2
    29   24   26 2
    30    1   27 1
    31    2   28 1
    32    3   29 1
    33    4   30 1
    34    6   31 1
    35   12   32 1
    36   13   33 1
    37   16   34 1
    38   18   35 1
    39   19   36 1
    40   21   37 1
    41   22   38 1
    42   23   39 1
    43   23   40 1
@<TRIPOS>PROPERTY_DATA
  Total_Score	| 7.7239
  Crash		| -0.7797
  Polar		| 2.5360
  FragIndex	| 1
  FragRMSD	| 0.201

