@<TRIPOS>MOLECULE
BindingDB_7647
 43 46 0 0 0
SMALL
NO_CHARGES


@<TRIPOS>ATOM
1    C        -0.1348   25.7732    7.3879  C     
2    C        -1.5892   24.7184    9.4723  C     
3    C        -1.0070   23.9191    8.5579  C     
4    C        -0.2970   24.4372    7.5019  C     
5    C        -0.6544   27.9525    8.4944  C     
6    C        -1.4739   28.2116    9.6215  C     
7    C        -1.4150   26.0841    9.3382  C     
8    N        -0.6609   26.6079    8.3339  N     
9    N        -1.9073   27.0441   10.1222  N     
10   C        -1.8047   29.4837   10.2929  C     
11   C         0.0944   28.8991    7.7300  C     
12   C         2.1202   29.3290    6.5116  C     
13   C        -0.3485   30.2078    7.4199  C     
14   C         0.5069   31.0539    6.6829  C     
15   N         1.3116   28.5154    7.2508  N     
16   N         1.7122   30.5940    6.2394  N     
17   N         3.2923   28.9163    5.9757  N     
18   C         3.8581   27.6823    6.0815  C     
19   C         4.2456   27.0308    4.8853  C     
20   C         4.7904   25.7368    4.9095  C     
21   C         5.0236   25.0706    6.1336  C     
22   C         4.6924   25.7362    7.3336  C     
23   C         4.1143   27.0164    7.3061  C     
24   O         6.2739   23.0215    4.7359  O     
25   O         6.8409   23.3990    7.2115  O     
26   S         5.6635   23.4512    6.1415  S     
27   N         4.5199   22.3165    6.6178  N     
28   H         0.3368   26.1322    6.5912  H     
29   H        -2.1019   24.3497   10.2353  H     
30   H        -1.0961   22.9380    8.6557  H     
31   H         0.0657   23.8297    6.8077  H     
32   H        -0.8758   29.9708   10.5934  H     
33   H        -2.4276   29.3136   11.1865  H     
34   H        -2.3525   30.1347    9.6102  H     
35   H        -1.2935   30.5402    7.7031  H     
36   H         0.1982   32.0024    6.4667  H     
37   H         3.7197   29.5311    5.3559  H     
38   H         4.0963   27.4879    3.9807  H     
39   H         5.0127   25.2775    4.0222  H     
40   H         4.8676   25.2828    8.2384  H     
41   H         3.8887   27.4755    8.1941  H     
42   H         4.7622   21.6162    7.2493  H     
43   H         3.5936   22.4237    6.3422  H     
@<TRIPOS>BOND
     1    1    4 2
     2    1    8 1
     3    2    3 2
     4    2    7 1
     5    3    4 1
     6    5    6 2
     7    5    8 1
     8    5   11 1
     9    6    9 1
    10    6   10 1
    11    7    8 1
    12    7    9 2
    13   11   13 1
    14   11   15 2
    15   12   15 1
    16   12   16 2
    17   12   17 1
    18   13   14 2
    19   14   16 1
    20   17   18 1
    21   18   19 2
    22   18   23 1
    23   19   20 1
    24   20   21 2
    25   21   22 1
    26   21   26 1
    27   22   23 2
    28   24   26 2
    29   25   26 2
    30   26   27 am
    31    1   28 1
    32    2   29 1
    33    3   30 1
    34    4   31 1
    35   10   32 1
    36   10   33 1
    37   10   34 1
    38   13   35 1
    39   14   36 1
    40   17   37 1
    41   19   38 1
    42   20   39 1
    43   22   40 1
    44   23   41 1
    45   27   42 1
    46   27   43 1
@<TRIPOS>PROPERTY_DATA
  Total_Score	| 8.3842
  Crash		| -0.6640
  Polar		| 3.1329
  FragIndex	| 1
  FragRMSD	| 0.220

