@<TRIPOS>MOLECULE
BindingDB_11623
 29 30 0 0 0
SMALL
NO_CHARGES


@<TRIPOS>ATOM
1    C        -5.2818    4.0249   13.6122  C     
2    C        -5.7057    2.4827   15.2700  C     
3    S        -4.9968    2.3162   13.7267  S     
4    N        -5.8842    4.5261   14.7072  N     
5    N        -6.0912    3.6593   15.5875  N     
6    N        -7.2431    1.3602   17.2949  N     
7    S        -5.8359    1.2118   16.3950  S     
8    O        -5.8419   -0.2060   15.6768  O     
9    O        -4.5928    1.3403   17.3823  O     
10   N        -4.8923    4.7523   12.5418  N     
11   S        -5.0573    6.4307   12.4668  S     
12   O        -4.7913    6.8630   10.9585  O     
13   O        -6.5856    6.8170   12.6978  O     
14   C        -4.0277    7.2996   13.5700  C     
15   C        -3.4958    8.0006   15.8524  C     
16   C        -2.3694    8.7082   15.3814  C     
17   C        -2.0734    8.7131   13.9975  C     
18   C        -2.9040    8.0086   13.1043  C     
19   C        -4.3102    7.2898   14.9538  C     
20   N        -1.5870    9.3514   16.2664  N     
21   Br       -0.6042    9.6327   13.3179  Br    
22   H        -7.3609    0.8444   18.1089  H     
23   H        -7.9803    1.8908   16.9510  H     
24   H        -4.4431    4.2927   11.8095  H     
25   H        -3.7223    7.9959   16.8535  H     
26   H        -2.6769    8.0202   12.1076  H     
27   H        -5.1166    6.7817   15.3247  H     
28   H        -0.7939    9.8318   15.9709  H     
29   H        -1.8143    9.3335   17.2118  H     
@<TRIPOS>BOND
     1    1    3 1
     2    1    4 2
     3    1   10 1
     4    2    3 1
     5    2    5 2
     6    2    7 1
     7    4    5 1
     8    6    7 am
     9    7    8 2
    10    7    9 2
    11   10   11 1
    12   11   12 2
    13   11   13 2
    14   11   14 1
    15   14   18 1
    16   14   19 2
    17   15   16 2
    18   15   19 1
    19   16   17 1
    20   16   20 1
    21   17   18 2
    22   17   21 1
    23    6   22 1
    24    6   23 1
    25   10   24 1
    26   15   25 1
    27   18   26 1
    28   19   27 1
    29   20   28 1
    30   20   29 1
@<TRIPOS>PROPERTY_DATA
  Total_Score	| 5.1411
  Crash		| -1.0045
  Polar		| 2.8963
  FragIndex	| 1
  FragRMSD	| 1.429

