@<TRIPOS>MOLECULE
BindingDB_91712
 52 55 0 0 0
SMALL
NO_CHARGES


@<TRIPOS>ATOM
1    C        -3.4547    8.3062   12.4688  C     
2    C        -4.2190    7.4847   13.3212  C     
3    C        -4.0147    7.5515   14.7151  C     
4    C        -3.0833    8.4603   15.2522  C     
5    C        -2.3535    9.3304   14.4045  C     
6    C        -2.5358    9.2236   13.0058  C     
7    C        -1.4654   10.3033   14.9214  C     
8    C        -0.3484    9.9214   15.6989  C     
9    C        -1.6520   11.6793   14.6341  C     
10   C        -0.7555   12.6438   15.1271  C     
11   C         0.3645   12.2520   15.8878  C     
12   C         0.5702   10.8834   16.1580  C     
13   S        -5.4074    6.4029   12.6574  S     
14   S         1.4745   13.4435   16.5075  S     
15   O        -6.8028    6.4914   13.4211  O     
16   O        -5.7664    6.8474   11.1717  O     
17   N        -4.8704    4.8154   12.4993  N     
18   N         2.8364   12.8374   17.2977  N     
19   O         2.0212   14.3334   15.3082  O     
20   O         0.6863   14.4890   17.4128  O     
21   C         2.9068   12.5161   18.6046  C     
22   N         1.9316   12.6483   19.5154  N     
23   S         4.3540   11.8568   19.2734  S     
24   C         3.4781   11.8368   20.7344  C     
25   N         2.2784   12.2695   20.6613  N     
26   S         4.1478   11.2617   22.1929  S     
27   N         5.5098   12.1319   22.6560  N     
28   O         3.0718   11.2354   23.3638  O     
29   O         4.6233    9.7716   21.9077  O     
30   C        -5.0092    3.8319   13.4055  C     
31   N        -4.5294    2.6105   13.1393  N     
32   N        -4.7526    1.7789   14.0541  N     
33   C        -5.3963    2.2524   15.0507  C     
34   S        -5.7810    3.9093   14.9576  S     
35   S        -5.7913    1.3078   16.4111  S     
36   N        -7.2214    1.8122   17.1283  N     
37   O        -5.9594   -0.2112   15.9764  O     
38   O        -4.5998    1.4413   17.4534  O     
39   H        -3.5657    8.2571   11.4545  H     
40   H        -4.5517    6.9505   15.3468  H     
41   H        -2.9552    8.4979   16.2674  H     
42   H        -1.9990    9.8134   12.3664  H     
43   H        -0.1882    8.9361   15.9170  H     
44   H        -2.4519   11.9878   14.0749  H     
45   H        -0.9291   13.6330   14.9296  H     
46   H         1.3867   10.5751   16.6888  H     
47   H        -4.4150    4.5906   11.6709  H     
48   H         3.6281   12.6838   16.7558  H     
49   H         6.2457   11.6818   23.1006  H     
50   H         5.5473   13.0898   22.5083  H     
51   H        -7.5800    1.3261   17.8819  H     
52   H        -7.6956    2.5766   16.7714  H     
@<TRIPOS>BOND
     1    1    2 2
     2    1    6 1
     3    2    3 1
     4    2   13 1
     5    3    4 2
     6    4    5 1
     7    5    6 2
     8    5    7 1
     9    7    8 2
    10    7    9 1
    11    8   12 1
    12    9   10 2
    13   10   11 1
    14   11   12 2
    15   11   14 1
    16   13   15 2
    17   13   16 2
    18   13   17 1
    19   14   18 1
    20   14   19 2
    21   14   20 2
    22   17   30 1
    23   18   21 1
    24   21   22 2
    25   21   23 1
    26   22   25 1
    27   23   24 1
    28   24   25 2
    29   24   26 1
    30   26   27 am
    31   26   28 2
    32   26   29 2
    33   30   31 2
    34   30   34 1
    35   31   32 1
    36   32   33 2
    37   33   34 1
    38   33   35 1
    39   35   36 am
    40   35   37 2
    41   35   38 2
    42    1   39 1
    43    3   40 1
    44    4   41 1
    45    6   42 1
    46    8   43 1
    47    9   44 1
    48   10   45 1
    49   12   46 1
    50   17   47 1
    51   18   48 1
    52   27   49 1
    53   27   50 1
    54   36   51 1
    55   36   52 1
@<TRIPOS>PROPERTY_DATA
  Total_Score	| 5.6901
  Crash		| -1.3928
  Polar		| 3.1991
  FragIndex	| 1
  FragRMSD	| 1.142

