@<TRIPOS>MOLECULE
BindingDB_11621
 29 30 0 0 0
SMALL
NO_CHARGES


@<TRIPOS>ATOM
1    C        -4.9965    3.8958   13.2068  C     
2    C        -5.4080    2.3611   14.8849  C     
3    S        -5.6897    4.0462   14.7967  S     
4    N        -4.6230    2.6334   12.9260  N     
5    N        -4.8567    1.8382   13.8610  N     
6    N        -7.1418    2.0091   17.0896  N     
7    S        -5.7621    1.4560   16.2948  S     
8    O        -6.0737   -0.0427   15.8485  O     
9    O        -4.5003    1.4494   17.2735  O     
10   N        -4.8259    4.8853   12.3076  N     
11   S        -5.2411    6.4997   12.5622  S     
12   O        -5.1282    7.1897   11.1329  O     
13   O        -6.7768    6.6201   12.9600  O     
14   C        -4.1580    7.2917   13.6739  C     
15   C        -3.5679    7.9369   15.9533  C     
16   C        -2.4148    8.5920   15.4711  C     
17   C        -2.1215    8.5864   14.0841  C     
18   C        -2.9907    7.9268   13.1913  C     
19   C        -4.4405    7.2969   15.0562  C     
20   N        -1.6143    9.2457   16.3310  N     
21   F        -1.0439    9.1811   13.6193  F     
22   H        -7.6455    1.4040   17.6581  H     
23   H        -7.4264    2.9437   17.0040  H     
24   H        -4.4173    4.6439   11.4559  H     
25   H        -3.7888    7.9500   16.9505  H     
26   H        -2.7661    7.9250   12.1884  H     
27   H        -5.2679    6.8247   15.4174  H     
28   H        -0.8216    9.7140   16.0143  H     
29   H        -1.8438    9.2829   17.2700  H     
@<TRIPOS>BOND
     1    1    3 1
     2    1    4 2
     3    1   10 1
     4    2    3 1
     5    2    5 2
     6    2    7 1
     7    4    5 1
     8    6    7 am
     9    7    8 2
    10    7    9 2
    11   10   11 1
    12   11   12 2
    13   11   13 2
    14   11   14 1
    15   14   18 1
    16   14   19 2
    17   15   16 2
    18   15   19 1
    19   16   17 1
    20   16   20 1
    21   17   18 2
    22   17   21 1
    23    6   22 1
    24    6   23 1
    25   10   24 1
    26   15   25 1
    27   18   26 1
    28   19   27 1
    29   20   28 1
    30   20   29 1
@<TRIPOS>PROPERTY_DATA
  Total_Score	| 4.8699
  Crash		| -1.3543
  Polar		| 3.3851
  FragIndex	| 1
  FragRMSD	| 0.909

