@<TRIPOS>MOLECULE
BindingDB_11624
 29 30 0 0 0
SMALL
NO_CHARGES


@<TRIPOS>ATOM
1    C        -5.1289    3.8086   13.1822  C     
2    C        -5.4660    2.2534   14.8600  C     
3    S        -5.7225    3.9449   14.8013  S     
4    N        -4.8144    2.5454   12.8563  N     
5    N        -5.0061    1.7284   13.7958  N     
6    N        -7.0505    1.8807   17.1512  N     
7    S        -5.7079    1.3539   16.2876  S     
8    O        -5.9033   -0.1787   15.9024  O     
9    O        -4.4074    1.5081   17.1848  O     
10   N        -4.9035    4.8109   12.3021  N     
11   S        -5.2354    6.4377   12.6015  S     
12   O        -5.0567    7.1605   11.1920  O     
13   O        -6.7766    6.6459   12.9601  O     
14   C        -4.1331    7.1544   13.7412  C     
15   C        -3.6111    7.8755   16.0112  C     
16   C        -2.3840    8.4237   15.5668  C     
17   C        -2.0223    8.3222   14.2024  C     
18   C        -2.9001    7.6908   13.3024  C     
19   C        -4.4662    7.2242   15.1093  C     
20   N        -1.5880    9.0421   16.4566  N     
21   I        -0.2438    9.0829   13.4814  I     
22   H        -7.2709    1.4617   18.0028  H     
23   H        -7.6424    2.5497   16.7621  H     
24   H        -4.5546    4.5661   11.4314  H     
25   H        -3.8787    7.9275   17.0035  H     
26   H        -2.6359    7.6401   12.3180  H     
27   H        -5.3363    6.8143   15.4667  H     
28   H        -0.7271    9.4171   16.1899  H     
29   H        -1.8699    9.1047   17.3821  H     
@<TRIPOS>BOND
     1    1    3 1
     2    1    4 2
     3    1   10 1
     4    2    3 1
     5    2    5 2
     6    2    7 1
     7    4    5 1
     8    6    7 am
     9    7    8 2
    10    7    9 2
    11   10   11 1
    12   11   12 2
    13   11   13 2
    14   11   14 1
    15   14   18 1
    16   14   19 2
    17   15   16 2
    18   15   19 1
    19   16   17 1
    20   16   20 1
    21   17   18 2
    22   17   21 1
    23    6   22 1
    24    6   23 1
    25   10   24 1
    26   15   25 1
    27   18   26 1
    28   19   27 1
    29   20   28 1
    30   20   29 1
@<TRIPOS>PROPERTY_DATA
  Total_Score	| 5.0618
  Crash		| -1.4073
  Polar		| 3.2078
  FragIndex	| 1
  FragRMSD	| 0.909

