@<TRIPOS>MOLECULE
BindingDB_10870
 29 30 0 0 0
SMALL
NO_CHARGES


@<TRIPOS>ATOM
1    C        -4.0278    7.2818   13.5154  C     
2    C        -4.3170    7.2559   14.8944  C     
3    C        -3.5128    7.9628   15.8074  C     
4    C        -2.4036    8.6953   15.3484  C     
5    C        -2.0906    8.6988   13.9738  C     
6    C        -2.9012    7.9949   13.0673  C     
7    N        -1.6521    9.3927   16.2190  N     
8    O        -6.5767    6.7741   12.5917  O     
9    O        -4.7306    6.8644   10.8929  O     
10   S        -5.0376    6.4244   12.3881  S     
11   N        -4.8244    4.7544   12.4752  N     
12   C        -5.2549    4.0129   13.5173  C     
13   C        -5.6936    2.4769   15.1812  C     
14   S        -4.8586    2.3384   13.7011  S     
15   N        -5.9726    4.4859   14.5500  N     
16   N        -6.1870    3.6249   15.4326  N     
17   S        -5.7657    1.2515   16.3590  S     
18   O        -5.8320   -0.1715   15.6593  O     
19   O        -4.4857    1.3635   17.3031  O     
20   N        -7.1569    1.3850   17.2962  N     
21   H        -5.1144    6.7308   15.2530  H     
22   H        -3.7437    7.9457   16.8062  H     
23   H        -1.2759    9.2146   13.6348  H     
24   H        -2.6558    8.0141   12.0759  H     
25   H        -0.8826    9.9015   15.9103  H     
26   H        -1.8958    9.4029   17.1592  H     
27   H        -4.2957    4.3125   11.7826  H     
28   H        -7.4501    0.6121   17.8019  H     
29   H        -7.7949    2.0917   17.0939  H     
@<TRIPOS>BOND
     1    1    2 2
     2    1    6 1
     3    1   10 1
     4    2    3 1
     5    3    4 2
     6    4    5 1
     7    4    7 1
     8    5    6 2
     9    8   10 2
    10    9   10 2
    11   10   11 1
    12   11   12 1
    13   12   14 1
    14   12   15 2
    15   13   14 1
    16   13   16 2
    17   13   17 1
    18   15   16 1
    19   17   18 2
    20   17   19 2
    21   17   20 am
    22    2   21 1
    23    3   22 1
    24    5   23 1
    25    6   24 1
    26    7   25 1
    27    7   26 1
    28   11   27 1
    29   20   28 1
    30   20   29 1
@<TRIPOS>PROPERTY_DATA
  Total_Score	| 5.2233
  Crash		| -0.8726
  Polar		| 2.9954
  FragIndex	| 1
  FragRMSD	| 1.415

