@<TRIPOS>MOLECULE
BindingDB_11633
 29 30 0 0 0
SMALL
NO_CHARGES


@<TRIPOS>ATOM
1    C        -5.1074    3.8700   13.4892  C     
2    C        -5.4924    2.2060   15.0539  C     
3    S        -5.9130    3.8692   15.0287  S     
4    N        -4.6298    2.6600   13.1588  N     
5    N        -4.8487    1.7853   14.0323  N     
6    N        -7.2005    1.5253   17.2082  N     
7    S        -5.7533    1.2017   16.4003  S     
8    O        -5.7892   -0.3164   15.9111  O     
9    O        -4.5387    1.4264   17.4202  O     
10   N        -4.9387    4.8974   12.6440  N     
11   S        -5.5295    6.4648   12.8149  S     
12   O        -6.4484    6.8224   11.5484  O     
13   O        -6.5353    6.5970   14.0445  O     
14   C        -4.2757    7.6454   13.0382  C     
15   C        -2.9104    9.4737   12.1641  C     
16   C        -2.1863    9.5219   13.3807  C     
17   C        -2.5221    8.6350   14.4243  C     
18   C        -3.5632    7.6991   14.2512  C     
19   C        -3.9479    8.5378   12.0029  C     
20   N        -1.1771   10.3932   13.5419  N     
21   I        -2.4814   10.7332   10.5920  I     
22   I        -1.5125    8.6774   16.2110  I     
23   H        -7.3159    1.2113   18.1183  H     
24   H        -7.8382    2.1548   16.8214  H     
25   H        -4.4574    4.7085   11.8199  H     
26   H        -3.7981    7.0534   15.0116  H     
27   H        -4.4557    8.5090   11.1155  H     
28   H        -0.6810   10.4098   14.3761  H     
29   H        -0.9292   10.9981   12.8237  H     
@<TRIPOS>BOND
     1    1    3 1
     2    1    4 2
     3    1   10 1
     4    2    3 1
     5    2    5 2
     6    2    7 1
     7    4    5 1
     8    6    7 am
     9    7    8 2
    10    7    9 2
    11   10   11 1
    12   11   12 2
    13   11   13 2
    14   11   14 1
    15   14   18 1
    16   14   19 2
    17   15   16 2
    18   15   19 1
    19   15   21 1
    20   16   17 1
    21   16   20 1
    22   17   18 2
    23   17   22 1
    24    6   23 1
    25    6   24 1
    26   10   25 1
    27   18   26 1
    28   19   27 1
    29   20   28 1
    30   20   29 1
@<TRIPOS>PROPERTY_DATA
  Total_Score	| 2.8416
  Crash		| -1.8257
  Polar		| 2.9169
  FragIndex	| 1
  FragRMSD	| 1.496

