@<TRIPOS>MOLECULE
BindingDB_11628
 29 30 0 0 0
SMALL
NO_CHARGES


@<TRIPOS>ATOM
1    C        -5.1674    3.8521   13.3113  C     
2    C        -5.4481    2.3099   14.9879  C     
3    S        -5.5917    4.0099   14.9774  S     
4    N        -4.9568    2.5836   12.9403  N     
5    N        -5.1187    1.7672   13.8794  N     
6    N        -7.1316    1.9007   17.1741  N     
7    S        -5.7571    1.3760   16.3788  S     
8    O        -5.9997   -0.1288   15.9177  O     
9    O        -4.4939    1.4658   17.3449  O     
10   N        -5.0522    4.8636   12.4299  N     
11   S        -5.2522    6.4913   12.7984  S     
12   O        -5.5267    7.2236   11.4031  O     
13   O        -6.6167    6.7081   13.5906  O     
14   C        -3.8445    7.2183   13.5217  C     
15   C        -2.6336    8.1718   15.4214  C     
16   C        -1.5156    8.4364   14.5942  C     
17   C        -1.5550    8.0419   13.2378  C     
18   C        -2.7119    7.4381   12.7118  C     
19   C        -3.7924    7.5729   14.8816  C     
20   N        -0.4319    9.0752   15.0785  N     
21   Cl       -2.6067    8.5538   17.0707  Cl    
22   Cl       -0.2384    8.2862   12.1974  Cl    
23   H        -7.4646    1.4012   17.9349  H     
24   H        -7.5696    2.7284   16.9118  H     
25   H        -4.8065    4.6328   11.5196  H     
26   H        -2.7296    7.1655   11.7268  H     
27   H        -4.5948    7.3918   15.4898  H     
28   H         0.3193    9.2666   14.4959  H     
29   H        -0.4126    9.3757   16.0006  H     
@<TRIPOS>BOND
     1    1    3 1
     2    1    4 2
     3    1   10 1
     4    2    3 1
     5    2    5 2
     6    2    7 1
     7    4    5 1
     8    6    7 am
     9    7    8 2
    10    7    9 2
    11   10   11 1
    12   11   12 2
    13   11   13 2
    14   11   14 1
    15   14   18 1
    16   14   19 2
    17   15   16 2
    18   15   19 1
    19   15   21 1
    20   16   17 1
    21   16   20 1
    22   17   18 2
    23   17   22 1
    24    6   23 1
    25    6   24 1
    26   10   25 1
    27   18   26 1
    28   19   27 1
    29   20   28 1
    30   20   29 1
@<TRIPOS>PROPERTY_DATA
  Total_Score	| 3.1159
  Crash		| -2.3122
  Polar		| 3.2642
  FragIndex	| 1
  FragRMSD	| 1.118

