@<TRIPOS>MOLECULE
BindingDB_10886
 27 28 0 0 0
SMALL
NO_CHARGES


@<TRIPOS>ATOM
1    C        -4.1264    7.2958   14.0076  C     
2    C        -2.9378    7.9506   13.6168  C     
3    C        -2.1254    8.5746   14.5801  C     
4    C        -2.4935    8.5527   15.9404  C     
5    C        -3.6702    7.8955   16.3349  C     
6    C        -4.4733    7.2516   15.3762  C     
7    O        -6.7110    6.7189   13.1302  O     
8    O        -4.9900    7.3028   11.4272  O     
9    S        -5.1585    6.5482   12.8203  S     
10   N        -4.7879    4.9315   12.4947  N     
11   C        -5.0488    3.9009   13.3244  C     
12   C        -5.4959    2.3098   14.9331  C     
13   N        -4.6498    2.6629   13.0110  N     
14   N        -4.9025    1.8243   13.9112  N     
15   S        -5.8384    3.9741   14.8684  S     
16   S        -5.7836    1.3872   16.3358  S     
17   O        -5.9473   -0.1319   15.8999  O     
18   O        -4.5273    1.5245   17.3016  O     
19   N        -7.1711    1.8233   17.1728  N     
20   H        -2.6629    7.9786   12.6337  H     
21   H        -1.2691    9.0520   14.2899  H     
22   H        -1.9061    9.0166   16.6337  H     
23   H        -3.9436    7.8855   17.3189  H     
24   H        -5.3228    6.7696   15.6879  H     
25   H        -4.3083    4.7425   11.6761  H     
26   H        -7.4710    1.2764   17.9214  H     
27   H        -7.5485    2.7090   17.0444  H     
@<TRIPOS>BOND
     1    1    2 2
     2    1    6 1
     3    1    9 1
     4    2    3 1
     5    3    4 2
     6    4    5 1
     7    5    6 2
     8    7    9 2
     9    8    9 2
    10    9   10 1
    11   10   11 1
    12   11   13 2
    13   11   15 1
    14   12   14 2
    15   12   15 1
    16   12   16 1
    17   13   14 1
    18   16   17 2
    19   16   18 2
    20   16   19 am
    21    2   20 1
    22    3   21 1
    23    4   22 1
    24    5   23 1
    25    6   24 1
    26   10   25 1
    27   19   26 1
    28   19   27 1
@<TRIPOS>PROPERTY_DATA
  Total_Score	| 5.2500
  Crash		| -0.7869
  Polar		| 3.2743
  FragIndex	| 1
  FragRMSD	| 0.891

