@<TRIPOS>MOLECULE
BindingDB_11427
 30 31 0 0 0
SMALL
NO_CHARGES


@<TRIPOS>ATOM
1    C        -5.5393    2.3669   14.9430  C     
2    C        -5.1586    3.8657   13.2264  C     
3    S        -5.8205    4.0492   14.8142  S     
4    N        -4.8182    2.5983   12.9605  N     
5    N        -5.0304    1.8112   13.9114  N     
6    N        -7.0146    2.1514   17.3528  N     
7    S        -5.7863    1.5024   16.4022  S     
8    O        -6.2267    0.0194   16.0263  O     
9    O        -4.4231    1.4810   17.2228  O     
10   N        -4.9625    4.8382   12.3116  N     
11   S        -5.3427    6.4647   12.5363  S     
12   C        -4.2034    7.2824   13.5666  C     
13   C        -4.3959    7.2914   14.9644  C     
14   C        -3.4326    7.8768   15.8088  C     
15   C        -2.2658    8.4622   15.2759  C     
16   C        -2.0985    8.4894   13.8730  C     
17   C        -3.0540    7.9007   13.0252  C     
18   O        -5.3495    7.1201   11.0854  O     
19   O        -6.8406    6.6076   13.0438  O     
20   C        -1.2280    8.9949   16.1907  C     
21   H        -7.3706    1.6368   18.0998  H     
22   H        -7.3976    3.0189   17.1355  H     
23   H        -4.5534    4.5863   11.4671  H     
24   H        -5.2365    6.8649   15.3721  H     
25   H        -3.5883    7.8667   16.8204  H     
26   H        -1.2646    8.9181   13.4530  H     
27   H        -2.8953    7.9059   12.0116  H     
28   H        -1.6717    9.7199   16.8725  H     
29   H        -0.4144    9.4842   15.6504  H     
30   H        -0.8068    8.1753   16.7774  H     
@<TRIPOS>BOND
     1    1    3 1
     2    1    5 2
     3    1    7 1
     4    2    3 1
     5    2    4 2
     6    2   10 1
     7    4    5 1
     8    6    7 am
     9    7    8 2
    10    7    9 2
    11   10   11 1
    12   11   12 1
    13   11   18 2
    14   11   19 2
    15   12   13 1
    16   12   17 2
    17   13   14 2
    18   14   15 1
    19   15   16 2
    20   15   20 1
    21   16   17 1
    22    6   21 1
    23    6   22 1
    24   10   23 1
    25   13   24 1
    26   14   25 1
    27   16   26 1
    28   17   27 1
    29   20   28 1
    30   20   29 1
    31   20   30 1
@<TRIPOS>PROPERTY_DATA
  Total_Score	| 4.9802
  Crash		| -1.4905
  Polar		| 3.4199
  FragIndex	| 1
  FragRMSD	| 0.954

