@<TRIPOS>MOLECULE
BindingDB_50174034
 27 28 0 0 0
SMALL
NO_CHARGES


@<TRIPOS>ATOM
1    C        -5.7348    2.5355   15.3103  C     
2    S        -5.2213    6.5337   12.5337  S     
3    S        -5.8404    1.2595   16.4330  S     
4    S        -5.0998    2.3964   13.7330  S     
5    C        -5.3687    4.1056   13.6649  C     
6    N        -5.0266    4.8594   12.5959  N     
7    N        -6.0978    3.7070   15.6624  N     
8    N        -5.9139    4.5906   14.7920  N     
9    C        -4.0348    7.4296   13.4467  C     
10   O        -5.1719    6.9432   10.9953  O     
11   O        -6.7054    6.9070   12.9823  O     
12   O        -5.8867   -0.1345   15.6781  O     
13   O        -4.5512    1.3610   17.3621  O     
14   N        -7.2252    1.4261   17.3672  N     
15   C        -4.0463    7.3812   14.8586  C     
16   C        -3.0465    8.1886   12.7925  C     
17   C        -2.0795    8.8186   14.9399  C     
18   C        -3.0749    8.0758   15.6029  C     
19   C        -2.0736    8.8784   13.5341  C     
20   Br       -0.7512    9.6817   15.9102  Br    
21   H        -4.6280    4.4145   11.8331  H     
22   H        -7.3265    0.9128   18.1872  H     
23   H        -7.8864    2.0947   17.1303  H     
24   H        -4.7544    6.8409   15.3590  H     
25   H        -3.0162    8.2399   11.7768  H     
26   H        -3.0897    8.0349   16.6257  H     
27   H        -1.3512    9.4150   13.0542  H     
@<TRIPOS>BOND
     1    1    3 1
     2    1    4 1
     3    1    7 2
     4    2    6 1
     5    2    9 1
     6    2   10 2
     7    2   11 2
     8    3   12 2
     9    3   13 2
    10    3   14 am
    11    4    5 1
    12    5    6 1
    13    5    8 2
    14    7    8 1
    15    9   15 1
    16    9   16 2
    17   15   18 2
    18   16   19 1
    19   17   18 1
    20   17   19 2
    21   17   20 1
    22    6   21 1
    23   14   22 1
    24   14   23 1
    25   15   24 1
    26   16   25 1
    27   18   26 1
    28   19   27 1
@<TRIPOS>PROPERTY_DATA
  Total_Score	| 4.9608
  Crash		| -0.8089
  Polar		| 3.0164
  FragIndex	| 1
  FragRMSD	| 1.489

