@<TRIPOS>MOLECULE
BindingDB_50155539
 29 30 0 0 0
SMALL
NO_CHARGES


@<TRIPOS>ATOM
1    C        -5.7516    2.5464   15.2755  C     
2    S        -5.0913    6.5673   12.5550  S     
3    S        -5.8250    1.2655   16.3953  S     
4    S        -4.9962    2.4359   13.7527  S     
5    C        -5.3109    4.1387   13.6657  C     
6    N        -4.9025    4.8921   12.6219  N     
7    N        -6.1686    3.7103   15.6042  N     
8    N        -5.9512    4.6016   14.7550  N     
9    C        -0.3761   10.1234   15.9743  C     
10   C        -3.9829    7.4170   13.5974  C     
11   O        -4.9072    6.9785   11.0288  O     
12   O        -6.6079    6.9278   12.8831  O     
13   O        -5.8692   -0.1810   15.7471  O     
14   O        -4.5371    1.4069   17.3201  O     
15   N        -1.3709    9.4067   16.2193  N     
16   S         0.9170   11.0658   15.6567  S     
17   N        -7.1524    1.3950   17.4179  N     
18   C        -4.1523    7.3670   14.9959  C     
19   C        -2.9066    8.1552   13.0645  C     
20   C        -2.1849    8.7855   15.3290  C     
21   C        -3.2640    8.0417   15.8482  C     
22   C        -2.0127    8.8265   13.9208  C     
23   H        -4.4342    4.4546   11.8877  H     
24   H        -7.0578    1.1716   18.3597  H     
25   H        -8.0419    1.4974   17.0275  H     
26   H        -4.9213    6.8372   15.4103  H     
27   H        -2.7491    8.1928   12.0582  H     
28   H        -3.4154    8.0002   16.8613  H     
29   H        -1.2400    9.3531   13.5095  H     
@<TRIPOS>BOND
     1    1    3 1
     2    1    4 1
     3    1    7 2
     4    2    6 1
     5    2   10 1
     6    2   11 2
     7    2   12 2
     8    3   13 2
     9    3   14 2
    10    3   17 am
    11    4    5 1
    12    5    6 1
    13    5    8 2
    14    7    8 1
    15    9   15 2
    16    9   16 2
    17   10   18 2
    18   10   19 1
    19   15   20 1
    20   18   21 1
    21   19   22 2
    22   20   21 2
    23   20   22 1
    24    6   23 1
    25   17   24 1
    26   17   25 1
    27   18   26 1
    28   19   27 1
    29   21   28 1
    30   22   29 1
@<TRIPOS>PROPERTY_DATA
  Total_Score	| 5.6384
  Crash		| -0.5517
  Polar		| 3.0661
  FragIndex	| 1
  FragRMSD	| 1.445

