@<TRIPOS>MOLECULE
BindingDB_10867
 24 24 0 0 0
SMALL
NO_CHARGES


@<TRIPOS>ATOM
1    C        -5.9490    2.3279   15.6427  C     
2    C        -6.2291    3.7122   15.7578  C     
3    C        -5.9695    4.5675   14.6691  C     
4    C        -5.4149    4.0736   13.4710  C     
5    C        -5.1288    2.6918   13.3486  C     
6    C        -5.3972    1.8390   14.4399  C     
7    O        -6.2840   -0.3139   16.4338  O     
8    N        -5.1580    4.9649   12.4938  N     
9    S        -6.2206    1.1898   16.9401  S     
10   O        -5.0211    1.3326   17.9708  O     
11   N        -7.6447    1.4778   17.7758  N     
12   S        -4.3785    1.9822   11.9384  S     
13   O        -4.8400    0.4802   11.6960  O     
14   O        -4.7833    2.7602   10.6128  O     
15   N        -2.7035    2.0312   12.0606  N     
16   Cl       -6.8367    4.4261   17.1742  Cl    
17   H        -6.1687    5.5688   14.7570  H     
18   H        -5.1706    0.8443   14.3615  H     
19   H        -4.7539    4.6853   11.6601  H     
20   H        -5.3633    5.9036   12.6307  H     
21   H        -7.7619    1.1104   18.6641  H     
22   H        -8.3685    1.9596   17.3448  H     
23   H        -2.1741    2.3891   11.3282  H     
24   H        -2.2751    1.8052   12.9034  H     
@<TRIPOS>BOND
     1    1    2 1
     2    1    6 2
     3    1    9 1
     4    2    3 2
     5    2   16 1
     6    3    4 1
     7    4    5 2
     8    4    8 1
     9    5    6 1
    10    5   12 1
    11    7    9 2
    12    9   10 2
    13    9   11 am
    14   12   13 2
    15   12   14 2
    16   12   15 am
    17    3   17 1
    18    6   18 1
    19    8   19 1
    20    8   20 1
    21   11   21 1
    22   11   22 1
    23   15   23 1
    24   15   24 1
@<TRIPOS>PROPERTY_DATA
  Total_Score	| 6.2245
  Crash		| -1.5784
  Polar		| 5.1078
  FragIndex	| 1
  FragRMSD	| 0.975

