@<TRIPOS>MOLECULE
BindingDB_50079043
 24 24 0 0 0
SMALL
NO_CHARGES


@<TRIPOS>ATOM
1    C        -5.2026    2.5534   13.2064  C     
2    C        -5.8695    2.2487   15.5662  C     
3    S        -4.6050    1.7709   11.7541  S     
4    S        -6.0094    1.1425   16.9127  S     
5    C        -5.5378    3.9275   13.3007  C     
6    C        -6.1909    3.6248   15.6581  C     
7    C        -6.0338    4.4529   14.5193  C     
8    C        -5.3697    1.7383   14.3472  C     
9    O        -4.4358    2.6615   10.4484  O     
10   O        -3.1880    1.0812   11.9655  O     
11   O        -6.3495   -0.3334   16.4440  O     
12   O        -4.5565    0.9659   17.5256  O     
13   N        -5.5889    0.5213   11.2264  N     
14   N        -7.0165    1.4326   18.2193  N     
15   N        -5.3899    4.7710   12.2555  N     
16   Cl       -6.7375    4.3037   17.1256  Cl    
17   Cl       -6.4448    6.0969   14.6027  Cl    
18   H        -5.1178    0.7481   14.2880  H     
19   H        -6.1697    0.6601   10.4559  H     
20   H        -5.4791   -0.3690   11.5925  H     
21   H        -7.9671    1.3136   18.1166  H     
22   H        -6.6712    1.9126   18.9886  H     
23   H        -5.6406    5.7001   12.3482  H     
24   H        -5.0409    4.4747   11.4120  H     
@<TRIPOS>BOND
     1    1    3 1
     2    1    5 1
     3    1    8 2
     4    2    4 1
     5    2    6 2
     6    2    8 1
     7    3    9 2
     8    3   10 2
     9    3   13 am
    10    4   11 2
    11    4   12 2
    12    4   14 am
    13    5    7 2
    14    5   15 1
    15    6    7 1
    16    6   16 1
    17    7   17 1
    18    8   18 1
    19   13   19 1
    20   13   20 1
    21   14   21 1
    22   14   22 1
    23   15   23 1
    24   15   24 1
@<TRIPOS>PROPERTY_DATA
  Total_Score	| 4.7240
  Crash		| -2.8953
  Polar		| 4.7148
  FragIndex	| 1
  FragRMSD	| 1.363

