@<TRIPOS>MOLECULE
BindingDB_13076
 25 26 0 0 0
SMALL
NO_CHARGES


@<TRIPOS>ATOM
1    C        -4.3233    4.4047   11.1248  C     
2    S        -4.4255    1.7933   11.9009  S     
3    O        -5.5516    0.8128   11.3508  O     
4    O        -3.0556    1.0180   12.1697  O     
5    N        -4.1830    3.0298   10.7792  N     
6    N        -4.9533    4.7413   12.3668  N     
7    C        -5.0294    2.5161   13.3543  C     
8    C        -5.2565    3.9041   13.3829  C     
9    C        -5.3010    1.7043   14.4765  C     
10   C        -5.8181    4.4540   14.5619  C     
11   C        -6.1064    3.6543   15.6980  C     
12   C        -5.8186    2.2583   15.6562  C     
13   Cl       -6.7605    4.4225   17.0597  Cl    
14   N        -6.9518    1.5596   18.3494  N     
15   S        -6.0334    1.1762   16.9865  S     
16   O        -6.6489   -0.1879   16.4213  O     
17   O        -4.6149    0.7186   17.5475  O     
18   H        -3.3274    4.8476   11.1258  H     
19   H        -4.8952    4.8717   10.3240  H     
20   H        -3.7835    2.7987    9.9265  H     
21   H        -5.1322    5.6778   12.5091  H     
22   H        -5.1016    0.7152   14.4138  H     
23   H        -6.0051    5.4684   14.5969  H     
24   H        -7.8293    1.1372   18.4690  H     
25   H        -6.5701    2.0739   19.0755  H     
@<TRIPOS>BOND
     1    1    5 1
     2    1    6 1
     3    2    3 2
     4    2    4 2
     5    2    5 1
     6    2    7 1
     7    6    8 1
     8    7    8 2
     9    7    9 1
    10    8   10 1
    11    9   12 2
    12   10   11 2
    13   11   12 1
    14   11   13 1
    15   12   15 1
    16   14   15 am
    17   15   16 2
    18   15   17 2
    19    1   18 1
    20    1   19 1
    21    5   20 1
    22    6   21 1
    23    9   22 1
    24   10   23 1
    25   14   24 1
    26   14   25 1
@<TRIPOS>PROPERTY_DATA
  Total_Score	| 3.9596
  Crash		| -1.4160
  Polar		| 2.3867
  FragIndex	| 1
  FragRMSD	| 1.296

