@<TRIPOS>MOLECULE
BindingDB_50174036
 38 39 0 0 0
SMALL
NO_CHARGES


@<TRIPOS>ATOM
1    S        -4.4223    1.8048   11.7599  S     
2    S        -6.1485    1.1955   16.8028  S     
3    C        -5.0149    2.6308   13.1886  C     
4    C        -5.7641    2.3189   15.5217  C     
5    C        -5.2278    1.8132   14.3214  C     
6    C        -5.3371    4.0153   13.2743  C     
7    C        -4.4143    5.2490   11.3696  C     
8    C        -6.0201    3.7040   15.6224  C     
9    C        -5.8283    4.5267   14.4969  C     
10   N        -5.3510    4.9199   12.2493  N     
11   O        -5.9936   -0.2871   16.2598  O     
12   O        -5.1923    1.2873   18.0667  O     
13   O        -4.4367    2.6831   10.4415  O     
14   O        -2.9556    1.2132   11.9068  O     
15   N        -4.5747    6.1596   10.4191  N     
16   N        -7.7611    1.1915   17.2597  N     
17   N        -5.3951    0.5181   11.2802  N     
18   O        -3.2996    4.7657   11.4216  O     
19   Cl       -6.5430    4.4422   17.0592  Cl    
20   C        -5.6103    7.0270   10.2375  C     
21   C        -5.6989    8.2472   10.9465  C     
22   C        -6.5701    6.7483    9.2373  C     
23   C        -7.6177    7.6541    8.9760  C     
24   C        -6.7458    9.1465   10.6903  C     
25   C        -7.7001    8.8585    9.6981  C     
26   H        -5.0083    0.8165   14.2691  H     
27   H        -6.0572    5.5232   14.5700  H     
28   H        -6.1359    5.4826   12.2366  H     
29   H        -3.8637    6.2124    9.7601  H     
30   H        -8.3173    0.4400   17.0028  H     
31   H        -8.1791    2.0220   17.5259  H     
32   H        -5.7955    0.5149   10.3966  H     
33   H        -5.6344   -0.1728   11.9139  H     
34   H        -4.9880    8.5067   11.6352  H     
35   H        -6.5254    5.8761    8.7021  H     
36   H        -8.3112    7.4437    8.2555  H     
37   H        -6.8038   10.0133   11.2230  H     
38   H        -8.4483    9.5260    9.4973  H     
@<TRIPOS>BOND
     1    1    3 1
     2    1   13 2
     3    1   14 2
     4    1   17 am
     5    2    4 1
     6    2   11 2
     7    2   12 2
     8    2   16 am
     9    3    5 1
    10    3    6 2
    11    4    5 2
    12    4    8 1
    13    6    9 1
    14    6   10 1
    15    7   10 am
    16    7   15 am
    17    7   18 2
    18    8    9 2
    19    8   19 1
    20   15   20 1
    21   20   21 1
    22   20   22 2
    23   21   24 2
    24   22   23 1
    25   23   25 2
    26   24   25 1
    27    5   26 1
    28    9   27 1
    29   10   28 1
    30   15   29 1
    31   16   30 1
    32   16   31 1
    33   17   32 1
    34   17   33 1
    35   21   34 1
    36   22   35 1
    37   23   36 1
    38   24   37 1
    39   25   38 1
@<TRIPOS>PROPERTY_DATA
  Total_Score	| 6.1955
  Crash		| -2.3409
  Polar		| 4.7207
  FragIndex	| 1
  FragRMSD	| 1.373

