@<TRIPOS>MOLECULE
BindingDB_14228
 29 31 0 0 0
SMALL
NO_CHARGES


@<TRIPOS>ATOM
1    C        44.6246   15.2956    1.9951  C     
2    C        45.6140   14.6011    2.7153  C     
3    S        44.0851   14.2651    0.7282  S     
4    C        45.0621   12.9143    1.1388  C     
5    C        45.8308   13.2694    2.2656  C     
6    C        46.7215   12.3186    2.8101  C     
7    C        46.8151   11.0376    2.2157  C     
8    C        44.1301   16.5933    2.1856  C     
9    O        44.6467   17.4327    3.1156  O     
10   O        43.0491   17.0205    1.4856  O     
11   O        46.2126   15.1679    3.8153  O     
12   C        47.2717   16.0840    3.4539  C     
13   C        47.8331   16.7276    4.6562  C     
14   O        47.0556   17.4241    5.5162  O     
15   O        49.1655   16.8853    4.7415  O     
16   C        45.1361   11.6516    0.5238  C     
17   C        46.0366   10.6982    1.0764  C     
18   C        46.1668    9.4291    0.4623  C     
19   C        45.4050    9.1135   -0.6792  C     
20   C        44.4964   10.0458   -1.2014  C     
21   C        44.3569   11.3063   -0.5998  C     
22   H        47.2920   12.5580    3.6327  H     
23   H        47.4606   10.3496    2.6296  H     
24   H        48.0578   15.5106    2.9454  H     
25   H        46.9092   16.8834    2.7767  H     
26   H        46.8222    8.7279    0.8348  H     
27   H        45.5196    8.2132   -1.1360  H     
28   H        43.9387    9.8180   -2.0160  H     
29   H        43.7021   11.9821   -0.9968  H     
@<TRIPOS>BOND
     1    1    2 2
     2    1    3 1
     3    1    8 1
     4    2    5 1
     5    2   11 1
     6    3    4 1
     7    4    5 2
     8    4   16 1
     9    5    6 1
    10    6    7 2
    11    7   17 1
    12    8    9 2
    13    8   10 1
    14   11   12 1
    15   12   13 1
    16   13   14 2
    17   13   15 1
    18   16   17 2
    19   16   21 1
    20   17   18 1
    21   18   19 2
    22   19   20 1
    23   20   21 2
    24    6   22 1
    25    7   23 1
    26   12   24 1
    27   12   25 1
    28   18   26 1
    29   19   27 1
    30   20   28 1
    31   21   29 1
@<TRIPOS>PROPERTY_DATA
  Total_Score	| 10.9995
  Crash		| -0.4431
  Polar		| 8.3656
  FragIndex	| 1
  FragRMSD	| 1.165

