@<TRIPOS>MOLECULE
BindingDB_14218
 23 24 0 0 0
SMALL
NO_CHARGES


@<TRIPOS>ATOM
1    C        44.5977   15.2599    1.9536  C     
2    C        45.6008   14.5959    2.6773  C     
3    S        44.0426   14.1771    0.7313  S     
4    C        45.0417   12.8558    1.1735  C     
5    C        45.8354   13.2620    2.2608  C     
6    C        46.7535   12.3393    2.8182  C     
7    C        46.8529   11.0402    2.2676  C     
8    C        46.0258   10.6460    1.1943  C     
9    C        45.1120   11.5615    0.6357  C     
10   Cl       46.1360    9.0854    0.5764  Cl    
11   C        44.0949   16.5649    2.1199  C     
12   O        44.5052   17.3899    3.1137  O     
13   O        43.0894   17.0049    1.3328  O     
14   O        46.2279   15.1835    3.7435  O     
15   C        47.2312   16.1501    3.3892  C     
16   C        47.8292   16.7101    4.6219  C     
17   O        49.1744   16.8774    4.6249  O     
18   O        47.0967   17.4755    5.4858  O     
19   H        47.3402   12.6048    3.6112  H     
20   H        47.5216   10.3780    2.6701  H     
21   H        44.5008   11.2994   -0.1452  H     
22   H        48.0205   15.6456    2.8223  H     
23   H        46.8511   16.9846    2.7886  H     
@<TRIPOS>BOND
     1    1    2 2
     2    1    3 1
     3    1   11 1
     4    2    5 1
     5    2   14 1
     6    3    4 1
     7    4    5 2
     8    4    9 1
     9    5    6 1
    10    6    7 2
    11    7    8 1
    12    8    9 2
    13    8   10 1
    14   11   12 2
    15   11   13 1
    16   14   15 1
    17   15   16 1
    18   16   17 2
    19   16   18 1
    20    6   19 1
    21    7   20 1
    22    9   21 1
    23   15   22 1
    24   15   23 1
@<TRIPOS>PROPERTY_DATA
  Total_Score	| 10.4113
  Crash		| -0.4312
  Polar		| 8.3869
  FragIndex	| 1
  FragRMSD	| 0.821

