@<TRIPOS>MOLECULE
BindingDB_14214
 23 24 0 0 0
SMALL
NO_CHARGES


@<TRIPOS>ATOM
1    C        46.6933   12.3443    2.8698  C     
2    C        46.7740   11.0336    2.3411  C     
3    C        45.9720   10.6521    1.2480  C     
4    C        45.0178   12.8729    1.1947  C     
5    C        45.8044   13.2793    2.2923  C     
6    C        44.5870   15.2898    1.9423  C     
7    C        45.5919   14.6241    2.6884  C     
8    C        44.0702   16.5878    2.1141  C     
9    O        43.1068   17.0420    1.2893  O     
10   O        44.4568   17.3933    3.1317  O     
11   O        46.2195   15.1998    3.7633  O     
12   C        47.1808   16.2170    3.4088  C     
13   C        47.8068   16.7287    4.6371  C     
14   O        49.1401   16.9037    4.6345  O     
15   O        47.0875   17.5056    5.4992  O     
16   C        45.0802   11.5731    0.6653  C     
17   S        44.0373   14.2003    0.7347  S     
18   H        47.2683   12.6019    3.6797  H     
19   H        47.4242   10.3616    2.7492  H     
20   H        46.0284    9.7031    0.8801  H     
21   H        47.9570   15.7873    2.7641  H     
22   H        46.7303   17.0716    2.8910  H     
23   H        44.4864   11.3091   -0.1198  H     
@<TRIPOS>BOND
     1    1    2 2
     2    1    5 1
     3    2    3 1
     4    3   16 2
     5    4    5 2
     6    4   16 1
     7    4   17 1
     8    5    7 1
     9    6    7 2
    10    6    8 1
    11    6   17 1
    12    7   11 1
    13    8    9 2
    14    8   10 1
    15   11   12 1
    16   12   13 1
    17   13   14 2
    18   13   15 1
    19    1   18 1
    20    2   19 1
    21    3   20 1
    22   12   21 1
    23   12   22 1
    24   16   23 1
@<TRIPOS>PROPERTY_DATA
  Total_Score	| 10.2555
  Crash		| -0.5394
  Polar		| 8.3139
  FragIndex	| 1
  FragRMSD	| 0.105

