@<TRIPOS>MOLECULE
BindingDB_14222
 33 35 0 0 0
SMALL
NO_CHARGES


@<TRIPOS>ATOM
1    C        44.5641   15.3418    1.9060  C     
2    C        45.5501   14.7136    2.6927  C     
3    S        44.1380   14.2442    0.6437  S     
4    C        45.2073   12.9836    1.1084  C     
5    C        45.8847   13.4118    2.2612  C     
6    C        46.8210   12.5454    2.8561  C     
7    C        47.0688   11.2835    2.2680  C     
8    C        46.4007   10.8639    1.0930  C     
9    C        45.4403   11.7321    0.5153  C     
10   C        44.0129   16.6243    2.0502  C     
11   O        42.9601   16.9901    1.2804  O     
12   O        44.4902   17.5392    2.9247  O     
13   O        46.1471   15.3141    3.7661  O     
14   C        47.2079   16.2136    3.3894  C     
15   C        47.8143   16.7592    4.6142  C     
16   O        47.0872   17.4600    5.5143  O     
17   O        49.1560   16.8104    4.7347  O     
18   C        46.6883    9.5894    0.5193  C     
19   C        46.9551    8.4731    1.3506  C     
20   C        47.2624    7.2168    0.7971  C     
21   C        47.2978    7.0508   -0.5971  C     
22   C        47.0435    8.1480   -1.4377  C     
23   C        46.7456    9.4096   -0.8864  C     
24   H        47.3281   12.8232    3.6932  H     
25   H        47.7632   10.6803    2.7091  H     
26   H        44.9260   11.4749   -0.3237  H     
27   H        47.9813   15.6851    2.8195  H     
28   H        46.8401   17.0600    2.7913  H     
29   H        46.9170    8.5629    2.3709  H     
30   H        47.4524    6.4258    1.4125  H     
31   H        47.5075    6.1354   -0.9967  H     
32   H        47.0827    8.0325   -2.4506  H     
33   H        46.5854   10.1983   -1.5182  H     
@<TRIPOS>BOND
     1    1    2 2
     2    1    3 1
     3    1   10 1
     4    2    5 1
     5    2   13 1
     6    3    4 1
     7    4    5 2
     8    4    9 1
     9    5    6 1
    10    6    7 2
    11    7    8 1
    12    8    9 2
    13    8   18 1
    14   10   11 2
    15   10   12 1
    16   13   14 1
    17   14   15 1
    18   15   16 2
    19   15   17 1
    20   18   19 2
    21   18   23 1
    22   19   20 1
    23   20   21 2
    24   21   22 1
    25   22   23 2
    26    6   24 1
    27    7   25 1
    28    9   26 1
    29   14   27 1
    30   14   28 1
    31   19   29 1
    32   20   30 1
    33   21   31 1
    34   22   32 1
    35   23   33 1
@<TRIPOS>PROPERTY_DATA
  Total_Score	| 11.3862
  Crash		| -0.8174
  Polar		| 8.3556
  FragIndex	| 1
  FragRMSD	| 0.829

