@<TRIPOS>MOLECULE
BindingDB_14215
 25 26 0 0 0
SMALL
NO_CHARGES


@<TRIPOS>ATOM
1    C        46.6698   12.4239    2.9752  C     
2    C        46.1407   10.7347    1.3506  C     
3    C        45.1095   12.9022    1.2121  C     
4    C        45.8000   13.3362    2.3516  C     
5    C        44.5610   15.3029    1.9182  C     
6    C        45.5224   14.6676    2.7293  C     
7    C        44.0306   16.6025    2.0298  C     
8    O        43.0260   16.9967    1.2133  O     
9    O        44.4520   17.4681    2.9840  O     
10   O        46.1045   15.2576    3.8192  O     
11   C        47.1707   16.1609    3.4594  C     
12   C        47.7808   16.6928    4.6864  C     
13   O        47.0244   17.4407    5.5355  O     
14   O        49.0972   16.9605    4.6682  O     
15   C        45.2613   11.6136    0.6865  C     
16   S        44.1081   14.1911    0.6836  S     
17   N        46.8055   11.1709    2.4600  N     
18   C        46.3277    9.3523    0.8720  C     
19   H        47.1923   12.6886    3.8099  H     
20   H        47.9443   15.6390    2.8764  H     
21   H        46.7928   17.0069    2.8734  H     
22   H        44.7404   11.3314   -0.1450  H     
23   H        45.3647    8.8350    0.8591  H     
24   H        47.0125    8.8015    1.5159  H     
25   H        46.7333    9.3633   -0.1405  H     
@<TRIPOS>BOND
     1    1    4 1
     2    1   17 2
     3    2   15 2
     4    2   17 1
     5    2   18 1
     6    3    4 2
     7    3   15 1
     8    3   16 1
     9    4    6 1
    10    5    6 2
    11    5    7 1
    12    5   16 1
    13    6   10 1
    14    7    8 2
    15    7    9 1
    16   10   11 1
    17   11   12 1
    18   12   13 2
    19   12   14 1
    20    1   19 1
    21   11   20 1
    22   11   21 1
    23   15   22 1
    24   18   23 1
    25   18   24 1
    26   18   25 1
@<TRIPOS>PROPERTY_DATA
  Total_Score	| 10.5013
  Crash		| -0.3561
  Polar		| 8.4072
  FragIndex	| 1
  FragRMSD	| 1.454

