@<TRIPOS>MOLECULE
BindingDB_14227
 26 27 0 0 0
SMALL
NO_CHARGES


@<TRIPOS>ATOM
1    C        44.5950   15.2869    1.8924  C     
2    C        45.5804   14.6386    2.6647  C     
3    S        44.1361   14.2090    0.6314  S     
4    C        45.1665   12.9109    1.0846  C     
5    C        45.8683   13.3209    2.2343  C     
6    C        46.7776   12.4242    2.8336  C     
7    C        46.9733   11.1462    2.2714  C     
8    C        46.2541   10.7495    1.1268  C     
9    C        45.3407   11.6342    0.5086  C     
10   C        44.0449   16.5784    2.0557  C     
11   O        44.4654   17.4448    3.0034  O     
12   O        43.0155   16.9707    1.2689  O     
13   O        46.1453   15.2355    3.7609  O     
14   C        47.2065   16.1428    3.4259  C     
15   C        47.8192   16.6921    4.6410  C     
16   O        47.0814   17.4106    5.5440  O     
17   O        49.1651   16.8998    4.6386  O     
18   C        44.5844   11.2317   -0.6984  C     
19   H        47.2902   12.6909    3.6800  H     
20   H        47.6322   10.4991    2.6938  H     
21   H        46.4044    9.8122    0.7442  H     
22   H        47.9864   15.6141    2.8736  H     
23   H        46.8545   16.9859    2.8212  H     
24   H        43.5111   11.2669   -0.4722  H     
25   H        44.8336   10.2180   -1.0218  H     
26   H        44.8016   11.9228   -1.5180  H     
@<TRIPOS>BOND
     1    1    2 2
     2    1    3 1
     3    1   10 1
     4    2    5 1
     5    2   13 1
     6    3    4 1
     7    4    5 2
     8    4    9 1
     9    5    6 1
    10    6    7 2
    11    7    8 1
    12    8    9 2
    13    9   18 1
    14   10   11 2
    15   10   12 1
    16   13   14 1
    17   14   15 1
    18   15   16 2
    19   15   17 1
    20    6   19 1
    21    7   20 1
    22    8   21 1
    23   14   22 1
    24   14   23 1
    25   18   24 1
    26   18   25 1
    27   18   26 1
@<TRIPOS>PROPERTY_DATA
  Total_Score	| 10.3556
  Crash		| -0.4657
  Polar		| 8.3819
  FragIndex	| 1
  FragRMSD	| 1.161

