@<TRIPOS>MOLECULE
BindingDB_14224
 30 32 0 0 0
SMALL
NO_CHARGES


@<TRIPOS>ATOM
1    C        44.5966   15.3090    1.9325  C     
2    C        45.5964   14.6561    2.6786  C     
3    S        44.1351   14.2517    0.6538  S     
4    C        45.1848   12.9648    1.0798  C     
5    C        45.8960   13.3516    2.2242  C     
6    C        46.8135   12.4421    2.7833  C     
7    C        47.0166   11.1866    2.1722  C     
8    C        46.3222   10.8126    0.9903  C     
9    C        45.3771   11.7241    0.4547  C     
10   C        44.0475   16.5880    2.1215  C     
11   O        43.0394   17.0190    1.3328  O     
12   O        44.4692   17.4167    3.1021  O     
13   O        46.2188   15.2229    3.7593  O     
14   C        47.2025   16.2098    3.3886  C     
15   C        47.7991   16.7732    4.6067  C     
16   O        49.1423   16.8078    4.7449  O     
17   O        47.0399   17.4454    5.5029  O     
18   C        46.5943    9.5717    0.3468  C     
19   C        47.3545    7.1959   -0.3400  C     
20   C        46.3530    9.2212   -0.9942  C     
21   C        46.7684    7.9318   -1.3683  C     
22   S        47.3494    8.1919    1.0585  S     
23   H        47.3369   12.6866    3.6261  H     
24   H        47.7039   10.5569    2.5907  H     
25   H        44.8274   11.5029   -0.3771  H     
26   H        47.9893   15.7566    2.7776  H     
27   H        46.7546   17.0316    2.8231  H     
28   H        47.7190    6.2446   -0.4028  H     
29   H        45.9317    9.8570   -1.6733  H     
30   H        46.6573    7.5660   -2.3157  H     
@<TRIPOS>BOND
     1    1    2 2
     2    1    3 1
     3    1   10 1
     4    2    5 1
     5    2   13 1
     6    3    4 1
     7    4    5 2
     8    4    9 1
     9    5    6 1
    10    6    7 2
    11    7    8 1
    12    8    9 2
    13    8   18 1
    14   10   11 2
    15   10   12 1
    16   13   14 1
    17   14   15 1
    18   15   16 2
    19   15   17 1
    20   18   20 2
    21   18   22 1
    22   19   21 2
    23   19   22 1
    24   20   21 1
    25    6   23 1
    26    7   24 1
    27    9   25 1
    28   14   26 1
    29   14   27 1
    30   19   28 1
    31   20   29 1
    32   21   30 1
@<TRIPOS>PROPERTY_DATA
  Total_Score	| 10.9387
  Crash		| -0.4895
  Polar		| 8.2888
  FragIndex	| 1
  FragRMSD	| 0.122

