@<TRIPOS>MOLECULE
BindingDB_14226
 23 24 0 0 0
SMALL
NO_CHARGES


@<TRIPOS>ATOM
1    C        44.5629   15.2342    1.9103  C     
2    C        45.5851   14.5972    2.6575  C     
3    S        44.0835   14.1608    0.6532  S     
4    C        45.0910   12.8589    1.1008  C     
5    C        45.8174   13.2478    2.2532  C     
6    C        46.7296   12.3228    2.8095  C     
7    C        46.8994   11.0539    2.2111  C     
8    C        46.1698   10.7005    1.0618  C     
9    C        45.2212   11.5887    0.5138  C     
10   C        44.0437   16.5478    2.0294  C     
11   O        43.0384   16.9468    1.2168  O     
12   O        44.4935   17.4160    2.9727  O     
13   O        46.1195   15.2326    3.7669  O     
14   C        47.2457   16.0920    3.4671  C     
15   C        47.7495   16.7327    4.7096  C     
16   O        49.0565   17.1257    4.6959  O     
17   O        46.8870   17.4595    5.4738  O     
18   Cl       44.3219   11.1464   -0.8358  Cl    
19   H        47.2640   12.5759    3.6668  H     
20   H        47.5685   10.4005    2.6208  H     
21   H        46.3122    9.7773    0.6537  H     
22   H        48.0531   15.4599    3.0625  H     
23   H        47.0047   16.9016    2.7480  H     
@<TRIPOS>BOND
     1    1    2 2
     2    1    3 1
     3    1   10 1
     4    2    5 1
     5    2   13 1
     6    3    4 1
     7    4    5 2
     8    4    9 1
     9    5    6 1
    10    6    7 2
    11    7    8 1
    12    8    9 2
    13    9   18 1
    14   10   11 2
    15   10   12 1
    16   13   14 1
    17   14   15 1
    18   15   16 2
    19   15   17 1
    20    6   19 1
    21    7   20 1
    22    8   21 1
    23   14   22 1
    24   14   23 1
@<TRIPOS>PROPERTY_DATA
  Total_Score	| 10.5211
  Crash		| -0.2923
  Polar		| 8.1782
  FragIndex	| 1
  FragRMSD	| 0.142

