@<TRIPOS>MOLECULE
BindingDB_14221
 23 24 0 0 0
SMALL
NO_CHARGES


@<TRIPOS>ATOM
1    C        44.5804   15.2770    1.9388  C     
2    C        45.5527   14.6147    2.7155  C     
3    S        44.0910   14.2070    0.6823  S     
4    C        45.1021   12.9070    1.1535  C     
5    C        45.8330   13.2937    2.2908  C     
6    C        46.7401   12.3734    2.8616  C     
7    C        46.9125   11.1010    2.2643  C     
8    C        46.1713   10.7386    1.1181  C     
9    C        45.2542   11.6472    0.5544  C     
10   C        44.0746   16.5832    2.0903  C     
11   O        44.5807   17.4598    2.9928  O     
12   O        43.0282   16.9952    1.3394  O     
13   O        46.1276   15.2402    3.7916  O     
14   C        47.2284   16.1028    3.4181  C     
15   C        47.8317   16.7453    4.6028  C     
16   O        49.1798   16.8158    4.6777  O     
17   O        47.0921   17.4519    5.4906  O     
18   Br       46.4402    9.0711    0.3355  Br    
19   H        47.2853   12.6509    3.6999  H     
20   H        47.5791   10.4477    2.6718  H     
21   H        44.7249   11.3923   -0.2785  H     
22   H        48.0015   15.4649    2.9371  H     
23   H        46.9229   16.9011    2.7159  H     
@<TRIPOS>BOND
     1    1    2 2
     2    1    3 1
     3    1   10 1
     4    2    5 1
     5    2   13 1
     6    3    4 1
     7    4    5 2
     8    4    9 1
     9    5    6 1
    10    6    7 2
    11    7    8 1
    12    8    9 2
    13    8   18 1
    14   10   11 2
    15   10   12 1
    16   13   14 1
    17   14   15 1
    18   15   16 2
    19   15   17 1
    20    6   19 1
    21    7   20 1
    22    9   21 1
    23   14   22 1
    24   14   23 1
@<TRIPOS>PROPERTY_DATA
  Total_Score	| 10.4513
  Crash		| -0.3974
  Polar		| 8.3639
  FragIndex	| 1
  FragRMSD	| 0.820

