@<TRIPOS>MOLECULE
BindingDB_14223
 34 36 0 0 0
SMALL
NO_CHARGES


@<TRIPOS>ATOM
1    C        44.5557   15.3477    1.9241  C     
2    C        45.5714   14.7404    2.6902  C     
3    S        44.1144   14.2315    0.6874  S     
4    C        45.1970   12.9826    1.1542  C     
5    C        45.8962   13.4294    2.2814  C     
6    C        46.8486   12.5769    2.8768  C     
7    C        47.0989   11.3115    2.3143  C     
8    C        46.4055   10.8633    1.1603  C     
9    C        45.4357   11.7184    0.5825  C     
10   C        43.9833   16.6238    2.0753  C     
11   O        42.9686   17.0132    1.2729  O     
12   O        44.3820   17.4794    3.0426  O     
13   O        46.1871   15.3335    3.7586  O     
14   C        47.1860   16.2980    3.3615  C     
15   C        47.8048   16.8216    4.5813  C     
16   O        49.1472   16.7743    4.7331  O     
17   O        47.0692   17.4825    5.5081  O     
18   C        46.7176    9.5975    0.5927  C     
19   C        46.8321    9.4500   -0.8123  C     
20   C        47.1954    8.2158   -1.3794  C     
21   C        47.4649    7.1091   -0.5540  C     
22   C        47.3459    7.2304    0.8399  C     
23   C        46.9634    8.4605    1.4081  C     
24   O        47.8040    5.9208   -1.0975  O     
25   H        47.3578   12.8763    3.7077  H     
26   H        47.8161   10.7307    2.7486  H     
27   H        44.8994   11.4384   -0.2437  H     
28   H        47.9550   15.8396    2.7291  H     
29   H        46.7353   17.1306    2.8119  H     
30   H        46.6697   10.2455   -1.4354  H     
31   H        47.2703    8.1304   -2.3989  H     
32   H        47.5216    6.4206    1.4375  H     
33   H        46.8481    8.5097    2.4212  H     
34   H        47.0939    5.7453   -1.7503  H     
@<TRIPOS>BOND
     1    1    2 2
     2    1    3 1
     3    1   10 1
     4    2    5 1
     5    2   13 1
     6    3    4 1
     7    4    5 2
     8    4    9 1
     9    5    6 1
    10    6    7 2
    11    7    8 1
    12    8    9 2
    13    8   18 1
    14   10   11 2
    15   10   12 1
    16   13   14 1
    17   14   15 1
    18   15   16 2
    19   15   17 1
    20   18   19 2
    21   18   23 1
    22   19   20 1
    23   20   21 2
    24   21   22 1
    25   21   24 1
    26   22   23 2
    27    6   25 1
    28    7   26 1
    29    9   27 1
    30   14   28 1
    31   14   29 1
    32   19   30 1
    33   20   31 1
    34   22   32 1
    35   23   33 1
    36   24   34 1
@<TRIPOS>PROPERTY_DATA
  Total_Score	| 11.4749
  Crash		| -0.9429
  Polar		| 8.9443
  FragIndex	| 1
  FragRMSD	| 0.139

