@<TRIPOS>MOLECULE
BindingDB_14211
 22 23 0 0 0
SMALL
NO_CHARGES


@<TRIPOS>ATOM
1    C        46.7127   12.3952    2.8404  C     
2    C        46.8642   11.1196    2.2653  C     
3    C        46.0936   10.7715    1.1345  C     
4    C        45.0926   12.9043    1.1332  C     
5    C        45.8179   13.3166    2.2673  C     
6    C        44.5747   15.2929    1.8974  C     
7    C        45.5460   14.6409    2.6780  C     
8    N        45.2272   11.6698    0.5936  N     
9    S        44.0897   14.2070    0.6508  S     
10   C        44.0493   16.5878    2.0487  C     
11   O        43.0053   16.9806    1.2898  O     
12   O        44.5023   17.4508    2.9869  O     
13   O        46.1312   15.2257    3.7765  O     
14   C        47.2256   16.0914    3.4494  C     
15   C        47.8177   16.6661    4.6674  C     
16   O        47.0806   17.4481    5.5103  O     
17   O        49.1494   16.8662    4.6772  O     
18   H        47.2535   12.6432    3.6712  H     
19   H        47.5226   10.4454    2.6629  H     
20   H        46.1845    9.8446    0.7193  H     
21   H        48.0118   15.5337    2.9425  H     
22   H        46.9175   16.9173    2.7978  H     
@<TRIPOS>BOND
     1    1    2 2
     2    1    5 1
     3    2    3 1
     4    3    8 2
     5    4    5 2
     6    4    8 1
     7    4    9 1
     8    5    7 1
     9    6    7 2
    10    6    9 1
    11    6   10 1
    12    7   13 1
    13   10   11 2
    14   10   12 1
    15   13   14 1
    16   14   15 1
    17   15   16 2
    18   15   17 1
    19    1   18 1
    20    2   19 1
    21    3   20 1
    22   14   21 1
    23   14   22 1
@<TRIPOS>PROPERTY_DATA
  Total_Score	| 10.3863
  Crash		| -0.3497
  Polar		| 8.4284
  FragIndex	| 1
  FragRMSD	| 0.797

