@<TRIPOS>MOLECULE
BindingDB_14229
 28 30 0 0 0
SMALL
NO_CHARGES


@<TRIPOS>ATOM
1    C        44.5544   15.2978    1.9267  C     
2    C        45.5259   14.6619    2.7168  C     
3    S        44.0973   14.1878    0.6921  S     
4    C        45.1180   12.8988    1.1830  C     
5    C        45.8184   13.3419    2.3164  C     
6    C        46.7190   12.4517    2.9301  C     
7    C        44.0268   16.5917    2.0536  C     
8    O        43.0207   16.9934    1.2501  O     
9    O        44.4615   17.4630    2.9905  O     
10   O        46.1193   15.2556    3.7953  O     
11   C        47.1851   16.1540    3.4287  C     
12   C        47.8237   16.6859    4.6361  C     
13   O        47.1093   17.4474    5.5117  O     
14   O        49.1569   16.8705    4.6381  O     
15   C        45.3049   11.6114    0.6393  C     
16   C        46.2368   10.7625    1.3002  C     
17   C        46.4820    9.4666    0.8063  C     
18   C        45.8048    9.0118   -0.3398  C     
19   C        44.8734    9.8445   -0.9878  C     
20   C        44.6212   11.1411   -0.5023  C     
21   N        46.8968   11.2095    2.4031  N     
22   H        47.2365   12.7194    3.7676  H     
23   H        47.9454   15.6260    2.8386  H     
24   H        46.8215   17.0058    2.8413  H     
25   H        47.1560    8.8578    1.2732  H     
26   H        45.9935    8.0787   -0.7058  H     
27   H        44.3848    9.5085   -1.8234  H     
28   H        43.9457   11.7363   -0.9911  H     
@<TRIPOS>BOND
     1    1    2 2
     2    1    3 1
     3    1    7 1
     4    2    5 1
     5    2   10 1
     6    3    4 1
     7    4    5 2
     8    4   15 1
     9    5    6 1
    10    6   21 2
    11    7    8 2
    12    7    9 1
    13   10   11 1
    14   11   12 1
    15   12   13 2
    16   12   14 1
    17   15   16 2
    18   15   20 1
    19   16   17 1
    20   16   21 1
    21   17   18 2
    22   18   19 1
    23   19   20 2
    24    6   22 1
    25   11   23 1
    26   11   24 1
    27   17   25 1
    28   18   26 1
    29   19   27 1
    30   20   28 1
@<TRIPOS>PROPERTY_DATA
  Total_Score	| 10.6231
  Crash		| -0.4685
  Polar		| 8.4293
  FragIndex	| 1
  FragRMSD	| 1.456

