@<TRIPOS>MOLECULE
BindingDB_14220
 23 24 0 0 0
SMALL
NO_CHARGES


@<TRIPOS>ATOM
1    C        44.5904   15.3077    1.9436  C     
2    C        45.5563   14.6283    2.7109  C     
3    S        44.0758   14.2259    0.7012  S     
4    C        45.0431   12.9004    1.1682  C     
5    C        45.7775   13.2905    2.3000  C     
6    C        46.6511   12.3408    2.8841  C     
7    C        46.7726   11.0582    2.3132  C     
8    C        46.0168   10.6907    1.1749  C     
9    C        45.1346   11.6194    0.6026  C     
10   Cl       46.1709    9.1286    0.5385  Cl    
11   C        44.0655   16.6117    2.0966  C     
12   O        44.5404   17.4780    3.0242  O     
13   O        43.0300   17.0236    1.3219  O     
14   O        46.1300   15.2197    3.8158  O     
15   C        47.3181   15.9860    3.5444  C     
16   C        47.7505   16.6367    4.7877  C     
17   O        49.0376   17.0086    4.8886  O     
18   O        46.8578   17.3704    5.5034  O     
19   F        48.3195   15.1426    3.0943  F     
20   H        47.1935   12.5807    3.7188  H     
21   H        47.4333   10.3816    2.7281  H     
22   H        44.5745   11.3700   -0.2123  H     
23   H        47.1369   16.7616    2.7921  H     
@<TRIPOS>BOND
     1    1    2 2
     2    1    3 1
     3    1   11 1
     4    2    5 1
     5    2   14 1
     6    3    4 1
     7    4    5 2
     8    4    9 1
     9    5    6 1
    10    6    7 2
    11    7    8 1
    12    8    9 2
    13    8   10 1
    14   11   12 2
    15   11   13 1
    16   14   15 1
    17   15   16 1
    18   15   19 1
    19   16   17 2
    20   16   18 1
    21    6   20 1
    22    7   21 1
    23    9   22 1
    24   15   23 1
@<TRIPOS>PROPERTY_DATA
  Total_Score	| 10.1542
  Crash		| -0.5857
  Polar		| 8.2085
  FragIndex	| 1
  FragRMSD	| 0.835

