@<TRIPOS>MOLECULE
BindingDB_29223
 32 33 0 0 0
SMALL
NO_CHARGES


@<TRIPOS>ATOM
1    C        -2.0101   -7.2435  -16.0566  C     
2    C        -2.1727   -5.9675  -15.4965  C     
3    C        -3.3831   -5.5978  -14.9140  C     
4    C        -4.4460   -6.5117  -14.8722  C     
5    C        -4.3005   -7.8389  -15.3908  C     
6    C        -3.0990   -8.1627  -16.1131  C     
7    C        -3.0743   -9.3935  -16.8401  C     
8    N        -5.3027   -8.8245  -15.2903  N     
9    C        -5.2693   -9.9053  -16.0904  C     
10   C        -4.1691  -10.1862  -16.8441  C     
11   O        -6.2245  -10.6664  -16.2024  O     
12   C        -1.9514   -9.8095  -17.6944  C     
13   O        -5.6113   -6.0371  -14.3261  O     
14   C        -6.5437   -5.5254  -15.3166  C     
15   O        -0.7584   -7.5408  -16.5287  O     
16   C        -0.0223   -8.3735  -15.6056  C     
17   C        -6.3396   -8.7523  -14.2826  C     
18   H        -1.3934   -5.3066  -15.5203  H     
19   H        -3.4984   -4.6547  -14.5283  H     
20   H        -4.1918  -11.0226  -17.3987  H     
21   H        -1.7098   -9.0185  -18.4052  H     
22   H        -2.1297  -10.7211  -18.2704  H     
23   H        -1.0807  -10.0188  -17.0751  H     
24   H        -6.1414   -4.6380  -15.8292  H     
25   H        -7.4608   -5.2417  -14.8001  H     
26   H        -6.7877   -6.2999  -16.0657  H     
27   H         0.2161   -7.8389  -14.6873  H     
28   H         0.9058   -8.6729  -16.0854  H     
29   H        -0.5676   -9.2957  -15.3464  H     
30   H        -5.9197   -8.3678  -13.3496  H     
31   H        -6.7758   -9.7290  -14.0329  H     
32   H        -7.1534   -8.1073  -14.6229  H     
@<TRIPOS>BOND
     1    1    2 1
     2    1    6 2
     3    1   15 1
     4    2    3 2
     5    3    4 1
     6    4    5 2
     7    4   13 1
     8    5    6 1
     9    5    8 1
    10    6    7 1
    11    7   10 2
    12    7   12 1
    13    8    9 1
    14    8   17 1
    15    9   10 1
    16    9   11 2
    17   13   14 1
    18   15   16 1
    19    2   18 1
    20    3   19 1
    21   10   20 1
    22   12   21 1
    23   12   22 1
    24   12   23 1
    25   14   24 1
    26   14   25 1
    27   14   26 1
    28   16   27 1
    29   16   28 1
    30   16   29 1
    31   17   30 1
    32   17   31 1
    33   17   32 1
@<TRIPOS>PROPERTY_DATA
  Total_Score	| 2.3868
  Crash		| -1.5761
  Polar		| 0.0026
  FragIndex	| 1
  FragRMSD	| 0.325

