@<TRIPOS>MOLECULE
BindingDB_29212
 24 26 0 0 0
SMALL
NO_CHARGES


@<TRIPOS>ATOM
1    C        -1.7781   -7.1086  -16.3323  C     
2    C        -1.8367   -5.8520  -15.6969  C     
3    C        -3.0101   -5.4839  -15.0188  C     
4    C        -4.1009   -6.3370  -14.9706  C     
5    C        -4.0567   -7.5945  -15.5976  C     
6    C        -2.8826   -8.0065  -16.2979  C     
7    C        -2.8987   -9.2922  -16.9031  C     
8    N        -5.1334   -8.4327  -15.5416  N     
9    C        -5.1193   -9.6237  -16.1279  C     
10   C        -4.0159  -10.0584  -16.8043  C     
11   O        -6.1210  -10.3206  -16.0505  O     
12   O        -3.2400   -4.3421  -14.3442  O     
13   C        -4.6514   -4.4487  -14.0804  C     
14   O        -5.1203   -5.7955  -14.2748  O     
15   C        -1.7384   -9.8050  -17.6334  C     
16   H        -0.9132   -7.3592  -16.8141  H     
17   H        -1.0375   -5.2150  -15.7251  H     
18   H        -5.9291   -8.1500  -15.0626  H     
19   H        -4.0471  -10.9570  -17.2314  H     
20   H        -4.8557   -4.1362  -13.0550  H     
21   H        -5.1934   -3.7817  -14.7573  H     
22   H        -1.5143   -9.1485  -18.4773  H     
23   H        -1.8839  -10.8130  -18.0310  H     
24   H        -0.8718   -9.8410  -16.9703  H     
@<TRIPOS>BOND
     1    1    2 1
     2    1    6 2
     3    2    3 2
     4    3    4 1
     5    3   12 1
     6    4    5 2
     7    4   14 1
     8    5    6 1
     9    5    8 1
    10    6    7 1
    11    7   10 2
    12    7   15 1
    13    8    9 1
    14    9   10 1
    15    9   11 2
    16   12   13 1
    17   13   14 1
    18    1   16 1
    19    2   17 1
    20    8   18 1
    21   10   19 1
    22   13   20 1
    23   13   21 1
    24   15   22 1
    25   15   23 1
    26   15   24 1
@<TRIPOS>PROPERTY_DATA
  Total_Score	| 0.8891
  Crash		| -0.2918
  Polar		| 0.0371
  FragIndex	| 1
  FragRMSD	| 0.287

