@<TRIPOS>MOLECULE
BindingDB_29219
 32 33 0 0 0
SMALL
NO_CHARGES


@<TRIPOS>ATOM
1    C        -1.8458   -7.2259  -16.3231  C     
2    C        -1.9424   -5.9577  -15.7326  C     
3    C        -3.1409   -5.5492  -15.1234  C     
4    C        -4.2169   -6.4614  -15.0304  C     
5    C        -4.0945   -7.8001  -15.5198  C     
6    C        -2.9185   -8.1508  -16.2587  C     
7    C        -2.8855   -9.3996  -16.9300  C     
8    N        -5.0921   -8.7837  -15.3681  N     
9    C        -5.0935   -9.8533  -16.1865  C     
10   C        -3.9913  -10.1776  -16.9191  C     
11   O        -6.0534  -10.6143  -16.2574  O     
12   C        -1.7107   -9.8531  -17.6847  C     
13   O        -5.3679   -6.0019  -14.4384  O     
14   C        -6.4127   -5.6496  -15.3644  C     
15   O        -3.2423   -4.3087  -14.5445  O     
16   C        -3.3783   -3.2102  -15.4635  C     
17   C        -6.0591   -8.7400  -14.2839  C     
18   H        -0.9761   -7.4507  -16.8062  H     
19   H        -1.1477   -5.3171  -15.7804  H     
20   H        -4.0044  -11.0302  -17.4395  H     
21   H        -1.4817   -9.1352  -18.4756  H     
22   H        -1.8427  -10.8293  -18.1622  H     
23   H        -0.8501   -9.9347  -17.0156  H     
24   H        -6.2407   -4.6644  -15.7985  H     
25   H        -7.3519   -5.6029  -14.8036  H     
26   H        -6.5335   -6.3804  -16.1736  H     
27   H        -2.4668   -3.0638  -16.0435  H     
28   H        -3.5569   -2.3013  -14.8876  H     
29   H        -4.2184   -3.3548  -16.1465  H     
30   H        -5.6323   -8.2753  -13.3934  H     
31   H        -6.3849   -9.7349  -13.9653  H     
32   H        -6.9437   -8.1832  -14.5985  H     
@<TRIPOS>BOND
     1    1    2 1
     2    1    6 2
     3    2    3 2
     4    3    4 1
     5    3   15 1
     6    4    5 2
     7    4   13 1
     8    5    6 1
     9    5    8 1
    10    6    7 1
    11    7   10 2
    12    7   12 1
    13    8    9 1
    14    8   17 1
    15    9   10 1
    16    9   11 2
    17   13   14 1
    18   15   16 1
    19    1   18 1
    20    2   19 1
    21   10   20 1
    22   12   21 1
    23   12   22 1
    24   12   23 1
    25   14   24 1
    26   14   25 1
    27   14   26 1
    28   16   27 1
    29   16   28 1
    30   16   29 1
    31   17   30 1
    32   17   31 1
    33   17   32 1
@<TRIPOS>PROPERTY_DATA
  Total_Score	| 2.6169
  Crash		| -0.4696
  Polar		| 0.0054
  FragIndex	| 1
  FragRMSD	| 0.158

