@<TRIPOS>MOLECULE
BindingDB_29229
 40 41 0 0 0
SMALL
NO_CHARGES


@<TRIPOS>ATOM
1    C        -1.8674   -7.2158  -16.1499  C     
2    C        -2.0275   -5.8786  -15.7131  C     
3    C        -3.2654   -5.4528  -15.1793  C     
4    C        -4.3123   -6.3956  -15.0463  C     
5    C        -4.1580   -7.7494  -15.4735  C     
6    C        -2.9682   -8.1125  -16.1871  C     
7    C        -2.9534   -9.3397  -16.9132  C     
8    N        -5.1371   -8.7427  -15.3047  N     
9    C        -5.1487   -9.7893  -16.1429  C     
10   C        -4.0687  -10.1051  -16.8973  C     
11   O        -6.1095  -10.5525  -16.1895  O     
12   C        -1.8528   -9.7559  -17.7980  C     
13   O        -5.4815   -5.9385  -14.4728  O     
14   C        -6.4923   -5.5420  -15.4080  C     
15   O        -0.9853   -4.9759  -15.7286  O     
16   C        -0.5808   -4.5869  -17.0683  C     
17   O        -0.6079   -7.6005  -16.5076  O     
18   C         0.0253   -8.4114  -15.5245  C     
19   O        -3.4293   -4.1887  -14.6433  O     
20   C        -3.5045   -3.1024  -15.5831  C     
21   C        -6.0714   -8.7345  -14.1968  C     
22   H        -4.1059  -10.9326  -17.4432  H     
23   H        -1.6020   -8.9533  -18.4928  H     
24   H        -2.0820  -10.6348  -18.4039  H     
25   H        -0.9727  -10.0121  -17.2132  H     
26   H        -6.1765   -4.6740  -15.9777  H     
27   H        -7.3903   -5.2726  -14.8517  H     
28   H        -6.7459   -6.3516  -16.0891  H     
29   H        -0.0903   -5.4202  -17.5935  H     
30   H         0.1476   -3.7734  -16.9744  H     
31   H        -1.4328   -4.2366  -17.6870  H     
32   H         0.3753   -7.8133  -14.6849  H     
33   H         0.8839   -8.8631  -16.0150  H     
34   H        -0.6056   -9.2203  -15.1538  H     
35   H        -2.5543   -2.9532  -16.0886  H     
36   H        -3.7235   -2.1935  -15.0241  H     
37   H        -4.2867   -3.2418  -16.3274  H     
38   H        -5.7629   -8.0793  -13.3785  H     
39   H        -6.1561   -9.7247  -13.7497  H     
40   H        -7.0639   -8.4307  -14.5394  H     
@<TRIPOS>BOND
     1    1    2 1
     2    1    6 2
     3    1   17 1
     4    2    3 2
     5    2   15 1
     6    3    4 1
     7    3   19 1
     8    4    5 2
     9    4   13 1
    10    5    6 1
    11    5    8 1
    12    6    7 1
    13    7   10 2
    14    7   12 1
    15    8    9 1
    16    8   21 1
    17    9   10 1
    18    9   11 2
    19   13   14 1
    20   15   16 1
    21   17   18 1
    22   19   20 1
    23   10   22 1
    24   12   23 1
    25   12   24 1
    26   12   25 1
    27   14   26 1
    28   14   27 1
    29   14   28 1
    30   16   29 1
    31   16   30 1
    32   16   31 1
    33   18   32 1
    34   18   33 1
    35   18   34 1
    36   20   35 1
    37   20   36 1
    38   20   37 1
    39   21   38 1
    40   21   39 1
    41   21   40 1
@<TRIPOS>PROPERTY_DATA
  Total_Score	| 3.5711
  Crash		| -1.5225
  Polar		| 0.0065
  FragIndex	| 1
  FragRMSD	| 0.228

