@<TRIPOS>MOLECULE
BindingDB_29226
 33 34 0 0 0
SMALL
NO_CHARGES


@<TRIPOS>ATOM
1    C        -1.8866   -7.2000  -16.5971  C     
2    C        -2.0066   -5.8075  -16.4010  C     
3    C        -3.2536   -5.2834  -15.9999  C     
4    C        -4.3478   -6.1317  -15.7563  C     
5    C        -4.2210   -7.5129  -16.0064  C     
6    C        -3.0052   -8.0724  -16.4933  C     
7    C        -3.0195   -9.4650  -16.8117  C     
8    N        -5.2772   -8.3374  -15.7463  N     
9    C        -5.2026   -9.6534  -15.8957  C     
10   C        -4.0984  -10.2146  -16.4699  C     
11   O        -6.1480  -10.3487  -15.5483  O     
12   C        -1.9645  -10.0912  -17.6126  C     
13   O        -5.5495   -5.5910  -15.3770  O     
14   C        -5.7712   -5.5885  -13.9575  C     
15   O        -0.8810   -5.0575  -16.6799  O     
16   C        -0.9741   -3.7885  -17.3513  C     
17   O        -0.6387   -7.6815  -16.8790  O     
18   C        -0.0292   -8.3234  -15.7369  C     
19   H        -3.3767   -4.2795  -15.8770  H     
20   H        -6.0812   -7.9594  -15.3703  H     
21   H        -4.1408  -11.1834  -16.7050  H     
22   H        -1.7392   -9.4787  -18.4866  H     
23   H        -2.2398  -11.0867  -17.9788  H     
24   H        -1.0554  -10.2019  -17.0166  H     
25   H        -5.7336   -6.6004  -13.5510  H     
26   H        -6.7621   -5.1753  -13.7530  H     
27   H        -5.0347   -4.9632  -13.4520  H     
28   H        -1.3434   -3.9105  -18.3657  H     
29   H         0.0239   -3.3519  -17.4074  H     
30   H        -1.6156   -3.0930  -16.8060  H     
31   H         0.1885   -7.6021  -14.9404  H     
32   H         0.9047   -8.7697  -16.0742  H     
33   H        -0.6572   -9.1310  -15.3413  H     
@<TRIPOS>BOND
     1    1    2 1
     2    1    6 2
     3    1   17 1
     4    2    3 2
     5    2   15 1
     6    3    4 1
     7    4    5 2
     8    4   13 1
     9    5    6 1
    10    5    8 1
    11    6    7 1
    12    7   10 2
    13    7   12 1
    14    8    9 1
    15    9   10 1
    16    9   11 2
    17   13   14 1
    18   15   16 1
    19   17   18 1
    20    3   19 1
    21    8   20 1
    22   10   21 1
    23   12   22 1
    24   12   23 1
    25   12   24 1
    26   14   25 1
    27   14   26 1
    28   14   27 1
    29   16   28 1
    30   16   29 1
    31   16   30 1
    32   18   31 1
    33   18   32 1
    34   18   33 1
@<TRIPOS>PROPERTY_DATA
  Total_Score	| 3.1893
  Crash		| -1.3275
  Polar		| 0.9006
  FragIndex	| 1
  FragRMSD	| 0.787

