@<TRIPOS>MOLECULE
BindingDB_29221
 32 33 0 0 0
SMALL
NO_CHARGES


@<TRIPOS>ATOM
1    C        -2.0468   -7.0438  -16.9253  C     
2    C        -2.1654   -5.6581  -16.7431  C     
3    C        -3.3484   -5.1444  -16.2004  C     
4    C        -4.3752   -5.9993  -15.7454  C     
5    C        -4.2314   -7.4197  -15.8466  C     
6    C        -3.0664   -7.9373  -16.5085  C     
7    C        -2.9944   -9.3252  -16.7863  C     
8    N        -5.1857   -8.3461  -15.3706  N     
9    C        -5.0961   -9.6384  -15.7362  C     
10   C        -4.0310  -10.1150  -16.4347  C     
11   O        -5.9667  -10.4510  -15.4531  O     
12   C        -1.8515   -9.9299  -17.4835  C     
13   O        -5.5771   -5.4285  -15.3983  O     
14   C        -5.6255   -4.6391  -14.1946  C     
15   O        -1.2266   -4.7885  -17.2319  O     
16   C         0.0692   -4.8982  -16.6233  C     
17   C        -6.1969   -7.9693  -14.3926  C     
18   H        -1.2084   -7.3814  -17.3987  H     
19   H        -3.4710   -4.1296  -16.1728  H     
20   H        -4.0053  -11.0857  -16.6554  H     
21   H        -1.7196   -9.4604  -18.4593  H     
22   H        -1.9577  -11.0030  -17.6591  H     
23   H        -0.9434   -9.7870  -16.8946  H     
24   H        -5.1271   -5.1356  -13.3597  H     
25   H        -6.6708   -4.4881  -13.9273  H     
26   H        -5.1732   -3.6597  -14.3555  H     
27   H         0.0184   -4.7646  -15.5400  H     
28   H         0.7087   -4.1144  -17.0337  H     
29   H         0.5280   -5.8629  -16.8517  H     
30   H        -5.7404   -7.3805  -13.5954  H     
31   H        -6.6850   -8.8079  -13.8892  H     
32   H        -6.9865   -7.3918  -14.8763  H     
@<TRIPOS>BOND
     1    1    2 1
     2    1    6 2
     3    2    3 2
     4    2   15 1
     5    3    4 1
     6    4    5 2
     7    4   13 1
     8    5    6 1
     9    5    8 1
    10    6    7 1
    11    7   10 2
    12    7   12 1
    13    8    9 1
    14    8   17 1
    15    9   10 1
    16    9   11 2
    17   13   14 1
    18   15   16 1
    19    1   18 1
    20    3   19 1
    21   10   20 1
    22   12   21 1
    23   12   22 1
    24   12   23 1
    25   14   24 1
    26   14   25 1
    27   14   26 1
    28   16   27 1
    29   16   28 1
    30   16   29 1
    31   17   30 1
    32   17   31 1
    33   17   32 1
@<TRIPOS>PROPERTY_DATA
  Total_Score	| 3.0512
  Crash		| -0.4555
  Polar		| 0.5979
  FragIndex	| 1
  FragRMSD	| 0.943

