@<TRIPOS>MOLECULE
BindingDB_29218
 29 30 0 0 0
SMALL
NO_CHARGES


@<TRIPOS>ATOM
1    C        -1.8437   -7.0816  -16.5843  C     
2    C        -1.9127   -5.7596  -16.1102  C     
3    C        -3.0456   -5.2917  -15.3992  C     
4    C        -4.1200   -6.1842  -15.1719  C     
5    C        -4.0467   -7.5131  -15.6456  C     
6    C        -2.9036   -7.9933  -16.3527  C     
7    C        -2.9087   -9.3476  -16.7871  C     
8    N        -5.0765   -8.3707  -15.3867  N     
9    C        -5.0475   -9.6353  -15.7777  C     
10   C        -3.9757  -10.1265  -16.4739  C     
11   O        -6.0082  -10.3370  -15.4913  O     
12   C        -1.7901   -9.9138  -17.5402  C     
13   O        -5.2093   -5.7642  -14.4533  O     
14   C        -6.3373   -5.3687  -15.2653  C     
15   O        -3.1787   -4.0372  -14.8406  O     
16   C        -3.4522   -2.8770  -15.6513  C     
17   H        -0.9958   -7.3691  -17.0878  H     
18   H        -1.1132   -5.1377  -16.2929  H     
19   H        -5.8479   -8.0520  -14.8920  H     
20   H        -4.0046  -11.0731  -16.7645  H     
21   H        -1.6582   -9.3529  -18.4655  H     
22   H        -1.9311  -10.9567  -17.8028  H     
23   H        -0.8824   -9.8398  -16.9436  H     
24   H        -6.0921   -4.4821  -15.8631  H     
25   H        -7.1551   -5.1221  -14.5895  H     
26   H        -6.6561   -6.1872  -15.9236  H     
27   H        -2.5580   -2.6185  -16.2425  H     
28   H        -3.6827   -2.0494  -14.9886  H     
29   H        -4.3054   -3.0489  -16.3230  H     
@<TRIPOS>BOND
     1    1    2 1
     2    1    6 2
     3    2    3 2
     4    3    4 1
     5    3   15 1
     6    4    5 2
     7    4   13 1
     8    5    6 1
     9    5    8 1
    10    6    7 1
    11    7   10 2
    12    7   12 1
    13    8    9 1
    14    9   10 1
    15    9   11 2
    16   13   14 1
    17   15   16 1
    18    1   17 1
    19    2   18 1
    20    8   19 1
    21   10   20 1
    22   12   21 1
    23   12   22 1
    24   12   23 1
    25   14   24 1
    26   14   25 1
    27   14   26 1
    28   16   27 1
    29   16   28 1
    30   16   29 1
@<TRIPOS>PROPERTY_DATA
  Total_Score	| 2.1101
  Crash		| -0.2788
  Polar		| 0.5898
  FragIndex	| 1
  FragRMSD	| 0.413

