@<TRIPOS>MOLECULE
BindingDB_29224
 33 34 0 0 0
SMALL
NO_CHARGES


@<TRIPOS>ATOM
1    C        -2.0778   -6.9427  -17.0321  C     
2    C        -2.2574   -5.5652  -16.7722  C     
3    C        -3.4414   -5.1169  -16.1400  C     
4    C        -4.4438   -6.0467  -15.7904  C     
5    C        -4.2414   -7.4219  -16.0466  C     
6    C        -3.0531   -7.9043  -16.6666  C     
7    C        -2.9348   -9.3069  -16.8804  C     
8    N        -5.2177   -8.3173  -15.7285  N     
9    C        -5.0777   -9.6201  -15.9195  C     
10   C        -3.9442  -10.1216  -16.4877  C     
11   O        -5.9859  -10.3558  -15.5527  O     
12   C        -1.7530   -9.8965  -17.5182  C     
13   O        -5.6454   -5.6038  -15.2979  O     
14   C        -5.7446   -5.5955  -13.8635  C     
15   O        -3.6868   -3.7827  -15.9602  O     
16   O        -1.3195   -4.6552  -17.1818  O     
17   C        -0.0015   -4.8155  -16.6277  C     
18   C        -2.9878   -3.1585  -14.8700  C     
19   H        -1.2259   -7.2352  -17.5205  H     
20   H        -6.0401   -7.9967  -15.3281  H     
21   H        -3.8781  -11.1074  -16.6218  H     
22   H        -1.6270   -9.4886  -18.5241  H     
23   H        -1.8135  -10.9867  -17.6178  H     
24   H        -0.8591   -9.6744  -16.9295  H     
25   H        -5.6128   -6.5980  -13.4458  H     
26   H        -6.7403   -5.2379  -13.5856  H     
27   H        -5.0037   -4.9185  -13.4278  H     
28   H        -0.0224   -4.8040  -15.5367  H     
29   H         0.6137   -3.9753  -16.9628  H     
30   H         0.4580   -5.7438  -16.9738  H     
31   H        -3.1609   -3.6789  -13.9222  H     
32   H        -3.3608   -2.1335  -14.7725  H     
33   H        -1.9142   -3.1170  -15.0729  H     
@<TRIPOS>BOND
     1    1    2 1
     2    1    6 2
     3    2    3 2
     4    2   16 1
     5    3    4 1
     6    3   15 1
     7    4    5 2
     8    4   13 1
     9    5    6 1
    10    5    8 1
    11    6    7 1
    12    7   10 2
    13    7   12 1
    14    8    9 1
    15    9   10 1
    16    9   11 2
    17   13   14 1
    18   15   18 1
    19   16   17 1
    20    1   19 1
    21    8   20 1
    22   10   21 1
    23   12   22 1
    24   12   23 1
    25   12   24 1
    26   14   25 1
    27   14   26 1
    28   14   27 1
    29   17   28 1
    30   17   29 1
    31   17   30 1
    32   18   31 1
    33   18   32 1
    34   18   33 1
@<TRIPOS>PROPERTY_DATA
  Total_Score	| 3.0608
  Crash		| -0.4480
  Polar		| 0.8632
  FragIndex	| 1
  FragRMSD	| 0.985

