@<TRIPOS>MOLECULE
BindingDB_29220
 29 30 0 0 0
SMALL
NO_CHARGES


@<TRIPOS>ATOM
1    C        -1.9269   -7.0052  -16.9102  C     
2    C        -1.9972   -5.6435  -16.5490  C     
3    C        -3.0692   -5.1864  -15.7620  C     
4    C        -4.0841   -6.0697  -15.3508  C     
5    C        -4.0014   -7.4331  -15.7075  C     
6    C        -2.9186   -7.9296  -16.4943  C     
7    C        -2.9171   -9.3126  -16.8228  C     
8    N        -4.9809   -8.2969  -15.3135  N     
9    C        -4.9647   -9.5804  -15.6432  C     
10   C        -3.9490  -10.0899  -16.3989  C     
11   O        -5.8846  -10.2816  -15.2459  O     
12   C        -1.8209   -9.9198  -17.5803  C     
13   O        -5.1082   -5.6007  -14.5646  O     
14   C        -6.2477   -5.1425  -15.3140  C     
15   O        -1.1005   -4.7323  -17.0428  O     
16   C         0.2213   -4.8188  -16.4883  C     
17   H        -1.1483   -7.2987  -17.5056  H     
18   H        -3.1285   -4.1975  -15.5160  H     
19   H        -5.7156   -7.9612  -14.7727  H     
20   H        -3.9697  -11.0588  -16.6168  H     
21   H        -1.7103   -9.4333  -18.5510  H     
22   H        -1.9599  -10.9887  -17.7680  H     
23   H        -0.8872   -9.8061  -17.0246  H     
24   H        -5.9826   -4.3182  -15.9852  H     
25   H        -6.9989   -4.7762  -14.6065  H     
26   H        -6.6962   -5.9567  -15.8935  H     
27   H         0.2130   -4.6363  -15.4070  H     
28   H         0.8357   -4.0455  -16.9608  H     
29   H         0.6787   -5.7905  -16.6968  H     
@<TRIPOS>BOND
     1    1    2 1
     2    1    6 2
     3    2    3 2
     4    2   15 1
     5    3    4 1
     6    4    5 2
     7    4   13 1
     8    5    6 1
     9    5    8 1
    10    6    7 1
    11    7   10 2
    12    7   12 1
    13    8    9 1
    14    9   10 1
    15    9   11 2
    16   13   14 1
    17   15   16 1
    18    1   17 1
    19    3   18 1
    20    8   19 1
    21   10   20 1
    22   12   21 1
    23   12   22 1
    24   12   23 1
    25   14   24 1
    26   14   25 1
    27   14   26 1
    28   16   27 1
    29   16   28 1
    30   16   29 1
@<TRIPOS>PROPERTY_DATA
  Total_Score	| 3.2575
  Crash		| -0.4348
  Polar		| 0.8602
  FragIndex	| 1
  FragRMSD	| 0.693

