@<TRIPOS>MOLECULE
BindingDB_29222
 29 30 0 0 0
SMALL
NO_CHARGES


@<TRIPOS>ATOM
1    C        -2.2736   -6.7954  -16.7826  C     
2    C        -2.5995   -5.4322  -16.5838  C     
3    C        -3.8297   -5.0599  -16.0314  C     
4    C        -4.7604   -6.0459  -15.6816  C     
5    C        -4.4666   -7.4034  -15.9412  C     
6    C        -3.2194   -7.8227  -16.4995  C     
7    C        -3.0562   -9.2267  -16.7485  C     
8    N        -5.4111   -8.3336  -15.6345  N     
9    C        -5.2230   -9.6210  -15.8553  C     
10   C        -4.0816  -10.0672  -16.4466  C     
11   O        -6.1013  -10.3801  -15.4812  O     
12   C        -1.8499   -9.8132  -17.3546  C     
13   O        -5.9828   -5.6588  -15.1990  O     
14   C        -6.0406   -5.6282  -13.7639  C     
15   O        -1.0088   -7.0188  -17.2444  O     
16   C        -0.0009   -6.8111  -16.2361  C     
17   H        -1.9259   -4.7043  -16.8244  H     
18   H        -4.0491   -4.0710  -15.8831  H     
19   H        -6.2330   -8.0458  -15.2040  H     
20   H        -4.0163  -11.0425  -16.6401  H     
21   H        -1.5885   -9.2728  -18.2650  H     
22   H        -1.9826  -10.8562  -17.6464  H     
23   H        -1.0037   -9.7920  -16.6611  H     
24   H        -5.8438   -6.6146  -13.3364  H     
25   H        -7.0494   -5.3273  -13.4714  H     
26   H        -5.3321   -4.9048  -13.3510  H     
27   H        -0.3230   -6.2742  -15.3302  H     
28   H         0.8308   -6.2615  -16.6763  H     
29   H         0.3458   -7.7859  -15.9240  H     
@<TRIPOS>BOND
     1    1    2 1
     2    1    6 2
     3    1   15 1
     4    2    3 2
     5    3    4 1
     6    4    5 2
     7    4   13 1
     8    5    6 1
     9    5    8 1
    10    6    7 1
    11    7   10 2
    12    7   12 1
    13    8    9 1
    14    9   10 1
    15    9   11 2
    16   13   14 1
    17   15   16 1
    18    2   17 1
    19    3   18 1
    20    8   19 1
    21   10   20 1
    22   12   21 1
    23   12   22 1
    24   12   23 1
    25   14   24 1
    26   14   25 1
    27   14   26 1
    28   16   27 1
    29   16   28 1
    30   16   29 1
@<TRIPOS>PROPERTY_DATA
  Total_Score	| 2.2642
  Crash		| -0.8869
  Polar		| 0.9056
  FragIndex	| 1
  FragRMSD	| 0.917

