@<TRIPOS>MOLECULE
BindingDB_29213
 27 29 0 0 0
SMALL
NO_CHARGES


@<TRIPOS>ATOM
1    C        -2.1300   -7.0003  -16.6141  C     
2    C        -2.2181   -5.6525  -16.2346  C     
3    C        -3.3675   -5.2150  -15.5722  C     
4    C        -4.4088   -6.0880  -15.2920  C     
5    C        -4.3585   -7.4633  -15.6528  C     
6    C        -3.1807   -7.9214  -16.3381  C     
7    C        -3.1084   -9.2825  -16.7212  C     
8    N        -5.3853   -8.3836  -15.3668  N     
9    C        -5.2377   -9.6708  -15.7363  C     
10   C        -4.1349  -10.1049  -16.4125  C     
11   O        -6.0930  -10.5176  -15.5007  O     
12   O        -3.6138   -3.9560  -15.1609  O     
13   C        -4.8082   -4.1462  -14.3854  C     
14   O        -5.4067   -5.4137  -14.6797  O     
15   C        -1.9538   -9.8313  -17.4426  C     
16   C        -6.5874   -7.9726  -14.6549  C     
17   H        -1.2815   -7.2906  -17.1025  H     
18   H        -1.4595   -4.9987  -16.4414  H     
19   H        -4.0927  -11.0611  -16.6847  H     
20   H        -4.5561   -4.1059  -13.3208  H     
21   H        -5.5175   -3.3453  -14.6013  H     
22   H        -1.8127   -9.2930  -18.3813  H     
23   H        -2.0541  -10.8914  -17.6913  H     
24   H        -1.0546   -9.7268  -16.8321  H     
25   H        -6.3174   -7.5735  -13.6752  H     
26   H        -7.3123   -8.7667  -14.4707  H     
27   H        -7.1118   -7.2071  -15.2303  H     
@<TRIPOS>BOND
     1    1    2 1
     2    1    6 2
     3    2    3 2
     4    3    4 1
     5    3   12 1
     6    4    5 2
     7    4   14 1
     8    5    6 1
     9    5    8 1
    10    6    7 1
    11    7   10 2
    12    7   15 1
    13    8    9 1
    14    8   16 1
    15    9   10 1
    16    9   11 2
    17   12   13 1
    18   13   14 1
    19    1   17 1
    20    2   18 1
    21   10   19 1
    22   13   20 1
    23   13   21 1
    24   15   22 1
    25   15   23 1
    26   15   24 1
    27   16   25 1
    28   16   26 1
    29   16   27 1
@<TRIPOS>PROPERTY_DATA
  Total_Score	| 1.3911
  Crash		| -0.2762
  Polar		| 0.5478
  FragIndex	| 1
  FragRMSD	| 0.888

