@<TRIPOS>MOLECULE
BindingDB_29227
 36 37 0 0 0
SMALL
NO_CHARGES


@<TRIPOS>ATOM
1    C        -1.9892   -7.0086  -16.3131  C     
2    C        -2.1870   -5.6338  -16.0620  C     
3    C        -3.4564   -5.1698  -15.7166  C     
4    C        -4.5452   -6.0537  -15.6093  C     
5    C        -4.4054   -7.4253  -15.9815  C     
6    C        -3.1016   -7.9020  -16.3635  C     
7    C        -2.9868   -9.2661  -16.7516  C     
8    N        -5.4698   -8.3543  -15.9469  N     
9    C        -5.1970   -9.6713  -16.0106  C     
10   C        -4.0005  -10.1144  -16.4735  C     
11   O        -6.0346  -10.5265  -15.7418  O     
12   C        -1.8557   -9.7908  -17.5258  C     
13   O        -5.7206   -5.4990  -15.1739  O     
14   C        -5.8763   -5.4812  -13.7452  C     
15   O        -1.1393   -4.7471  -16.0281  O     
16   C        -0.6048   -4.4111  -17.3264  C     
17   O        -0.6952   -7.4346  -16.4750  O     
18   C        -0.1452   -8.0604  -15.2953  C     
19   C        -6.8598   -7.9354  -15.8841  C     
20   H        -3.5780   -4.1818  -15.4855  H     
21   H        -3.9118  -11.0808  -16.7015  H     
22   H        -1.6104   -9.0952  -18.3294  H     
23   H        -2.0405  -10.7682  -17.9813  H     
24   H        -0.9871   -9.9081  -16.8826  H     
25   H        -5.7775   -6.4824  -13.3164  H     
26   H        -6.8742   -5.1156  -13.5158  H     
27   H        -5.1540   -4.8114  -13.2760  H     
28   H        -0.1462   -5.2792  -17.7921  H     
29   H         0.1731   -3.6588  -17.2009  H     
30   H        -1.3737   -4.0152  -17.9894  H     
31   H         0.0411   -7.3174  -14.5063  H     
32   H         0.8045   -8.5046  -15.5762  H     
33   H        -0.7906   -8.8488  -14.8954  H     
34   H        -7.1045   -7.6263  -14.8677  H     
35   H        -7.5714   -8.7139  -16.1840  H     
36   H        -7.0282   -7.1082  -16.5784  H     
@<TRIPOS>BOND
     1    1    2 1
     2    1    6 2
     3    1   17 1
     4    2    3 2
     5    2   15 1
     6    3    4 1
     7    4    5 2
     8    4   13 1
     9    5    6 1
    10    5    8 1
    11    6    7 1
    12    7   10 2
    13    7   12 1
    14    8    9 1
    15    8   19 1
    16    9   10 1
    17    9   11 2
    18   13   14 1
    19   15   16 1
    20   17   18 1
    21    3   20 1
    22   10   21 1
    23   12   22 1
    24   12   23 1
    25   12   24 1
    26   14   25 1
    27   14   26 1
    28   14   27 1
    29   16   28 1
    30   16   29 1
    31   16   30 1
    32   18   31 1
    33   18   32 1
    34   18   33 1
    35   19   34 1
    36   19   35 1
    37   19   36 1
@<TRIPOS>PROPERTY_DATA
  Total_Score	| 3.4978
  Crash		| -0.9762
  Polar		| 0.8191
  FragIndex	| 1
  FragRMSD	| 0.871

