@<TRIPOS>MOLECULE
BindingDB_29225
 36 37 0 0 0
SMALL
NO_CHARGES


@<TRIPOS>ATOM
1    C        -1.7702   -7.2679  -16.2327  C     
2    C        -1.8397   -5.9808  -15.6600  C     
3    C        -3.0673   -5.5423  -15.1189  C     
4    C        -4.1708   -6.4193  -15.0683  C     
5    C        -4.0761   -7.7593  -15.5503  C     
6    C        -2.8834   -8.1509  -16.2426  C     
7    C        -2.8741   -9.3929  -16.9334  C     
8    N        -5.0955   -8.7220  -15.3993  N     
9    C        -5.0943   -9.8143  -16.1867  C     
10   C        -3.9891  -10.1550  -16.9162  C     
11   O        -6.0508  -10.5837  -16.2416  O     
12   C        -1.7189   -9.8256  -17.7217  C     
13   O        -5.3367   -5.9204  -14.5536  O     
14   C        -6.2398   -5.4209  -15.5556  C     
15   O        -3.2228   -4.3268  -14.5012  O     
16   O        -0.7350   -5.1648  -15.5389  O     
17   C         0.0555   -4.9449  -16.7241  C     
18   C        -3.1328   -3.1408  -15.3230  C     
19   C        -6.0793   -8.6298  -14.3318  C     
20   H        -0.8827   -7.5566  -16.6430  H     
21   H        -4.0116  -11.0046  -17.4353  H     
22   H        -1.4999   -9.0814  -18.4900  H     
23   H        -1.8735  -10.7809  -18.2225  H     
24   H        -0.8487   -9.9313  -17.0690  H     
25   H        -5.8151   -4.5479  -16.0547  H     
26   H        -7.1632   -5.1100  -15.0621  H     
27   H        -6.4805   -6.1855  -16.2936  H     
28   H         0.6693   -5.8244  -16.9461  H     
29   H         0.7438   -4.1159  -16.5159  H     
30   H        -0.5597   -4.6909  -17.5915  H     
31   H        -2.0813   -2.9067  -15.5198  H     
32   H        -3.5671   -2.3078  -14.7681  H     
33   H        -3.6614   -3.2432  -16.2771  H     
34   H        -5.6530   -8.1627  -13.4421  H     
35   H        -6.4432   -9.6076  -13.9971  H     
36   H        -6.9367   -8.0420  -14.6618  H     
@<TRIPOS>BOND
     1    1    2 1
     2    1    6 2
     3    2    3 2
     4    2   16 1
     5    3    4 1
     6    3   15 1
     7    4    5 2
     8    4   13 1
     9    5    6 1
    10    5    8 1
    11    6    7 1
    12    7   10 2
    13    7   12 1
    14    8    9 1
    15    8   19 1
    16    9   10 1
    17    9   11 2
    18   13   14 1
    19   15   18 1
    20   16   17 1
    21    1   20 1
    22   10   21 1
    23   12   22 1
    24   12   23 1
    25   12   24 1
    26   14   25 1
    27   14   26 1
    28   14   27 1
    29   17   28 1
    30   17   29 1
    31   17   30 1
    32   18   31 1
    33   18   32 1
    34   18   33 1
    35   19   34 1
    36   19   35 1
    37   19   36 1
@<TRIPOS>PROPERTY_DATA
  Total_Score	| 3.2110
  Crash		| -0.7547
  Polar		| 0.0069
  FragIndex	| 1
  FragRMSD	| 0.320

