@<TRIPOS>MOLECULE
BindingDB_29217
 28 29 0 0 0
SMALL
NO_CHARGES


@<TRIPOS>ATOM
1    C        -1.8218   -7.2857  -16.2825  C     
2    C        -1.9088   -6.0343  -15.6592  C     
3    C        -3.0964   -5.6559  -15.0256  C     
4    C        -4.1950   -6.5357  -14.9833  C     
5    C        -4.0917   -7.8567  -15.5182  C     
6    C        -2.9051   -8.2033  -16.2467  C     
7    C        -2.8737   -9.4368  -16.9447  C     
8    N        -5.1090   -8.8251  -15.4137  N     
9    C        -5.0928   -9.8917  -16.2371  C     
10   C        -3.9825  -10.2088  -16.9597  C     
11   O        -6.0537  -10.6492  -16.3374  O     
12   C        -1.6946   -9.8771  -17.6977  C     
13   C        -6.1222   -8.7599  -14.3724  C     
14   O        -5.3440   -6.0368  -14.4268  O     
15   C        -6.2926   -5.5724  -15.4059  C     
16   H        -0.9527   -7.5037  -16.7737  H     
17   H        -1.1194   -5.3849  -15.6971  H     
18   H        -3.1674   -4.7225  -14.6134  H     
19   H        -3.9919  -11.0486  -17.4974  H     
20   H        -1.4698   -9.1538  -18.4839  H     
21   H        -1.8182  -10.8510  -18.1784  H     
22   H        -0.8365   -9.9555  -17.0270  H     
23   H        -5.6973   -8.3764  -13.4428  H     
24   H        -6.5489   -9.7344  -14.1187  H     
25   H        -6.9423   -8.1146  -14.6892  H     
26   H        -5.8973   -4.7277  -15.9754  H     
27   H        -7.1889   -5.2385  -14.8825  H     
28   H        -6.5769   -6.3720  -16.0937  H     
@<TRIPOS>BOND
     1    1    2 1
     2    1    6 2
     3    2    3 2
     4    3    4 1
     5    4    5 2
     6    4   14 1
     7    5    6 1
     8    5    8 1
     9    6    7 1
    10    7   10 2
    11    7   12 1
    12    8    9 1
    13    8   13 1
    14    9   10 1
    15    9   11 2
    16   14   15 1
    17    1   16 1
    18    2   17 1
    19    3   18 1
    20   10   19 1
    21   12   20 1
    22   12   21 1
    23   12   22 1
    24   13   23 1
    25   13   24 1
    26   13   25 1
    27   15   26 1
    28   15   27 1
    29   15   28 1
@<TRIPOS>PROPERTY_DATA
  Total_Score	| 2.3760
  Crash		| -0.4971
  Polar		| 0.0037
  FragIndex	| 1
  FragRMSD	| 0.155

