@<TRIPOS>MOLECULE
BindingDB_29228
 37 38 0 0 0
SMALL
NO_CHARGES


@<TRIPOS>ATOM
1    C        -1.8790   -7.0969  -16.2810  C     
2    C        -1.9821   -5.7568  -15.8288  C     
3    C        -3.1783   -5.2988  -15.2362  C     
4    C        -4.2826   -6.1669  -15.1228  C     
5    C        -4.1812   -7.4909  -15.6017  C     
6    C        -3.0024   -7.9737  -16.2438  C     
7    C        -3.0454   -9.3125  -16.7510  C     
8    N        -5.2140   -8.3567  -15.3740  N     
9    C        -5.1690   -9.6249  -15.7424  C     
10   C        -4.1189  -10.0939  -16.4695  C     
11   O        -6.1098  -10.3422  -15.4375  O     
12   C        -2.0164   -9.8636  -17.6388  C     
13   O        -5.3979   -5.7493  -14.4372  O     
14   C        -6.5062   -5.3654  -15.2791  C     
15   O        -0.9013   -4.9119  -15.8497  O     
16   C        -0.5746   -4.3931  -17.1553  C     
17   O        -0.6537   -7.5388  -16.7061  O     
18   C         0.0278   -8.3903  -15.7639  C     
19   O        -3.2248   -4.0942  -14.5803  O     
20   C        -3.4073   -2.9278  -15.4035  C     
21   H        -5.9843   -8.0478  -14.8707  H     
22   H        -4.1725  -11.0244  -16.8197  H     
23   H        -1.7671   -9.1481  -18.4221  H     
24   H        -2.3175  -10.7847  -18.1393  H     
25   H        -1.1202  -10.0998  -17.0727  H     
26   H        -6.2533   -4.5274  -15.9288  H     
27   H        -7.3341   -5.0564  -14.6393  H     
28   H        -6.8539   -6.2010  -15.8907  H     
29   H        -0.2242   -5.1809  -17.8193  H     
30   H         0.2287   -3.6664  -17.0465  H     
31   H        -1.4246   -3.8982  -17.6274  H     
32   H         0.5819   -7.7931  -15.0362  H     
33   H         0.7426   -8.9876  -16.3235  H     
34   H        -0.6403   -9.0741  -15.2222  H     
35   H        -2.4944   -2.6927  -15.9478  H     
36   H        -3.6292   -2.0882  -14.7472  H     
37   H        -4.2310   -3.0358  -16.1114  H     
@<TRIPOS>BOND
     1    1    2 1
     2    1    6 2
     3    1   17 1
     4    2    3 2
     5    2   15 1
     6    3    4 1
     7    3   19 1
     8    4    5 2
     9    4   13 1
    10    5    6 1
    11    5    8 1
    12    6    7 1
    13    7   10 2
    14    7   12 1
    15    8    9 1
    16    9   10 1
    17    9   11 2
    18   13   14 1
    19   15   16 1
    20   17   18 1
    21   19   20 1
    22    8   21 1
    23   10   22 1
    24   12   23 1
    25   12   24 1
    26   12   25 1
    27   14   26 1
    28   14   27 1
    29   14   28 1
    30   16   29 1
    31   16   30 1
    32   16   31 1
    33   18   32 1
    34   18   33 1
    35   18   34 1
    36   20   35 1
    37   20   36 1
    38   20   37 1
@<TRIPOS>PROPERTY_DATA
  Total_Score	| 3.2320
  Crash		| -1.0839
  Polar		| 0.6909
  FragIndex	| 1
  FragRMSD	| 0.364

