@<TRIPOS>MOLECULE
BindingDB_50355647
 25 26 0 0 0
SMALL
NO_CHARGES


@<TRIPOS>ATOM
1    S        20.9759   30.8832   64.5816  S     
2    C        21.0128   30.8313   62.8618  C     
3    C        20.1918   29.7547   62.4633  C     
4    C        19.6398   29.0386   63.5429  C     
5    C        19.9478   29.5360   64.8129  C     
6    C        21.7656   31.7401   62.0924  C     
7    O        21.7887   31.6915   60.7416  O     
8    O        22.5265   32.6844   62.6908  O     
9    S        19.9331   29.2813   60.7998  S     
10   C        18.1759   28.8346   60.8111  C     
11   C        17.6371   28.7148   59.4241  C     
12   C        17.3718   27.4527   58.8416  C     
13   C        16.8465   27.3506   57.5391  C     
14   C        16.5777   28.5144   56.7929  C     
15   C        16.8417   29.7764   57.3523  C     
16   C        17.3665   29.8729   58.6575  C     
17   H        19.0630   28.1990   63.4215  H     
18   H        19.6336   29.1551   65.7035  H     
19   H        18.0707   27.8872   61.3399  H     
20   H        17.6093   29.5904   61.3632  H     
21   H        17.5608   26.5946   59.3624  H     
22   H        16.6511   26.4297   57.1331  H     
23   H        16.1822   28.4409   55.8513  H     
24   H        16.6436   30.6201   56.8159  H     
25   H        17.5458   30.8021   59.0488  H     
@<TRIPOS>BOND
     1    1    2 1
     2    1    5 1
     3    2    3 2
     4    2    6 1
     5    3    4 1
     6    3    9 1
     7    4    5 2
     8    6    7 2
     9    6    8 1
    10    9   10 1
    11   10   11 1
    12   11   12 2
    13   11   16 1
    14   12   13 1
    15   13   14 2
    16   14   15 1
    17   15   16 2
    18    4   17 1
    19    5   18 1
    20   10   19 1
    21   10   20 1
    22   12   21 1
    23   13   22 1
    24   14   23 1
    25   15   24 1
    26   16   25 1
@<TRIPOS>PROPERTY_DATA
  Total_Score	| 6.1903
  Crash		| -0.7047
  Polar		| 1.6207
  FragIndex	| 1
  FragRMSD	| 0.319

