@<TRIPOS>MOLECULE
BindingDB_50355653
 25 26 0 0 0
SMALL
NO_CHARGES


@<TRIPOS>ATOM
1    S        21.0707   30.7388   64.5693  S     
2    C        21.0168   30.7845   62.8458  C     
3    C        19.9146   29.9954   62.4367  C     
4    C        19.2040   29.4249   63.5179  C     
5    C        19.7000   29.7235   64.7882  C     
6    C        21.9559   31.5155   62.0846  C     
7    O        22.9846   32.1580   62.6860  O     
8    O        21.8924   31.6096   60.7340  O     
9    S        19.5173   29.7537   60.7430  S     
10   C        17.9339   28.8803   60.7356  C     
11   C        17.5059   28.6404   59.3344  C     
12   C        17.4723   27.3308   58.8032  C     
13   C        17.1076   27.1059   57.4629  C     
14   C        16.7813   28.1952   56.6339  C     
15   C        16.8172   29.5022   57.1444  C     
16   C        17.1620   29.7220   58.4903  C     
17   Cl       17.0899   25.5299   56.8439  Cl    
18   H        18.3761   28.8390   63.4048  H     
19   H        19.3093   29.4093   65.6788  H     
20   H        18.0576   27.9351   61.2681  H     
21   H        17.1821   29.4725   61.2605  H     
22   H        17.7279   26.5359   59.3919  H     
23   H        16.5515   28.0483   55.6484  H     
24   H        16.5981   30.2915   56.5341  H     
25   H        17.1753   30.6793   58.8457  H     
@<TRIPOS>BOND
     1    1    2 1
     2    1    5 1
     3    2    3 2
     4    2    6 1
     5    3    4 1
     6    3    9 1
     7    4    5 2
     8    6    7 2
     9    6    8 1
    10    9   10 1
    11   10   11 1
    12   11   12 2
    13   11   16 1
    14   12   13 1
    15   13   14 2
    16   13   17 1
    17   14   15 1
    18   15   16 2
    19    4   18 1
    20    5   19 1
    21   10   20 1
    22   10   21 1
    23   12   22 1
    24   14   23 1
    25   15   24 1
    26   16   25 1
@<TRIPOS>PROPERTY_DATA
  Total_Score	| 6.6208
  Crash		| -0.4888
  Polar		| 1.6324
  FragIndex	| 1
  FragRMSD	| 0.646

