@<TRIPOS>MOLECULE
BindingDB_50355646
 50 52 0 0 0
SMALL
NO_CHARGES


@<TRIPOS>ATOM
1    O        24.4330   34.4318   63.0462  O     
2    S        23.8970   33.4896   61.8781  S     
3    O        23.0783   34.4725   60.9280  O     
4    S        21.0695   30.7586   64.4689  S     
5    C        21.1504   30.7720   62.7440  C     
6    C        20.2833   29.7418   62.3110  C     
7    C        19.6965   28.9892   63.3478  C     
8    C        19.9911   29.4349   64.6331  C     
9    C        21.9470   31.6439   62.0108  C     
10   O        21.8531   31.6771   60.7894  O     
11   N        22.8318   32.4164   62.6241  N     
12   S        19.9804   29.2894   60.6526  S     
13   C        18.1800   29.0893   60.7700  C     
14   C        17.6381   28.7797   59.4244  C     
15   C        17.6052   27.4423   58.9598  C     
16   C        17.1759   27.1370   57.6507  C     
17   C        16.7621   28.1833   56.7957  C     
18   C        16.7667   29.5124   57.2616  C     
19   C        17.1929   29.8089   58.5666  C     
20   Cl       16.2599   27.9014   55.1998  Cl    
21   Cl       17.1956   25.5115   57.1584  Cl    
22   C        25.2869   32.8143   61.0724  C     
23   C        25.8357   31.5954   61.5106  C     
24   C        26.9256   31.0285   60.8309  C     
25   C        27.4913   31.6763   59.7101  C     
26   C        27.0211   32.9580   59.3118  C     
27   C        25.8974   33.4944   59.9905  C     
28   O        28.4945   31.0147   59.0495  O     
29   C        28.0577   30.3952   57.8237  C     
30   C        27.6413   33.6942   58.2598  C     
31   O        27.0153   34.7642   57.7018  O     
32   O        28.8590   33.3277   57.7771  O     
33   C        29.5838   33.9510   56.7065  C     
34   H        19.0962   28.1793   63.1714  H     
35   H        19.6510   29.0342   65.5063  H     
36   H        22.8908   32.3557   63.5884  H     
37   H        17.9139   28.2894   61.4740  H     
38   H        17.7615   30.0204   61.1654  H     
39   H        17.9167   26.6901   59.5771  H     
40   H        16.4817   30.2738   56.6453  H     
41   H        17.2118   30.7820   58.8780  H     
42   H        25.4375   31.1043   62.3150  H     
43   H        27.2896   30.1245   61.1369  H     
44   H        25.5147   34.4008   59.7067  H     
45   H        27.2176   29.7090   57.9802  H     
46   H        28.8936   29.8205   57.4279  H     
47   H        27.7788   31.1456   57.0791  H     
48   H        28.9905   33.9288   55.7884  H     
49   H        30.5112   33.3994   56.5358  H     
50   H        29.8299   34.9879   56.9493  H     
@<TRIPOS>BOND
     1    1    2 2
     2    2    3 2
     3    2   11 1
     4    2   22 1
     5    4    5 1
     6    4    8 1
     7    5    6 2
     8    5    9 1
     9    6    7 1
    10    6   12 1
    11    7    8 2
    12    9   10 2
    13    9   11 am
    14   12   13 1
    15   13   14 1
    16   14   15 2
    17   14   19 1
    18   15   16 1
    19   16   17 2
    20   16   21 1
    21   17   18 1
    22   17   20 1
    23   18   19 2
    24   22   23 2
    25   22   27 1
    26   23   24 1
    27   24   25 2
    28   25   26 1
    29   25   28 1
    30   26   27 2
    31   26   30 1
    32   28   29 1
    33   30   31 2
    34   30   32 1
    35   32   33 1
    36    7   34 1
    37    8   35 1
    38   11   36 1
    39   13   37 1
    40   13   38 1
    41   15   39 1
    42   18   40 1
    43   19   41 1
    44   23   42 1
    45   24   43 1
    46   27   44 1
    47   29   45 1
    48   29   46 1
    49   29   47 1
    50   33   48 1
    51   33   49 1
    52   33   50 1
@<TRIPOS>PROPERTY_DATA
  Total_Score	| 10.5283
  Crash		| -1.8085
  Polar		| 3.0244
  FragIndex	| 1
  FragRMSD	| 0.321

