@<TRIPOS>MOLECULE
BindingDB_50355640
 25 26 0 0 0
SMALL
NO_CHARGES


@<TRIPOS>ATOM
1    S        21.0208   30.8480   64.5635  S     
2    C        20.9972   30.8461   62.8396  C     
3    C        20.1273   29.8087   62.4356  C     
4    C        19.5867   29.0784   63.5169  C     
5    C        19.9522   29.5284   64.7855  C     
6    C        21.7531   31.7637   62.0805  C     
7    O        21.7452   31.7699   60.7300  O     
8    O        22.6212   32.6030   62.6861  O     
9    S        19.8038   29.4325   60.7569  S     
10   C        18.1128   28.7834   60.7774  C     
11   C        17.6049   28.6229   59.3903  C     
12   C        17.2245   29.7517   58.6257  C     
13   C        16.7452   29.6031   57.3097  C     
14   C        16.6512   28.3213   56.7327  C     
15   C        17.0330   27.1915   57.4812  C     
16   C        17.5013   27.3412   58.7994  C     
17   Cl       16.0867   28.1345   55.1474  Cl    
18   H        18.9756   28.2709   63.4031  H     
19   H        19.6630   29.1350   65.6811  H     
20   H        18.1299   27.8196   61.2862  H     
21   H        17.4582   29.4537   61.3369  H     
22   H        17.2877   30.6904   59.0277  H     
23   H        16.4751   30.4309   56.7752  H     
24   H        16.9797   26.2572   57.0692  H     
25   H        17.7775   26.5056   59.3230  H     
@<TRIPOS>BOND
     1    1    2 1
     2    1    5 1
     3    2    3 2
     4    2    6 1
     5    3    4 1
     6    3    9 1
     7    4    5 2
     8    6    7 2
     9    6    8 1
    10    9   10 1
    11   10   11 1
    12   11   12 2
    13   11   16 1
    14   12   13 1
    15   13   14 2
    16   14   15 1
    17   14   17 1
    18   15   16 2
    19    4   18 1
    20    5   19 1
    21   10   20 1
    22   10   21 1
    23   12   22 1
    24   13   23 1
    25   15   24 1
    26   16   25 1
@<TRIPOS>PROPERTY_DATA
  Total_Score	| 7.0166
  Crash		| -0.5293
  Polar		| 1.6160
  FragIndex	| 1
  FragRMSD	| 0.293

