@<TRIPOS>MOLECULE
BindingDB_50355643
 33 34 0 0 0
SMALL
NO_CHARGES


@<TRIPOS>ATOM
1    O        24.6614   34.0699   63.2171  O     
2    S        24.0918   33.0998   62.0898  S     
3    O        23.4490   34.0555   60.9936  O     
4    S        20.9812   30.7039   64.6311  S     
5    C        21.0070   30.7576   62.9064  C     
6    C        19.8915   29.9964   62.4685  C     
7    C        19.1101   29.4696   63.5177  C     
8    C        19.5741   29.7419   64.8058  C     
9    C        21.9704   31.4535   62.1814  C     
10   O        21.9756   31.4216   60.9545  O     
11   N        22.8805   32.1759   62.8206  N     
12   S        19.5207   29.7813   60.7703  S     
13   C        17.9355   28.9045   60.7391  C     
14   C        17.5218   28.6307   59.3368  C     
15   C        17.5069   27.3091   58.8293  C     
16   C        17.1225   27.0428   57.4989  C     
17   C        16.7476   28.1119   56.6518  C     
18   C        16.7537   29.4325   57.1476  C     
19   C        17.1289   29.6873   58.4784  C     
20   Cl       16.2748   27.8671   55.0404  Cl    
21   Cl       17.1283   25.4267   56.9710  Cl    
22   C        25.4624   32.1361   61.4187  C     
23   H        18.2575   28.9287   63.3694  H     
24   H        19.1533   29.4457   65.6866  H     
25   H        22.8447   32.1916   63.7899  H     
26   H        18.0557   27.9713   61.2976  H     
27   H        17.1776   29.5098   61.2500  H     
28   H        17.7779   26.5280   59.4356  H     
29   H        16.4931   30.2155   56.5422  H     
30   H        17.1284   30.6542   58.8157  H     
31   H        26.2336   32.8098   61.0416  H     
32   H        25.1022   31.5110   60.5999  H     
33   H        25.8867   31.5024   62.1984  H     
@<TRIPOS>BOND
     1    1    2 2
     2    2    3 2
     3    2   11 1
     4    2   22 1
     5    4    5 1
     6    4    8 1
     7    5    6 2
     8    5    9 1
     9    6    7 1
    10    6   12 1
    11    7    8 2
    12    9   10 2
    13    9   11 am
    14   12   13 1
    15   13   14 1
    16   14   15 2
    17   14   19 1
    18   15   16 1
    19   16   17 2
    20   16   21 1
    21   17   18 1
    22   17   20 1
    23   18   19 2
    24    7   23 1
    25    8   24 1
    26   11   25 1
    27   13   26 1
    28   13   27 1
    29   15   28 1
    30   18   29 1
    31   19   30 1
    32   22   31 1
    33   22   32 1
    34   22   33 1
@<TRIPOS>PROPERTY_DATA
  Total_Score	| 8.8881
  Crash		| -0.7237
  Polar		| 2.3496
  FragIndex	| 1
  FragRMSD	| 0.280

