@<TRIPOS>MOLECULE
BindingDB_50355638
 40 42 0 0 0
SMALL
NO_CHARGES


@<TRIPOS>ATOM
1    O        24.8178   34.0202   63.1249  O     
2    S        24.1097   33.1635   61.9827  S     
3    O        23.2989   34.1743   61.0585  O     
4    S        21.0669   30.7235   64.5972  S     
5    C        21.0705   30.7732   62.8636  C     
6    C        19.9456   30.0410   62.4171  C     
7    C        19.1496   29.5342   63.4691  C     
8    C        19.6272   29.8071   64.7601  C     
9    C        22.0405   31.4630   62.1377  C     
10   O        21.9770   31.5017   60.9080  O     
11   N        22.9808   32.1727   62.7555  N     
12   S        19.5490   29.8108   60.7199  S     
13   C        18.0148   28.8361   60.7492  C     
14   C        17.5631   28.5795   59.3607  C     
15   C        17.5634   27.2673   58.8289  C     
16   C        17.1325   26.9997   57.5114  C     
17   C        16.6923   28.0644   56.6876  C     
18   C        16.6915   29.3778   57.2023  C     
19   C        17.1169   29.6288   58.5218  C     
20   Cl       16.1976   27.8168   55.0808  Cl    
21   Cl       17.1505   25.3897   56.9781  Cl    
22   C        25.2857   32.2505   61.0894  C     
23   C        26.3647   31.6171   61.7380  C     
24   C        27.2907   30.8625   60.9896  C     
25   C        27.1316   30.7324   59.5956  C     
26   C        26.0459   31.3551   58.9478  C     
27   C        25.1363   32.1207   59.6923  C     
28   H        18.2763   29.0286   63.3012  H     
29   H        19.1945   29.5292   65.6511  H     
30   H        22.9930   32.1475   63.7348  H     
31   H        18.2026   27.8949   61.2822  H     
32   H        17.2621   29.3912   61.3265  H     
33   H        17.8909   26.4893   59.4013  H     
34   H        16.3664   30.1487   56.6149  H     
35   H        17.0932   30.5876   58.8666  H     
36   H        26.4849   31.6938   62.7497  H     
37   H        28.0825   30.4089   61.4584  H     
38   H        27.7950   30.1774   59.0487  H     
39   H        25.9280   31.2548   57.9357  H     
40   H        24.3651   32.5769   59.2059  H     
@<TRIPOS>BOND
     1    1    2 2
     2    2    3 2
     3    2   11 1
     4    2   22 1
     5    4    5 1
     6    4    8 1
     7    5    6 2
     8    5    9 1
     9    6    7 1
    10    6   12 1
    11    7    8 2
    12    9   10 2
    13    9   11 am
    14   12   13 1
    15   13   14 1
    16   14   15 2
    17   14   19 1
    18   15   16 1
    19   16   17 2
    20   16   21 1
    21   17   18 1
    22   17   20 1
    23   18   19 2
    24   22   23 2
    25   22   27 1
    26   23   24 1
    27   24   25 2
    28   25   26 1
    29   26   27 2
    30    7   28 1
    31    8   29 1
    32   11   30 1
    33   13   31 1
    34   13   32 1
    35   15   33 1
    36   18   34 1
    37   19   35 1
    38   23   36 1
    39   24   37 1
    40   25   38 1
    41   26   39 1
    42   27   40 1
@<TRIPOS>PROPERTY_DATA
  Total_Score	| 10.1407
  Crash		| -1.0665
  Polar		| 2.3038
  FragIndex	| 1
  FragRMSD	| 0.290

