@<TRIPOS>MOLECULE
BindingDB_50355654
 36 37 0 0 0
SMALL
NO_CHARGES


@<TRIPOS>ATOM
1    O        24.9522   33.7740   62.8566  O     
2    S        24.1601   32.8930   61.7955  S     
3    O        23.4058   33.9712   60.9018  O     
4    C        18.8079   30.0129   64.7668  C     
5    C        19.8504   30.8082   65.2568  C     
6    C        20.8654   31.2431   64.3909  C     
7    C        20.8925   30.8979   63.0053  C     
8    C        19.8384   30.0342   62.5336  C     
9    C        18.7955   29.6471   63.4153  C     
10   S        19.6414   29.5867   60.8447  S     
11   C        17.9694   28.8983   60.6817  C     
12   C        17.5933   28.6483   59.2624  C     
13   C        17.5577   27.3258   58.7628  C     
14   C        17.1583   27.0508   57.4395  C     
15   C        16.8312   28.1162   56.5699  C     
16   C        16.8487   29.4360   57.0616  C     
17   C        17.1932   29.6969   58.3980  C     
18   C        21.8995   31.4697   62.1794  C     
19   O        21.7480   31.5673   60.9654  O     
20   N        23.0298   31.9828   62.6616  N     
21   Cl       17.0536   25.4252   56.9627  Cl    
22   Cl       16.4209   27.8618   54.9447  Cl    
23   C        25.3457   31.9487   60.8213  C     
24   H        18.0447   29.7302   65.3859  H     
25   H        19.8518   31.0985   66.2368  H     
26   H        21.5693   31.8520   64.8080  H     
27   H        17.9716   29.1412   63.0892  H     
28   H        17.9301   27.9833   61.2775  H     
29   H        17.2214   29.5780   61.0737  H     
30   H        17.7928   26.5481   59.3821  H     
31   H        16.5977   30.2156   56.4502  H     
32   H        17.1747   30.6650   58.7242  H     
33   H        23.2127   31.8906   63.6086  H     
34   H        26.0114   32.6323   60.2968  H     
35   H        24.8136   31.3361   60.0920  H     
36   H        25.9320   31.3070   61.4788  H     
@<TRIPOS>BOND
     1    1    2 2
     2    2    3 2
     3    2   20 1
     4    2   23 1
     5    4    5 2
     6    4    9 1
     7    5    6 1
     8    6    7 2
     9    7    8 1
    10    7   18 1
    11    8    9 2
    12    8   10 1
    13   10   11 1
    14   11   12 1
    15   12   13 2
    16   12   17 1
    17   13   14 1
    18   14   15 2
    19   14   21 1
    20   15   16 1
    21   15   22 1
    22   16   17 2
    23   18   19 2
    24   18   20 am
    25    4   24 1
    26    5   25 1
    27    6   26 1
    28    9   27 1
    29   11   28 1
    30   11   29 1
    31   13   30 1
    32   16   31 1
    33   17   32 1
    34   20   33 1
    35   23   34 1
    36   23   35 1
    37   23   36 1
@<TRIPOS>PROPERTY_DATA
  Total_Score	| 8.6844
  Crash		| -1.3531
  Polar		| 2.1958
  FragIndex	| 1
  FragRMSD	| 0.384

