@<TRIPOS>MOLECULE
BindingDB_50355642
 42 44 0 0 0
SMALL
NO_CHARGES


@<TRIPOS>ATOM
1    O        24.8294   33.9482   63.1857  O     
2    S        24.0915   33.1335   62.0287  S     
3    O        23.3740   34.2252   61.1309  O     
4    S        21.0026   30.7316   64.5870  S     
5    C        21.0393   30.7440   62.8533  C     
6    C        19.9401   29.9690   62.4190  C     
7    C        19.1403   29.4573   63.4594  C     
8    C        19.6141   29.7482   64.7618  C     
9    C        22.0200   31.4373   62.1431  C     
10   O        22.0495   31.3633   60.9130  O     
11   N        22.8985   32.2017   62.7789  N     
12   S        19.5365   29.8024   60.7041  S     
13   C        17.9664   28.8910   60.7005  C     
14   C        17.5565   28.6329   59.2794  C     
15   C        17.5333   27.3192   58.7792  C     
16   C        17.0906   27.0545   57.4642  C     
17   C        16.6911   28.1170   56.6263  C     
18   C        16.7433   29.4394   57.1205  C     
19   C        17.1604   29.6951   58.4399  C     
20   Cl       16.1408   27.8642   55.0470  Cl    
21   Cl       17.0595   25.4331   56.9634  Cl    
22   C        25.2438   32.1681   61.1473  C     
23   C        26.3505   31.5947   61.7935  C     
24   C        27.2801   30.8311   61.0621  C     
25   C        27.0961   30.6216   59.6855  C     
26   C        25.9705   31.1693   59.0301  C     
27   C        25.0538   31.9451   59.7620  C     
28   N        25.7671   30.9486   57.7228  N     
29   H        18.2972   28.9103   63.3151  H     
30   H        19.1414   29.4867   65.6272  H     
31   H        22.8502   32.2387   63.7542  H     
32   H        18.0771   27.9495   61.2402  H     
33   H        17.1888   29.4836   61.1899  H     
34   H        17.8526   26.5432   59.3664  H     
35   H        16.4553   30.2194   56.5165  H     
36   H        17.1608   30.6596   58.7788  H     
37   H        26.4938   31.7249   62.7998  H     
38   H        28.0876   30.4273   61.5385  H     
39   H        27.7708   30.0695   59.1562  H     
40   H        24.2461   32.3493   59.2857  H     
41   H        24.9837   31.3201   57.2852  H     
42   H        26.3903   30.4133   57.2063  H     
@<TRIPOS>BOND
     1    1    2 2
     2    2    3 2
     3    2   11 1
     4    2   22 1
     5    4    5 1
     6    4    8 1
     7    5    6 2
     8    5    9 1
     9    6    7 1
    10    6   12 1
    11    7    8 2
    12    9   10 2
    13    9   11 am
    14   12   13 1
    15   13   14 1
    16   14   15 2
    17   14   19 1
    18   15   16 1
    19   16   17 2
    20   16   21 1
    21   17   18 1
    22   17   20 1
    23   18   19 2
    24   22   23 2
    25   22   27 1
    26   23   24 1
    27   24   25 2
    28   25   26 1
    29   26   27 2
    30   26   28 1
    31    7   29 1
    32    8   30 1
    33   11   31 1
    34   13   32 1
    35   13   33 1
    36   15   34 1
    37   18   35 1
    38   19   36 1
    39   23   37 1
    40   24   38 1
    41   25   39 1
    42   27   40 1
    43   28   41 1
    44   28   42 1
@<TRIPOS>PROPERTY_DATA
  Total_Score	| 10.3726
  Crash		| -1.2913
  Polar		| 2.1318
  FragIndex	| 1
  FragRMSD	| 0.265

