@<TRIPOS>MOLECULE
BindingDB_50355648
 31 33 0 0 0
SMALL
NO_CHARGES


@<TRIPOS>ATOM
1    S        20.9901   30.9539   64.6213  S     
2    C        21.0391   30.8932   62.8983  C     
3    C        20.2428   29.7961   62.5113  C     
4    C        19.6755   29.0868   63.5901  C     
5    C        19.9731   29.5913   64.8545  C     
6    C        21.7704   31.8153   62.1245  C     
7    O        21.8396   31.7382   60.7768  O     
8    O        22.4559   32.8180   62.7203  O     
9    S        19.9885   29.2616   60.8701  S     
10   C        18.1759   29.2464   60.8851  C     
11   C        17.6668   28.8227   59.5845  C     
12   C        17.5918   27.5020   59.2868  C     
13   C        16.8777   29.3917   57.3995  C     
14   C        17.2768   29.7526   58.6392  C     
15   C        16.8198   28.0453   57.0435  C     
16   C        17.1794   27.0679   58.0222  C     
17   C        17.1315   25.6962   57.6910  C     
18   C        16.7295   25.2911   56.4083  C     
19   C        16.3866   26.2550   55.4374  C     
20   C        16.4236   27.6247   55.7511  C     
21   H        19.1012   28.2504   63.4639  H     
22   H        19.6495   29.2226   65.7500  H     
23   H        17.8120   28.5635   61.6559  H     
24   H        17.8390   30.2515   61.1521  H     
25   H        17.8395   26.8220   59.9723  H     
26   H        16.6096   30.0920   56.7448  H     
27   H        17.2939   30.7246   58.8622  H     
28   H        17.3759   24.9814   58.3808  H     
29   H        16.6791   24.2964   56.1805  H     
30   H        16.0974   25.9522   54.5030  H     
31   H        16.1605   28.3139   55.0320  H     
@<TRIPOS>BOND
     1    1    2 1
     2    1    5 1
     3    2    3 2
     4    2    6 1
     5    3    4 1
     6    3    9 1
     7    4    5 2
     8    6    7 2
     9    6    8 1
    10    9   10 1
    11   10   11 1
    12   11   12 2
    13   11   14 1
    14   12   16 1
    15   13   14 2
    16   13   15 1
    17   15   16 1
    18   15   20 2
    19   16   17 2
    20   17   18 1
    21   18   19 2
    22   19   20 1
    23    4   21 1
    24    5   22 1
    25   10   23 1
    26   10   24 1
    27   12   25 1
    28   13   26 1
    29   14   27 1
    30   17   28 1
    31   18   29 1
    32   19   30 1
    33   20   31 1
@<TRIPOS>PROPERTY_DATA
  Total_Score	| 7.3810
  Crash		| -1.9153
  Polar		| 1.6396
  FragIndex	| 1
  FragRMSD	| 0.358

