@<TRIPOS>MOLECULE
BindingDB_50355637
 27 28 0 0 0
SMALL
NO_CHARGES


@<TRIPOS>ATOM
1    O        20.6453   28.4122   60.2623  O     
2    S        19.6653   29.5208   60.8412  S     
3    O        19.7345   30.7902   59.8903  O     
4    S        21.2172   30.8946   64.5500  S     
5    C        21.1218   30.9033   62.8282  C     
6    C        20.2020   29.8974   62.4682  C     
7    C        19.6849   29.1814   63.5703  C     
8    C        20.1328   29.6005   64.8240  C     
9    C        21.9076   31.7962   62.0554  C     
10   O        22.2009   31.5572   60.7525  O     
11   O        22.5525   32.8341   62.6406  O     
12   C        17.9822   28.8561   60.7665  C     
13   C        17.5498   28.6039   59.3683  C     
14   C        17.4977   27.2919   58.8518  C     
15   C        17.1142   27.0518   57.5152  C     
16   C        16.7627   28.1366   56.6804  C     
17   C        16.7930   29.4478   57.1986  C     
18   C        17.1681   29.6774   58.5306  C     
19   Cl       16.2982   27.9253   55.0636  Cl    
20   Cl       17.1069   25.4494   56.9602  Cl    
21   H        19.0150   28.4203   63.4807  H     
22   H        19.8562   29.2083   65.7298  H     
23   H        17.9808   27.9352   61.3519  H     
24   H        17.2982   29.5567   61.2506  H     
25   H        17.7521   26.5015   59.4479  H     
26   H        16.5475   30.2453   56.6062  H     
27   H        17.1688   30.6370   58.8861  H     
@<TRIPOS>BOND
     1    1    2 2
     2    2    3 2
     3    2    6 1
     4    2   12 1
     5    4    5 1
     6    4    8 1
     7    5    6 2
     8    5    9 1
     9    6    7 1
    10    7    8 2
    11    9   10 2
    12    9   11 1
    13   12   13 1
    14   13   14 2
    15   13   18 1
    16   14   15 1
    17   15   16 2
    18   15   20 1
    19   16   17 1
    20   16   19 1
    21   17   18 2
    22    7   21 1
    23    8   22 1
    24   12   23 1
    25   12   24 1
    26   14   25 1
    27   17   26 1
    28   18   27 1
@<TRIPOS>PROPERTY_DATA
  Total_Score	| 8.5174
  Crash		| -0.5859
  Polar		| 1.6267
  FragIndex	| 1
  FragRMSD	| 0.294

