@<TRIPOS>MOLECULE
BindingDB_50355649
 46 48 0 0 0
SMALL
NO_CHARGES


@<TRIPOS>ATOM
1    O        24.4556   34.5255   63.0499  O     
2    S        23.8789   33.5767   61.9129  S     
3    O        23.0217   34.5329   60.9792  O     
4    S        21.1583   30.8519   64.5441  S     
5    C        21.1684   30.8405   62.8156  C     
6    C        20.3008   29.7975   62.4102  C     
7    C        19.7542   29.0668   63.4868  C     
8    C        20.0979   29.5233   64.7588  C     
9    C        21.9520   31.7094   62.0670  C     
10   O        21.8630   31.7249   60.8448  O     
11   N        22.8324   32.4938   62.6759  N     
12   S        20.0100   29.3280   60.7491  S     
13   C        18.2302   28.9863   60.7627  C     
14   C        17.7282   28.7216   59.3863  C     
15   C        17.6814   27.4056   58.8640  C     
16   C        17.1763   27.1440   57.5712  C     
17   C        16.7084   28.2151   56.7760  C     
18   C        16.7689   29.5294   57.2790  C     
19   C        17.2719   29.7795   58.5688  C     
20   Cl       16.0566   27.9828   55.2275  Cl    
21   Cl       17.1404   25.5353   57.0224  Cl    
22   C        25.2191   32.8666   61.0621  C     
23   C        25.7479   31.6264   61.4667  C     
24   C        26.7949   31.0382   60.7378  C     
25   C        27.3470   31.6885   59.6173  C     
26   C        26.8706   32.9708   59.2299  C     
27   C        25.7950   33.5355   59.9636  C     
28   O        28.3693   31.0455   58.9718  O     
29   C        27.9283   30.2075   57.8904  C     
30   C        27.4670   33.6915   58.1595  C     
31   O        28.5372   33.2208   57.4730  O     
32   O        27.0322   34.9169   57.7907  O     
33   H        19.1673   28.2387   63.3676  H     
34   H        19.8047   29.1158   65.6517  H     
35   H        22.8979   32.4299   63.6440  H     
36   H        18.0404   28.1161   61.3898  H     
37   H        17.7076   29.8362   61.2068  H     
38   H        18.0199   26.6258   59.4347  H     
39   H        16.4384   30.3146   56.7086  H     
40   H        17.3025   30.7457   58.9086  H     
41   H        25.3707   31.1316   62.2827  H     
42   H        27.1588   30.1220   61.0241  H     
43   H        25.4250   34.4513   59.7030  H     
44   H        27.1970   29.4698   58.2299  H     
45   H        28.7931   29.6655   57.5048  H     
46   H        27.5051   30.8077   57.0793  H     
@<TRIPOS>BOND
     1    1    2 2
     2    2    3 2
     3    2   11 1
     4    2   22 1
     5    4    5 1
     6    4    8 1
     7    5    6 2
     8    5    9 1
     9    6    7 1
    10    6   12 1
    11    7    8 2
    12    9   10 2
    13    9   11 am
    14   12   13 1
    15   13   14 1
    16   14   15 2
    17   14   19 1
    18   15   16 1
    19   16   17 2
    20   16   21 1
    21   17   18 1
    22   17   20 1
    23   18   19 2
    24   22   23 2
    25   22   27 1
    26   23   24 1
    27   24   25 2
    28   25   26 1
    29   25   28 1
    30   26   27 2
    31   26   30 1
    32   28   29 1
    33   30   31 2
    34   30   32 1
    35    7   33 1
    36    8   34 1
    37   11   35 1
    38   13   36 1
    39   13   37 1
    40   15   38 1
    41   18   39 1
    42   19   40 1
    43   23   41 1
    44   24   42 1
    45   27   43 1
    46   29   44 1
    47   29   45 1
    48   29   46 1
@<TRIPOS>PROPERTY_DATA
  Total_Score	| 10.4489
  Crash		| -1.5272
  Polar		| 3.0983
  FragIndex	| 1
  FragRMSD	| 0.365

