@<TRIPOS>MOLECULE
BindingDB_50355636
 25 26 0 0 0
SMALL
NO_CHARGES


@<TRIPOS>ATOM
1    Cl       17.0062   25.4870   56.8935  Cl    
2    Cl       16.0301   28.0068   55.1346  Cl    
3    S        19.8350   29.4846   60.7394  S     
4    S        21.0766   30.8415   64.5603  S     
5    O        22.7121   32.6032   62.6828  O     
6    O        21.8550   31.7553   60.7294  O     
7    C        20.1463   29.8626   62.4221  C     
8    C        21.0520   30.8633   62.8344  C     
9    C        17.6875   28.5797   59.3296  C     
10   C        21.8555   31.7475   62.0815  C     
11   C        19.5622   29.1592   63.4942  C     
12   C        17.1018   27.0790   57.4681  C     
13   C        18.1557   28.7951   60.7283  C     
14   C        16.6839   28.1865   56.6926  C     
15   C        17.6047   27.2845   58.7695  C     
16   C        19.9514   29.5651   64.7736  C     
17   C        17.2867   29.6747   58.5301  C     
18   C        16.7980   29.4817   57.2268  C     
19   H        18.9056   28.3892   63.3549  H     
20   H        18.1651   27.8567   61.2801  H     
21   H        17.4672   29.4737   61.2322  H     
22   H        17.9108   26.4751   59.3169  H     
23   H        19.6425   29.1641   65.6625  H     
24   H        17.3451   30.6250   58.8976  H     
25   H        16.5150   30.2946   56.6742  H     
@<TRIPOS>BOND
     1    1   12 1
     2    2   14 1
     3    3    7 1
     4    3   13 1
     5    4    8 1
     6    4   16 1
     7    5   10 2
     8    6   10 1
     9    7    8 2
    10    7   11 1
    11    8   10 1
    12    9   13 1
    13    9   15 1
    14    9   17 2
    15   11   16 2
    16   12   14 1
    17   12   15 2
    18   14   18 2
    19   17   18 1
    20   11   19 1
    21   13   20 1
    22   13   21 1
    23   15   22 1
    24   16   23 1
    25   17   24 1
    26   18   25 1
@<TRIPOS>PROPERTY_DATA
  Total_Score	| 7.6420
  Crash		| -0.5090
  Polar		| 1.6376
  FragIndex	| 1
  FragRMSD	| 0.635

