@<TRIPOS>MOLECULE
BindingDB_50243260
 48 50 0 0 0
SMALL
NO_CHARGES


@<TRIPOS>ATOM
1    C        18.4872   -2.6060   10.4509  C     
2    C        17.1537   -2.3655   10.8841  C     
3    C        16.5007   -1.3825   10.1072  C     
4    S        17.6335   -0.8616    8.9252  S     
5    C        18.9636   -1.8563    9.3608  C     
6    C        16.5667   -3.0289   11.9745  C     
7    O        15.3731   -2.8764   12.2135  O     
8    N        17.2989   -3.7901   12.7793  N     
9    N        15.2324   -0.8980   10.2665  N     
10   C        14.6519    0.1209    9.6502  C     
11   N        13.4459    0.4830   10.0132  N     
12   O        15.1901    0.7877    8.7787  O     
13   C        20.2330   -1.8742    8.7065  C     
14   C        20.4818   -1.0362    7.5872  C     
15   C        21.7054   -1.0726    6.8960  C     
16   C        22.7215   -1.9437    7.3126  C     
17   C        22.5182   -2.7598    8.4363  C     
18   C        21.2900   -2.7227    9.1285  C     
19   C        16.9537   -4.5510   13.9541  C     
20   C        15.4665   -4.5801   14.4305  C     
21   N        15.2300   -5.4421   15.6422  N     
22   C        15.7626   -6.8292   15.4694  C     
23   C        17.2534   -6.8517   15.0411  C     
24   C        17.4727   -6.0030   13.7655  C     
25   C        15.6250   -4.8140   16.9304  C     
26   H        19.0827   -3.2979   10.9063  H     
27   H        18.2456   -3.8235   12.5623  H     
28   H        14.6961   -1.3290   10.9455  H     
29   H        13.0299    1.2531    9.5918  H     
30   H        12.9817    0.0112   10.7239  H     
31   H        19.7720   -0.3826    7.2528  H     
32   H        21.8529   -0.4597    6.0884  H     
33   H        23.6092   -1.9739    6.8058  H     
34   H        23.2651   -3.3856    8.7492  H     
35   H        21.1845   -3.3316    9.9425  H     
36   H        17.5425   -4.0872   14.7526  H     
37   H        15.1306   -3.5590   14.6198  H     
38   H        14.8422   -4.9799   13.6323  H     
39   H        14.2155   -5.5316   15.7094  H     
40   H        15.6405   -7.4065   16.3920  H     
41   H        15.1646   -7.3373   14.7079  H     
42   H        17.8731   -6.4558   15.8493  H     
43   H        17.5711   -7.8777   14.8573  H     
44   H        16.9561   -6.4729   12.9237  H     
45   H        18.5420   -5.9891   13.5353  H     
46   H        16.7059   -4.7095   17.0234  H     
47   H        15.2622   -5.4220   17.7652  H     
48   H        15.1700   -3.8271   17.0271  H     
@<TRIPOS>BOND
     1    1    2 1
     2    1    5 2
     3    2    3 2
     4    2    6 1
     5    3    4 1
     6    3    9 1
     7    4    5 1
     8    5   13 1
     9    6    7 2
    10    6    8 am
    11   19    8 1
    12    9   10 am
    13   10   11 am
    14   10   12 2
    15   13   14 2
    16   13   18 1
    17   14   15 1
    18   15   16 2
    19   16   17 1
    20   17   18 2
    21   19   20 1
    22   19   24 1
    23   20   21 1
    24   21   22 1
    25   21   25 1
    26   22   23 1
    27   23   24 1
    28    1   26 1
    29    8   27 1
    30    9   28 1
    31   11   29 1
    32   11   30 1
    33   14   31 1
    34   15   32 1
    35   16   33 1
    36   17   34 1
    37   18   35 1
    38   19   36 1
    39   20   37 1
    40   20   38 1
    41   21   39 1
    42   22   40 1
    43   22   41 1
    44   23   42 1
    45   23   43 1
    46   24   44 1
    47   24   45 1
    48   25   46 1
    49   25   47 1
    50   25   48 1
@<TRIPOS>PROPERTY_DATA
  Total_Score	| 5.9470
  Crash		| -1.5192
  Polar		| 3.8317
  FragIndex	| 1
  FragRMSD	| 0.873

