@<TRIPOS>MOLECULE
BindingDB_50332172
 45 47 0 0 0
SMALL
NO_CHARGES


@<TRIPOS>ATOM
1    C        16.5364   -2.6491   11.0543  C     
2    C        16.1084   -1.5571   10.2633  C     
3    S        17.4009   -1.1791    9.1928  S     
4    C        18.5205   -2.3829    9.6922  C     
5    C        17.8512   -3.0714   10.7167  C     
6    C        19.8147   -2.6021    9.1393  C     
7    C        20.5643   -3.7771    9.4310  C     
8    C        21.8297   -3.9965    8.8699  C     
9    C        22.3910   -3.0503    7.9862  C     
10   C        21.6751   -1.8765    7.6854  C     
11   C        20.4094   -1.6622    8.2530  C     
12   Cl       23.9112   -3.3224    7.3031  Cl    
13   N        14.9029   -0.9123   10.3211  N     
14   C        14.4971    0.1610    9.6634  C     
15   N        13.2942    0.6174    9.9196  N     
16   O        15.1757    0.7685    8.8454  O     
17   C        15.7771   -3.2458   12.0732  C     
18   N        16.2783   -4.2125   12.8442  N     
19   O        14.6353   -2.8596   12.2886  O     
20   C        15.6704   -4.8150   14.0003  C     
21   C        15.5604   -6.3597   13.8274  C     
22   C        14.9897   -7.0260   15.1094  C     
23   C        15.8251   -6.6603   16.3660  C     
24   C        15.9551   -5.1242   16.5380  C     
25   C        16.5141   -4.4539   15.2539  C     
26   H        18.3094   -3.8423   11.1977  H     
27   H        20.1831   -4.4960   10.0481  H     
28   H        22.3480   -4.8577    9.0920  H     
29   H        22.0731   -1.1792    7.0420  H     
30   H        19.9182   -0.7955    8.0109  H     
31   H        14.2555   -1.2787   10.9380  H     
32   H        12.9771    1.4182    9.4733  H     
33   H        12.7331    0.1765   10.5779  H     
34   H        17.1834   -4.5067   12.6473  H     
35   H        14.6580   -4.4244   14.1566  H     
36   H        14.8974   -6.5866   12.9850  H     
37   H        16.5432   -6.7851   13.6049  H     
38   H        13.9549   -6.7004   15.2580  H     
39   H        14.9755   -8.1114   14.9884  H     
40   H        15.3486   -7.0842   17.2552  H     
41   H        16.8257   -7.1030   16.2804  H     
42   H        14.9761   -4.6994   16.7661  H     
43   H        16.6165   -4.9082   17.3795  H     
44   H        17.5519   -4.7730   15.1054  H     
45   H        16.5170   -3.3669   15.3812  H     
@<TRIPOS>BOND
     1    1    2 2
     2    1    5 1
     3    1   17 1
     4    2    3 1
     5    2   13 1
     6    3    4 1
     7    4    5 2
     8    4    6 1
     9    6    7 2
    10    6   11 1
    11    7    8 1
    12    8    9 2
    13    9   10 1
    14    9   12 1
    15   10   11 2
    16   13   14 am
    17   14   15 am
    18   14   16 2
    19   17   18 am
    20   17   19 2
    21   18   20 1
    22   20   21 1
    23   20   25 1
    24   21   22 1
    25   22   23 1
    26   23   24 1
    27   24   25 1
    28    5   26 1
    29    7   27 1
    30    8   28 1
    31   10   29 1
    32   11   30 1
    33   13   31 1
    34   15   32 1
    35   15   33 1
    36   18   34 1
    37   20   35 1
    38   21   36 1
    39   21   37 1
    40   22   38 1
    41   22   39 1
    42   23   40 1
    43   23   41 1
    44   24   42 1
    45   24   43 1
    46   25   44 1
    47   25   45 1
@<TRIPOS>PROPERTY_DATA
  Total_Score	| 5.0521
  Crash		| -0.6915
  Polar		| 2.2190
  FragIndex	| 1
  FragRMSD	| 0.516

