@<TRIPOS>MOLECULE
BindingDB_50243259
 45 47 0 0 0
SMALL
NO_CHARGES


@<TRIPOS>ATOM
1    C        18.3570   -2.8120   10.5527  C     
2    C        17.0465   -2.4837   10.9767  C     
3    C        16.4330   -1.4925   10.1851  C     
4    S        17.5809   -1.0605    8.9801  S     
5    C        18.8485   -2.1308    9.4317  C     
6    C        16.4626   -3.1062   12.0732  C     
7    O        15.2481   -3.2703   12.0743  O     
8    N        17.2291   -3.4719   13.0968  N     
9    N        15.1936   -0.9448   10.3784  N     
10   C        14.6612    0.1010    9.7662  C     
11   N        13.4634    0.5075   10.1243  N     
12   O        15.2310    0.7504    8.9031  O     
13   C        20.1071   -2.2726    8.7783  C     
14   C        21.0093   -3.3206    9.1121  C     
15   C        22.2513   -3.4516    8.4646  C     
16   C        22.6206   -2.5391    7.4592  C     
17   C        21.7436   -1.4965    7.1065  C     
18   C        20.5076   -1.3636    7.7631  C     
19   C        16.9324   -4.1723   14.3192  C     
20   C        15.5379   -3.9242   14.9649  C     
21   N        14.4892   -4.7856   14.3791  N     
22   C        14.7893   -6.2379   14.3802  C     
23   C        16.1200   -6.5333   13.6493  C     
24   C        17.2751   -5.6906   14.2406  C     
25   H        18.9065   -3.5232   11.0366  H     
26   H        18.1604   -3.2147   13.0141  H     
27   H        14.6497   -1.3487   11.0722  H     
28   H        13.0717    1.2870    9.6979  H     
29   H        12.9785    0.0430   10.8240  H     
30   H        20.7723   -4.0112    9.8275  H     
31   H        22.8877   -4.2163    8.7169  H     
32   H        23.5213   -2.6310    6.9839  H     
33   H        22.0066   -0.8384    6.3687  H     
34   H        19.9035   -0.5847    7.4896  H     
35   H        17.6492   -3.7430   15.0219  H     
36   H        15.5890   -4.1287   16.0414  H     
37   H        15.2474   -2.8762   14.8434  H     
38   H        13.6372   -4.6255   14.9072  H     
39   H        14.3165   -4.4820   13.4210  H     
40   H        14.8293   -6.6034   15.4109  H     
41   H        13.9773   -6.7573   13.8652  H     
42   H        16.3541   -7.5955   13.7461  H     
43   H        16.0119   -6.3072   12.5875  H     
44   H        18.1797   -5.8488   13.6496  H     
45   H        17.4857   -6.0600   15.2518  H     
@<TRIPOS>BOND
     1    1    2 1
     2    1    5 2
     3    2    3 2
     4    2    6 1
     5    3    4 1
     6    3    9 1
     7    4    5 1
     8    5   13 1
     9    6    7 2
    10    6    8 am
    11   19    8 1
    12    9   10 am
    13   10   11 am
    14   10   12 2
    15   13   14 2
    16   13   18 1
    17   14   15 1
    18   15   16 2
    19   16   17 1
    20   17   18 2
    21   19   20 1
    22   19   24 1
    23   20   21 1
    24   21   22 1
    25   22   23 1
    26   23   24 1
    27    1   25 1
    28    8   26 1
    29    9   27 1
    30   11   28 1
    31   11   29 1
    32   14   30 1
    33   15   31 1
    34   16   32 1
    35   17   33 1
    36   18   34 1
    37   19   35 1
    38   20   36 1
    39   20   37 1
    40   21   38 1
    41   21   39 1
    42   22   40 1
    43   22   41 1
    44   23   42 1
    45   23   43 1
    46   24   44 1
    47   24   45 1
@<TRIPOS>PROPERTY_DATA
  Total_Score	| 6.2336
  Crash		| -1.1611
  Polar		| 3.8434
  FragIndex	| 1
  FragRMSD	| 0.996

