@<TRIPOS>MOLECULE
BindingDB_50243098
 47 49 0 0 0
SMALL
NO_CHARGES


@<TRIPOS>ATOM
1    C        18.1067   -2.8470   10.6369  C     
2    C        16.7724   -2.5152   10.9916  C     
3    C        16.2429   -1.4733   10.1967  C     
4    S        17.4721   -1.0318    9.0765  S     
5    C        18.6915   -2.1319    9.5766  C     
6    C        16.0838   -3.1517   12.0344  C     
7    O        14.9420   -2.8109   12.3168  O     
8    N        16.6410   -4.1328   12.7400  N     
9    N        15.0024   -0.9086   10.2862  N     
10   C        14.5387    0.1659    9.6660  C     
11   N        13.3275    0.5826    9.9384  N     
12   O        15.1850    0.8198    8.8580  O     
13   C        19.9949   -2.2493    9.0028  C     
14   C        20.4201   -1.3804    7.9665  C     
15   C        21.6920   -1.5022    7.3780  C     
16   C        22.5780   -2.4987    7.8136  C     
17   C        22.1891   -3.3613    8.8536  C     
18   C        20.9134   -3.2377    9.4367  C     
19   C        16.0688   -4.8377   13.8517  C     
20   C        16.8874   -6.1347   14.1199  C     
21   C        16.4136   -6.8716   15.3995  C     
22   C        16.3416   -5.9130   16.6119  C     
23   N        15.5536   -4.7011   16.2915  N     
24   C        16.0486   -3.9402   15.1220  C     
25   N        23.7842   -2.6203    7.2300  N     
26   H        18.6326   -3.5638   11.1321  H     
27   H        17.5382   -4.3961   12.4948  H     
28   H        14.3881   -1.3216   10.9068  H     
29   H        12.9865    1.3888    9.5170  H     
30   H        12.7713    0.1001   10.5716  H     
31   H        19.8097   -0.6416    7.6120  H     
32   H        21.9651   -0.8610    6.6309  H     
33   H        22.8257   -4.0884    9.1903  H     
34   H        20.6698   -3.8919   10.1787  H     
35   H        15.0436   -5.1354   13.6100  H     
36   H        16.7852   -6.8093   13.2652  H     
37   H        17.9489   -5.8880   14.2230  H     
38   H        15.4251   -7.3012   15.2202  H     
39   H        17.1039   -7.6874   15.6227  H     
40   H        15.8602   -6.4239   17.4473  H     
41   H        17.3478   -5.6262   16.9253  H     
42   H        14.5916   -4.9805   16.0924  H     
43   H        15.5338   -4.0967   17.1171  H     
44   H        17.0492   -3.5439   15.3272  H     
45   H        15.3787   -3.0915   14.9655  H     
46   H        24.4003   -3.3130    7.5142  H     
47   H        24.0312   -2.0204    6.5088  H     
@<TRIPOS>BOND
     1    1    2 1
     2    1    5 2
     3    2    3 2
     4    2    6 1
     5    3    4 1
     6    3    9 1
     7    4    5 1
     8    5   13 1
     9    6    7 2
    10    6    8 am
    11   19    8 1
    12    9   10 am
    13   10   11 am
    14   10   12 2
    15   13   14 2
    16   13   18 1
    17   14   15 1
    18   15   16 2
    19   16   17 1
    20   16   25 1
    21   17   18 2
    22   19   20 1
    23   19   24 1
    24   20   21 1
    25   21   22 1
    26   22   23 1
    27   23   24 1
    28    1   26 1
    29    8   27 1
    30    9   28 1
    31   11   29 1
    32   11   30 1
    33   14   31 1
    34   15   32 1
    35   17   33 1
    36   18   34 1
    37   19   35 1
    38   20   36 1
    39   20   37 1
    40   21   38 1
    41   21   39 1
    42   22   40 1
    43   22   41 1
    44   23   42 1
    45   23   43 1
    46   24   44 1
    47   24   45 1
    48   25   46 1
    49   25   47 1
@<TRIPOS>PROPERTY_DATA
  Total_Score	| 6.4343
  Crash		| -0.6519
  Polar		| 4.5242
  FragIndex	| 1
  FragRMSD	| 0.316

