@<TRIPOS>MOLECULE
BindingDB_50332176
 48 50 0 0 0
SMALL
NO_CHARGES


@<TRIPOS>ATOM
1    C        16.1036   -2.6856   11.1200  C     
2    C        15.7021   -1.7616   10.1270  C     
3    S        17.0175   -1.4614    9.0654  S     
4    C        18.1688   -2.4532    9.8468  C     
5    C        17.4773   -3.0281   10.9302  C     
6    C        19.5134   -2.5970    9.3994  C     
7    C        20.1578   -3.8574    9.4088  C     
8    C        21.4637   -4.0062    8.9015  C     
9    C        22.1517   -2.8975    8.3734  C     
10   C        21.5358   -1.6345    8.3724  C     
11   C        20.2346   -1.4879    8.8824  C     
12   Cl       23.7124   -3.0744    7.7414  Cl    
13   N        14.4992   -1.1454    9.9854  N     
14   C        14.3550    0.1320    9.6891  C     
15   N        13.1536    0.6547    9.7434  N     
16   O        15.3118    0.8529    9.4370  O     
17   C        15.1770   -3.1550   12.1029  C     
18   N        15.3228   -4.1642   13.0036  N     
19   O        14.0750   -2.5906   12.1079  O     
20   C        14.8800   -7.0208   14.7939  C     
21   C        16.3643   -6.6716   15.0184  C     
22   C        16.7031   -5.1604   15.0261  C     
23   C        14.3225   -6.4962   13.4512  C     
24   C        14.1444   -4.9516   13.3819  C     
25   C        16.6022   -4.4471   13.6412  C     
26   N        15.9693   -4.4161   16.0655  N     
27   H        18.0002   -3.6133   11.5656  H     
28   H        19.6768   -4.6871    9.7640  H     
29   H        21.9047   -4.9293    8.9095  H     
30   H        22.0271   -0.8197    7.9968  H     
31   H        19.8236   -0.5524    8.8685  H     
32   H        13.7092   -1.6225   10.2834  H     
33   H        13.0275    1.6019    9.5885  H     
34   H        12.3886    0.0989    9.9616  H     
35   H        14.7892   -8.1104   14.8008  H     
36   H        14.2808   -6.6413   15.6226  H     
37   H        16.6674   -7.1031   15.9768  H     
38   H        16.9582   -7.1635   14.2437  H     
39   H        17.7568   -5.1272   15.3254  H     
40   H        14.9726   -6.8295   12.6410  H     
41   H        13.3462   -6.9677   13.2987  H     
42   H        13.7583   -4.5845   14.3300  H     
43   H        13.3340   -4.8050   12.6597  H     
44   H        17.2015   -5.0281   12.9365  H     
45   H        17.1037   -3.4899   13.8116  H     
46   H        16.4906   -3.5721   16.3052  H     
47   H        15.8755   -4.9945   16.9026  H     
48   H        15.0384   -4.1481   15.7402  H     
@<TRIPOS>BOND
     1    1    2 2
     2    1    5 1
     3    1   17 1
     4    2    3 1
     5    2   13 1
     6    3    4 1
     7    4    5 2
     8    4    6 1
     9    6    7 2
    10    6   11 1
    11    7    8 1
    12    8    9 2
    13    9   10 1
    14    9   12 1
    15   10   11 2
    16   13   14 am
    17   14   15 am
    18   14   16 2
    19   17   18 am
    20   17   19 2
    21   18   24 1
    22   18   25 1
    23   20   21 1
    24   20   23 1
    25   21   22 1
    26   22   25 1
    27   22   26 1
    28   23   24 1
    29    5   27 1
    30    7   28 1
    31    8   29 1
    32   10   30 1
    33   11   31 1
    34   13   32 1
    35   15   33 1
    36   15   34 1
    37   20   35 1
    38   20   36 1
    39   21   37 1
    40   21   38 1
    41   22   39 1
    42   23   40 1
    43   23   41 1
    44   24   42 1
    45   24   43 1
    46   25   44 1
    47   25   45 1
    48   26   46 1
    49   26   47 1
    50   26   48 1
@<TRIPOS>PROPERTY_DATA
  Total_Score	| 6.7656
  Crash		| -1.3609
  Polar		| 3.5272
  FragIndex	| 1
  FragRMSD	| 0.849

