@<TRIPOS>MOLECULE
BindingDB_50243046
 45 47 0 0 0
SMALL
NO_CHARGES


@<TRIPOS>ATOM
1    C        18.0399   -2.9064   10.6795  C     
2    C        16.7185   -2.5369   11.0586  C     
3    C        16.2040   -1.4781   10.2738  C     
4    S        17.4299   -1.0688    9.1371  S     
5    C        18.6276   -2.2040    9.6129  C     
6    C        16.0377   -3.1651   12.1135  C     
7    O        14.9108   -2.7953   12.4113  O     
8    N        16.5794   -4.1661   12.8023  N     
9    N        14.9783   -0.8760   10.3789  N     
10   C        14.5259    0.2010    9.7563  C     
11   N        13.3333    0.6466   10.0707  N     
12   O        15.1614    0.8239    8.9156  O     
13   C        19.9149   -2.3639    9.0148  C     
14   C        20.7866   -3.4237    9.3846  C     
15   C        22.0421   -3.5837    8.7733  C     
16   C        22.4619   -2.6890    7.7715  C     
17   C        21.6176   -1.6305    7.3901  C     
18   C        20.3653   -1.4697    8.0096  C     
19   C        16.0049   -4.8641   13.9189  C     
20   C        16.7887   -6.1881   14.1440  C     
21   C        16.3147   -6.9350   15.4181  C     
22   C        16.2700   -6.0002   16.6538  C     
23   N        15.5042   -4.7709   16.3677  N     
24   C        16.0304   -4.0034   15.2162  C     
25   Cl       23.9697   -2.8882    7.0276  Cl    
26   H        18.5528   -3.6415   11.1637  H     
27   H        17.4497   -4.4751   12.5194  H     
28   H        14.3654   -1.2692   11.0142  H     
29   H        12.9792    1.4442    9.6436  H     
30   H        12.8113    0.1916   10.7512  H     
31   H        20.5226   -4.0955   10.1055  H     
32   H        22.6499   -4.3570    9.0587  H     
33   H        21.9062   -0.9790    6.6548  H     
34   H        19.7815   -0.6910    7.6971  H     
35   H        14.9684   -5.1302   13.6869  H     
36   H        16.6515   -6.8389   13.2783  H     
37   H        17.8601   -5.9766   14.2352  H     
38   H        15.3165   -7.3449   15.2373  H     
39   H        16.9960   -7.7663   15.6234  H     
40   H        15.7951   -6.5192   17.4875  H     
41   H        17.2842   -5.7257   16.9555  H     
42   H        14.5338   -5.0132   16.1686  H     
43   H        15.4987   -4.1831   17.2015  H     
44   H        17.0527   -3.6775   15.4358  H     
45   H        15.4152   -3.1076   15.0889  H     
@<TRIPOS>BOND
     1    1    2 1
     2    1    5 2
     3    2    3 2
     4    2    6 1
     5    3    4 1
     6    3    9 1
     7    4    5 1
     8    5   13 1
     9    6    7 2
    10    6    8 am
    11   19    8 1
    12    9   10 am
    13   10   11 am
    14   10   12 2
    15   13   14 2
    16   13   18 1
    17   14   15 1
    18   15   16 2
    19   16   17 1
    20   16   25 1
    21   17   18 2
    22   19   20 1
    23   19   24 1
    24   20   21 1
    25   21   22 1
    26   22   23 1
    27   23   24 1
    28    1   26 1
    29    8   27 1
    30    9   28 1
    31   11   29 1
    32   11   30 1
    33   14   31 1
    34   15   32 1
    35   17   33 1
    36   18   34 1
    37   19   35 1
    38   20   36 1
    39   20   37 1
    40   21   38 1
    41   21   39 1
    42   22   40 1
    43   22   41 1
    44   23   42 1
    45   23   43 1
    46   24   44 1
    47   24   45 1
@<TRIPOS>PROPERTY_DATA
  Total_Score	| 6.3495
  Crash		| -0.7927
  Polar		| 4.6458
  FragIndex	| 1
  FragRMSD	| 0.237

