@<TRIPOS>MOLECULE
BindingDB_50242824
 45 47 0 0 0
SMALL
NO_CHARGES


@<TRIPOS>ATOM
1    C        18.0459   -2.8852   10.6513  C     
2    C        16.7221   -2.5336   11.0313  C     
3    C        16.1892   -1.4907   10.2386  C     
4    S        17.4034   -1.0677    9.0962  S     
5    C        18.6192   -2.1824    9.5790  C     
6    C        16.0512   -3.1468   12.1001  C     
7    O        14.9405   -2.7495   12.4344  O     
8    N        16.5878   -4.1546   12.7807  N     
9    N        14.9571   -0.9050   10.3515  N     
10   C        14.5015    0.1741    9.7290  C     
11   N        13.3082    0.6183   10.0449  N     
12   O        15.1312    0.8088    8.8980  O     
13   C        19.9054   -2.3097    8.9635  C     
14   C        20.7944   -3.3589    9.3233  C     
15   C        22.0454   -3.4973    8.6901  C     
16   C        22.4379   -2.5931    7.6889  C     
17   C        21.5810   -1.5404    7.3250  C     
18   C        20.3333   -1.4020    7.9617  C     
19   C        16.0101   -4.8473   13.8982  C     
20   C        16.7957   -6.1685   14.1292  C     
21   C        16.2932   -6.9177   15.3889  C     
22   C        16.2337   -5.9864   16.6255  C     
23   N        15.4840   -4.7481   16.3334  N     
24   C        16.0276   -3.9813   15.1932  C     
25   F        23.5982   -2.7311    7.1036  F     
26   H        18.5722   -3.6039   11.1468  H     
27   H        17.4525   -4.4728   12.4964  H     
28   H        14.3472   -1.3080   10.9822  H     
29   H        12.9561    1.4211    9.6234  H     
30   H        12.7926    0.1673   10.7274  H     
31   H        20.5457   -4.0346   10.0476  H     
32   H        22.6745   -4.2580    8.9650  H     
33   H        21.8542   -0.8791    6.5986  H     
34   H        19.7409   -0.6258    7.6677  H     
35   H        14.9749   -5.1238   13.6582  H     
36   H        16.6797   -6.8201   13.2599  H     
37   H        17.8644   -5.9526   14.2501  H     
38   H        15.2956   -7.3192   15.1892  H     
39   H        16.9625   -7.7525   15.6090  H     
40   H        15.7376   -6.5047   17.4495  H     
41   H        17.2461   -5.7305   16.9489  H     
42   H        14.5146   -4.9884   16.1216  H     
43   H        15.4755   -4.1660   17.1826  H     
44   H        17.0490   -3.6509   15.4064  H     
45   H        15.4129   -3.0884   15.0538  H     
@<TRIPOS>BOND
     1    1    2 1
     2    1    5 2
     3    2    3 2
     4    2    6 1
     5    3    4 1
     6    3    9 1
     7    4    5 1
     8    5   13 1
     9    6    7 2
    10    6    8 am
    11   19    8 1
    12    9   10 am
    13   10   11 am
    14   10   12 2
    15   13   14 2
    16   13   18 1
    17   14   15 1
    18   15   16 2
    19   16   17 1
    20   16   25 1
    21   17   18 2
    22   19   20 1
    23   19   24 1
    24   20   21 1
    25   21   22 1
    26   22   23 1
    27   23   24 1
    28    1   26 1
    29    8   27 1
    30    9   28 1
    31   11   29 1
    32   11   30 1
    33   14   31 1
    34   15   32 1
    35   17   33 1
    36   18   34 1
    37   19   35 1
    38   20   36 1
    39   20   37 1
    40   21   38 1
    41   21   39 1
    42   22   40 1
    43   22   41 1
    44   23   42 1
    45   23   43 1
    46   24   44 1
    47   24   45 1
@<TRIPOS>PROPERTY_DATA
  Total_Score	| 6.5271
  Crash		| -0.8090
  Polar		| 4.6570
  FragIndex	| 1
  FragRMSD	| 0.247

