@<TRIPOS>MOLECULE
BindingDB_50243048
 48 50 0 0 0
SMALL
NO_CHARGES


@<TRIPOS>ATOM
1    C        18.0260   -2.8937   10.6293  C     
2    C        16.7077   -2.5296   11.0152  C     
3    C        16.1843   -1.4832   10.2275  C     
4    S        17.4017   -1.0650    9.0835  S     
5    C        18.6077   -2.1896    9.5621  C     
6    C        16.0256   -3.1419   12.0793  C     
7    O        14.9031   -2.7673   12.3938  O     
8    N        16.5675   -4.1466   12.7662  N     
9    N        14.9572   -0.8951   10.3461  N     
10   C        14.5015    0.1775    9.7206  C     
11   N        13.3190    0.6304   10.0570  N     
12   O        15.1307    0.8067    8.8822  O     
13   C        19.8974   -2.3340    8.9573  C     
14   C        20.7728   -3.3935    9.3096  C     
15   C        22.0285   -3.5453    8.6870  C     
16   C        22.4507   -2.6438    7.6911  C     
17   C        21.5940   -1.5752    7.3426  C     
18   C        20.3448   -1.4234    7.9697  C     
19   C        15.9941   -4.8463   13.8818  C     
20   C        16.7906   -6.1623   14.1213  C     
21   C        16.3115   -6.9165   15.3890  C     
22   C        16.2626   -5.9835   16.6225  C     
23   N        15.4925   -4.7526   16.3344  N     
24   C        16.0022   -3.9769   15.1798  C     
25   C        23.7700   -2.8228    7.0396  C     
26   H        18.5435   -3.6279   11.1081  H     
27   H        17.4408   -4.4514   12.4792  H     
28   H        14.3512   -1.2840   10.9928  H     
29   H        12.9667    1.4346    9.6440  H     
30   H        12.8025    0.1871   10.7483  H     
31   H        20.5126   -4.0822   10.0228  H     
32   H        22.6306   -4.3231    8.9696  H     
33   H        21.8726   -0.9037    6.6250  H     
34   H        19.7642   -0.6380    7.6822  H     
35   H        14.9591   -5.1245   13.6416  H     
36   H        16.6761   -6.8163   13.2543  H     
37   H        17.8551   -5.9313   14.2284  H     
38   H        15.3179   -7.3358   15.2062  H     
39   H        16.9988   -7.7378   15.6008  H     
40   H        15.7817   -6.5016   17.4539  H     
41   H        17.2794   -5.7157   16.9278  H     
42   H        14.5259   -5.0178   16.1300  H     
43   H        15.4860   -4.1729   17.1790  H     
44   H        17.0197   -3.6227   15.3794  H     
45   H        15.3586   -3.1048   15.0535  H     
46   H        24.5636   -2.7433    7.7852  H     
47   H        23.9524   -2.0731    6.2677  H     
48   H        23.8239   -3.8083    6.5725  H     
@<TRIPOS>BOND
     1    1    2 1
     2    1    5 2
     3    2    3 2
     4    2    6 1
     5    3    4 1
     6    3    9 1
     7    4    5 1
     8    5   13 1
     9    6    7 2
    10    6    8 am
    11   19    8 1
    12    9   10 am
    13   10   11 am
    14   10   12 2
    15   13   14 2
    16   13   18 1
    17   14   15 1
    18   15   16 2
    19   16   17 1
    20   16   25 1
    21   17   18 2
    22   19   20 1
    23   19   24 1
    24   20   21 1
    25   21   22 1
    26   22   23 1
    27   23   24 1
    28    1   26 1
    29    8   27 1
    30    9   28 1
    31   11   29 1
    32   11   30 1
    33   14   31 1
    34   15   32 1
    35   17   33 1
    36   18   34 1
    37   19   35 1
    38   20   36 1
    39   20   37 1
    40   21   38 1
    41   21   39 1
    42   22   40 1
    43   22   41 1
    44   23   42 1
    45   23   43 1
    46   24   44 1
    47   24   45 1
    48   25   46 1
    49   25   47 1
    50   25   48 1
@<TRIPOS>PROPERTY_DATA
  Total_Score	| 6.5407
  Crash		| -0.7765
  Polar		| 4.6271
  FragIndex	| 1
  FragRMSD	| 0.234

