@<TRIPOS>MOLECULE
BindingDB_50242893
 45 47 0 0 0
SMALL
NO_CHARGES


@<TRIPOS>ATOM
1    C        18.1468   -2.8532   10.6428  C     
2    C        16.8143   -2.5149   11.0082  C     
3    C        16.2823   -1.4702   10.2165  C     
4    S        17.5081   -1.0323    9.0919  S     
5    C        18.7283   -2.1380    9.5839  C     
6    C        16.1353   -3.1457   12.0567  C     
7    O        14.9985   -2.7946   12.3468  O     
8    N        16.6918   -4.1184   12.7748  N     
9    N        15.0407   -0.9000   10.3156  N     
10   C        14.5665    0.1533    9.6702  C     
11   N        13.3722    0.5979    9.9878  N     
12   O        15.1858    0.7711    8.8137  O     
13   C        20.0231   -2.2594    8.9862  C     
14   C        20.9545   -3.2388    9.4138  C     
15   C        22.2158   -3.3687    8.7911  C     
16   C        22.5681   -2.5149    7.7291  C     
17   C        21.6669   -1.5268    7.2992  C     
18   C        20.4143   -1.3996    7.9234  C     
19   C        16.0957   -4.8320   13.8674  C     
20   C        16.9164   -6.1209   14.1434  C     
21   C        16.3771   -6.8812   15.3802  C     
22   C        16.2460   -5.9464   16.6100  C     
23   N        15.4759   -4.7246   16.2854  N     
24   C        16.0314   -3.9512   15.1518  C     
25   Cl       23.3187   -4.5373    9.3326  Cl    
26   H        18.6672   -3.5848   11.1306  H     
27   H        17.5835   -4.4037   12.5231  H     
28   H        14.4352   -1.2960   10.9625  H     
29   H        13.0136    1.3889    9.5543  H     
30   H        12.8591    0.1534   10.6810  H     
31   H        20.7306   -3.8723   10.1845  H     
32   H        23.4741   -2.6082    7.2631  H     
33   H        21.9137   -0.9128    6.5206  H     
34   H        19.7830   -0.6708    7.5766  H     
35   H        15.0784   -5.1388   13.5911  H     
36   H        16.8663   -6.7780   13.2710  H     
37   H        17.9657   -5.8695   14.3122  H     
38   H        15.3976   -7.3003   15.1407  H     
39   H        17.0463   -7.7096   15.6225  H     
40   H        15.7348   -6.4777   17.4154  H     
41   H        17.2390   -5.6674   16.9691  H     
42   H        14.5198   -4.9930   16.0462  H     
43   H        15.4356   -4.1361   17.1258  H     
44   H        17.0296   -3.5816   15.4062  H     
45   H        15.3842   -3.0907   14.9846  H     
@<TRIPOS>BOND
     1    1    2 1
     2    1    5 2
     3    2    3 2
     4    2    6 1
     5    3    4 1
     6    3    9 1
     7    4    5 1
     8    5   13 1
     9    6    7 2
    10    6    8 am
    11   19    8 1
    12    9   10 am
    13   10   11 am
    14   10   12 2
    15   13   14 2
    16   13   18 1
    17   14   15 1
    18   15   16 2
    19   15   25 1
    20   16   17 1
    21   17   18 2
    22   19   20 1
    23   19   24 1
    24   20   21 1
    25   21   22 1
    26   22   23 1
    27   23   24 1
    28    1   26 1
    29    8   27 1
    30    9   28 1
    31   11   29 1
    32   11   30 1
    33   14   31 1
    34   16   32 1
    35   17   33 1
    36   18   34 1
    37   19   35 1
    38   20   36 1
    39   20   37 1
    40   21   38 1
    41   21   39 1
    42   22   40 1
    43   22   41 1
    44   23   42 1
    45   23   43 1
    46   24   44 1
    47   24   45 1
@<TRIPOS>PROPERTY_DATA
  Total_Score	| 6.0554
  Crash		| -0.8097
  Polar		| 4.5973
  FragIndex	| 1
  FragRMSD	| 0.333

