@<TRIPOS>MOLECULE
BindingDB_29217
 28 29 0 0 0
SMALL
NO_CHARGES


@<TRIPOS>ATOM
1    C        -1.0430   -7.6004  -16.6923  C     
2    C        -0.8938   -6.2315  -16.5000  C     
3    C        -1.9379   -5.5243  -15.8873  C     
4    C        -3.0491   -6.1977  -15.3438  C     
5    C        -3.2378   -7.6041  -15.5547  C     
6    C        -2.2297   -8.2872  -16.3195  C     
7    C        -2.4579   -9.6205  -16.7235  C     
8    N        -4.3308   -8.3806  -15.0691  N     
9    C        -4.4164   -9.6934  -15.3929  C     
10   C        -3.5359  -10.2721  -16.2469  C     
11   O        -5.3073  -10.4302  -14.9730  O     
12   C        -1.6030  -10.2731  -17.7214  C     
13   C        -5.3261   -7.8268  -14.1567  C     
14   O        -3.9840   -5.3791  -14.7548  O     
15   C        -3.5325   -4.8109  -13.4938  C     
16   H        -0.2621   -8.1023  -17.1239  H     
17   H        -0.0538   -5.7645  -16.8190  H     
18   H        -1.8394   -4.5071  -15.7963  H     
19   H        -3.7015  -11.2129  -16.5301  H     
20   H        -1.5014   -9.6307  -18.6034  H     
21   H        -2.0059  -11.2455  -18.0660  H     
22   H        -0.5996  -10.4569  -17.3017  H     
23   H        -4.8233   -7.5146  -13.2214  H     
24   H        -6.1137   -8.5288  -13.8468  H     
25   H        -5.8393   -6.9724  -14.6173  H     
26   H        -3.3092   -5.6182  -12.7690  H     
27   H        -4.3374   -4.1917  -13.0844  H     
28   H        -2.6286   -4.1891  -13.6294  H     
@<TRIPOS>BOND
     1    1    2 1
     2    1    6 2
     3    2    3 2
     4    3    4 1
     5    4    5 2
     6    4   14 1
     7    5    6 1
     8    5    8 1
     9    6    7 1
    10    7   10 2
    11    7   12 1
    12    8    9 1
    13    8   13 1
    14    9   10 1
    15    9   11 2
    16   14   15 1
    17    1   16 1
    18    2   17 1
    19    3   18 1
    20   10   19 1
    21   12   20 1
    22   12   21 1
    23   12   22 1
    24   13   23 1
    25   13   24 1
    26   13   25 1
    27   15   26 1
    28   15   27 1
    29   15   28 1
@<TRIPOS>PROPERTY_DATA
  Total_Score	| 4.0056
  Crash		| -0.2160
  Polar		| 1.1338
  FragIndex	| 1
  FragRMSD	| 0.627

