@<TRIPOS>MOLECULE
BindingDB_29228
 37 38 0 0 0
SMALL
NO_CHARGES


@<TRIPOS>ATOM
1    C        -1.3237   -7.3911  -16.4785  C     
2    C        -1.1942   -6.0705  -15.9955  C     
3    C        -2.2471   -5.4816  -15.2567  C     
4    C        -3.4234   -6.2216  -15.0136  C     
5    C        -3.5320   -7.5529  -15.4784  C     
6    C        -2.5167   -8.1501  -16.2781  C     
7    C        -2.7202   -9.5044  -16.6965  C     
8    N        -4.5716   -8.3302  -15.0476  N     
9    C        -4.6735   -9.6117  -15.3641  C     
10   C        -3.7931  -10.1837  -16.2204  C     
11   O        -5.5783  -10.2598  -14.8678  O     
12   C        -1.8641  -10.1676  -17.6985  C     
13   O        -4.3732   -5.6704  -14.1884  O     
14   C        -5.5530   -5.2553  -14.8880  C     
15   O         0.0218   -5.4470  -16.0484  O     
16   C         0.1138   -4.4504  -17.0777  C     
17   O        -0.1770   -7.9917  -16.9143  O     
18   C         0.3233   -8.9046  -15.9116  C     
19   O        -2.0307   -4.3185  -14.5520  O     
20   C        -2.7132   -3.1399  -15.0030  C     
21   H        -5.2220   -7.9476  -14.4428  H     
22   H        -3.9733  -11.1131  -16.5121  H     
23   H        -1.6773   -9.4886  -18.5373  H     
24   H        -2.3271  -11.0653  -18.1195  H     
25   H        -0.9025  -10.4765  -17.2874  H     
26   H        -5.3274   -4.5582  -15.6998  H     
27   H        -6.2134   -4.7644  -14.1841  H     
28   H        -6.0917   -6.1133  -15.3035  H     
29   H        -0.1632   -4.8398  -18.0634  H     
30   H         1.1465   -4.1032  -17.1188  H     
31   H        -0.5165   -3.5947  -16.8535  H     
32   H         0.7184   -8.3671  -15.0543  H     
33   H         1.1092   -9.4846  -16.3813  H     
34   H        -0.4356   -9.6193  -15.5729  H     
35   H        -2.2706   -2.7521  -15.9154  H     
36   H        -2.5983   -2.3644  -14.2443  H     
37   H        -3.7812   -3.2866  -15.1491  H     
@<TRIPOS>BOND
     1    1    2 1
     2    1    6 2
     3    1   17 1
     4    2    3 2
     5    2   15 1
     6    3    4 1
     7    3   19 1
     8    4    5 2
     9    4   13 1
    10    5    6 1
    11    5    8 1
    12    6    7 1
    13    7   10 2
    14    7   12 1
    15    8    9 1
    16    9   10 1
    17    9   11 2
    18   13   14 1
    19   15   16 1
    20   17   18 1
    21   19   20 1
    22    8   21 1
    23   10   22 1
    24   12   23 1
    25   12   24 1
    26   12   25 1
    27   14   26 1
    28   14   27 1
    29   14   28 1
    30   16   29 1
    31   16   30 1
    32   16   31 1
    33   18   32 1
    34   18   33 1
    35   18   34 1
    36   20   35 1
    37   20   36 1
    38   20   37 1
@<TRIPOS>PROPERTY_DATA
  Total_Score	| 2.3318
  Crash		| -2.9528
  Polar		| 1.8596
  FragIndex	| 1
  FragRMSD	| 0.425

