@<TRIPOS>MOLECULE
BindingDB_29219
 32 33 0 0 0
SMALL
NO_CHARGES


@<TRIPOS>ATOM
1    C        -0.9838   -7.7372  -16.6851  C     
2    C        -0.6955   -6.4328  -16.2620  C     
3    C        -1.6069   -5.7390  -15.4540  C     
4    C        -2.8187   -6.3660  -15.0817  C     
5    C        -3.0927   -7.7322  -15.4111  C     
6    C        -2.1759   -8.4033  -16.2893  C     
7    C        -2.4982   -9.6938  -16.7775  C     
8    N        -4.2081   -8.4662  -14.9447  N     
9    C        -4.4528   -9.6969  -15.4380  C     
10   C        -3.6396  -10.2802  -16.3553  C     
11   O        -5.4206  -10.3692  -15.0980  O     
12   C        -1.6533  -10.3884  -17.7571  C     
13   O        -3.7269   -5.5637  -14.4371  O     
14   C        -4.6367   -4.8984  -15.3376  C     
15   O        -1.4199   -4.4165  -15.1325  O     
16   C        -0.1840   -4.0560  -14.4858  C     
17   C        -5.0562   -7.9588  -13.8779  C     
18   H        -0.3010   -8.1864  -17.3019  H     
19   H         0.1660   -5.9649  -16.5864  H     
20   H        -3.8873  -11.1703  -16.7272  H     
21   H        -1.5545   -9.7766  -18.6579  H     
22   H        -2.0477  -11.3582  -18.0662  H     
23   H        -0.6579  -10.5662  -17.3391  H     
24   H        -4.1175   -4.2069  -16.0067  H     
25   H        -5.3412   -4.3167  -14.7414  H     
26   H        -5.2054   -5.6147  -15.9378  H     
27   H         0.0244   -4.6835  -13.6106  H     
28   H        -0.2736   -3.0190  -14.1609  H     
29   H         0.6512   -4.1133  -15.1942  H     
30   H        -4.4450   -7.6126  -13.0413  H     
31   H        -5.7531   -8.6839  -13.4552  H     
32   H        -5.6660   -7.1324  -14.2436  H     
@<TRIPOS>BOND
     1    1    2 1
     2    1    6 2
     3    2    3 2
     4    3    4 1
     5    3   15 1
     6    4    5 2
     7    4   13 1
     8    5    6 1
     9    5    8 1
    10    6    7 1
    11    7   10 2
    12    7   12 1
    13    8    9 1
    14    8   17 1
    15    9   10 1
    16    9   11 2
    17   13   14 1
    18   15   16 1
    19    1   18 1
    20    2   19 1
    21   10   20 1
    22   12   21 1
    23   12   22 1
    24   12   23 1
    25   14   24 1
    26   14   25 1
    27   14   26 1
    28   16   27 1
    29   16   28 1
    30   16   29 1
    31   17   30 1
    32   17   31 1
    33   17   32 1
@<TRIPOS>PROPERTY_DATA
  Total_Score	| 4.1723
  Crash		| -0.4326
  Polar		| 0.9394
  FragIndex	| 1
  FragRMSD	| 0.192

