@<TRIPOS>MOLECULE
BindingDB_29216
 25 26 0 0 0
SMALL
NO_CHARGES


@<TRIPOS>ATOM
1    C        -1.0293   -7.5821  -16.7357  C     
2    C        -0.8340   -6.2691  -16.2717  C     
3    C        -1.7896   -5.6764  -15.4325  C     
4    C        -2.9517   -6.3865  -15.0557  C     
5    C        -3.1213   -7.7197  -15.4912  C     
6    C        -2.1722   -8.3368  -16.3584  C     
7    C        -2.4298   -9.6693  -16.7777  C     
8    N        -4.2081   -8.4480  -15.0780  N     
9    C        -4.3956   -9.7060  -15.4489  C     
10   C        -3.5242  -10.3142  -16.2996  C     
11   O        -5.3646  -10.3053  -15.0051  O     
12   C        -1.5581  -10.3462  -17.7376  C     
13   O        -3.8674   -5.8126  -14.2134  O     
14   C        -4.8318   -4.9760  -14.8867  C     
15   H        -0.3141   -7.9846  -17.3428  H     
16   H         0.0027   -5.7451  -16.5483  H     
17   H        -1.6453   -4.7170  -15.1070  H     
18   H        -4.8422   -8.0460  -14.4644  H     
19   H        -3.7189  -11.2475  -16.5844  H     
20   H        -1.4962   -9.7637  -18.6580  H     
21   H        -1.9084  -11.3483  -18.0049  H     
22   H        -0.5551  -10.4477  -17.3189  H     
23   H        -4.3377   -4.1140  -15.3540  H     
24   H        -5.5364   -4.6026  -14.1354  H     
25   H        -5.3949   -5.5337  -15.6476  H     
@<TRIPOS>BOND
     1    1    2 1
     2    1    6 2
     3    2    3 2
     4    3    4 1
     5    4    5 2
     6    4   13 1
     7    5    6 1
     8    5    8 1
     9    6    7 1
    10    7   10 2
    11    7   12 1
    12    8    9 1
    13    9   10 1
    14    9   11 2
    15   13   14 1
    16    1   15 1
    17    2   16 1
    18    3   17 1
    19    8   18 1
    20   10   19 1
    21   12   20 1
    22   12   21 1
    23   12   22 1
    24   14   23 1
    25   14   24 1
    26   14   25 1
@<TRIPOS>PROPERTY_DATA
  Total_Score	| 2.9346
  Crash		| -0.2730
  Polar		| 1.0605
  FragIndex	| 1
  FragRMSD	| 0.204

