@<TRIPOS>MOLECULE
BindingDB_29223
 32 33 0 0 0
SMALL
NO_CHARGES


@<TRIPOS>ATOM
1    C        -1.0857   -7.4546  -15.4387  C     
2    C        -1.1213   -6.0444  -15.4049  C     
3    C        -2.3315   -5.3811  -15.6505  C     
4    C        -3.5576   -6.0952  -15.6138  C     
5    C        -3.5423   -7.5104  -15.4592  C     
6    C        -2.2939   -8.1567  -15.6353  C     
7    C        -2.3309   -9.4485  -16.1687  C     
8    N        -4.6469   -8.3422  -15.1932  N     
9    C        -4.5409   -9.6774  -15.3939  C     
10   C        -3.4077  -10.2219  -15.9294  C     
11   O        -5.4722  -10.4454  -15.2065  O     
12   C        -1.5137   -9.7266  -17.3445  C     
13   O        -4.7448   -5.5050  -15.9637  O     
14   C        -4.9516   -4.1093  -15.6782  C     
15   O         0.0372   -8.1661  -15.1082  O     
16   C         0.4859   -8.0737  -13.7519  C     
17   C        -5.8208   -7.8394  -14.5075  C     
18   H        -0.2607   -5.5087  -15.2774  H     
19   H        -2.3203   -4.3681  -15.7672  H     
20   H        -3.4366  -11.1463  -16.3015  H     
21   H        -2.1203  -10.0890  -18.1801  H     
22   H        -0.7568  -10.4693  -17.1209  H     
23   H        -1.0240   -8.7933  -17.6930  H     
24   H        -4.7377   -3.8806  -14.6290  H     
25   H        -5.9991   -3.8787  -15.8786  H     
26   H        -4.3366   -3.4862  -16.3266  H     
27   H         1.2523   -8.8293  -13.6348  H     
28   H        -0.3323   -8.3157  -13.0747  H     
29   H         0.9431   -7.1087  -13.4643  H     
30   H        -5.6870   -6.8446  -14.0830  H     
31   H        -6.0870   -8.4815  -13.6632  H     
32   H        -6.6618   -7.8104  -15.2044  H     
@<TRIPOS>BOND
     1    1    2 1
     2    1    6 2
     3    1   15 1
     4    2    3 2
     5    3    4 1
     6    4    5 2
     7    4   13 1
     8    5    6 1
     9    5    8 1
    10    6    7 1
    11    7   10 2
    12    7   12 1
    13    8    9 1
    14    8   17 1
    15    9   10 1
    16    9   11 2
    17   13   14 1
    18   15   16 1
    19    2   18 1
    20    3   19 1
    21   10   20 1
    22   12   21 1
    23   12   22 1
    24   12   23 1
    25   14   24 1
    26   14   25 1
    27   14   26 1
    28   16   27 1
    29   16   28 1
    30   16   29 1
    31   17   30 1
    32   17   31 1
    33   17   32 1
@<TRIPOS>PROPERTY_DATA
  Total_Score	| 2.7069
  Crash		| -1.7206
  Polar		| 1.1407
  FragIndex	| 1
  FragRMSD	| 0.789

