@<TRIPOS>MOLECULE
BindingDB_29225
 36 37 0 0 0
SMALL
NO_CHARGES


@<TRIPOS>ATOM
1    C        -1.0202   -7.5520  -16.4502  C     
2    C        -0.7781   -6.2680  -15.9415  C     
3    C        -1.7828   -5.6218  -15.2046  C     
4    C        -3.0394   -6.2434  -15.0208  C     
5    C        -3.2405   -7.6137  -15.3834  C     
6    C        -2.2378   -8.2408  -16.1984  C     
7    C        -2.4861   -9.5383  -16.6993  C     
8    N        -4.3520   -8.3868  -14.9704  N     
9    C        -4.4776   -9.6540  -15.4268  C     
10   C        -3.6032  -10.1927  -16.3109  C     
11   O        -5.3670  -10.4208  -15.0528  O     
12   C        -1.5999  -10.1638  -17.6891  C     
13   O        -3.9846   -5.4593  -14.4003  O     
14   C        -4.9096   -4.8458  -15.3363  C     
15   O        -1.5206   -4.3577  -14.7367  O     
16   O         0.4400   -5.6755  -16.1741  O     
17   C         0.3528   -4.5178  -17.0263  C     
18   C        -0.6791   -4.3617  -13.5489  C     
19   C        -5.2786   -7.9194  -13.9476  C     
20   H        -0.2661   -8.0037  -16.9705  H     
21   H        -3.7618  -11.1189  -16.6542  H     
22   H        -1.4565   -9.4966  -18.5463  H     
23   H        -1.9648  -11.1119  -18.0799  H     
24   H        -0.6271  -10.3542  -17.2307  H     
25   H        -4.4044   -4.0959  -15.9717  H     
26   H        -5.6798   -4.3288  -14.7487  H     
27   H        -5.4075   -5.5760  -15.9768  H     
28   H        -0.0759   -4.7748  -17.9970  H     
29   H         1.3621   -4.1341  -17.1883  H     
30   H        -0.2382   -3.7227  -16.5651  H     
31   H        -1.2021   -4.8708  -12.7140  H     
32   H        -0.4808   -3.3194  -13.2676  H     
33   H         0.2917   -4.8540  -13.7187  H     
34   H        -4.7330   -7.5048  -13.0972  H     
35   H        -5.9389   -8.6869  -13.5239  H     
36   H        -5.9304   -7.1525  -14.3658  H     
@<TRIPOS>BOND
     1    1    2 1
     2    1    6 2
     3    2    3 2
     4    2   16 1
     5    3    4 1
     6    3   15 1
     7    4    5 2
     8    4   13 1
     9    5    6 1
    10    5    8 1
    11    6    7 1
    12    7   10 2
    13    7   12 1
    14    8    9 1
    15    8   19 1
    16    9   10 1
    17    9   11 2
    18   13   14 1
    19   15   18 1
    20   16   17 1
    21    1   20 1
    22   10   21 1
    23   12   22 1
    24   12   23 1
    25   12   24 1
    26   14   25 1
    27   14   26 1
    28   14   27 1
    29   17   28 1
    30   17   29 1
    31   17   30 1
    32   18   31 1
    33   18   32 1
    34   18   33 1
    35   19   34 1
    36   19   35 1
    37   19   36 1
@<TRIPOS>PROPERTY_DATA
  Total_Score	| 5.7581
  Crash		| -0.4231
  Polar		| 2.2082
  FragIndex	| 1
  FragRMSD	| 0.071

