@<TRIPOS>MOLECULE
BindingDB_29218
 29 30 0 0 0
SMALL
NO_CHARGES


@<TRIPOS>ATOM
1    C        -1.0484   -7.5645  -16.7546  C     
2    C        -0.8485   -6.2462  -16.3381  C     
3    C        -1.8283   -5.5783  -15.5941  C     
4    C        -3.0409   -6.2313  -15.2654  C     
5    C        -3.1902   -7.6034  -15.5905  C     
6    C        -2.2116   -8.2735  -16.3778  C     
7    C        -2.4603   -9.6228  -16.7541  C     
8    N        -4.2576   -8.3328  -15.1296  N     
9    C        -4.3989   -9.6318  -15.3988  C     
10   C        -3.5330  -10.2662  -16.2403  C     
11   O        -5.2972  -10.2595  -14.8645  O     
12   C        -1.6075  -10.3058  -17.7262  C     
13   O        -3.9957   -5.5461  -14.5541  O     
14   C        -5.2275   -5.2516  -15.2589  C     
15   O        -1.5948   -4.2760  -15.2242  O     
16   C        -2.1278   -3.3674  -16.2086  C     
17   H        -0.3225   -7.9942  -17.3189  H     
18   H         0.0129   -5.7616  -16.5935  H     
19   H        -4.9023   -7.8986  -14.5502  H     
20   H        -3.7347  -11.2095  -16.5007  H     
21   H        -1.5571   -9.7230  -18.6462  H     
22   H        -1.9589  -11.3078  -17.9899  H     
23   H        -0.5963  -10.4078  -17.3332  H     
24   H        -5.1192   -4.4508  -15.9975  H     
25   H        -5.9643   -4.9232  -14.5127  H     
26   H        -5.6402   -6.1323  -15.7578  H     
27   H        -1.5600   -3.4061  -17.1414  H     
28   H        -2.0811   -2.3476  -15.8292  H     
29   H        -3.1579   -3.6125  -16.4300  H     
@<TRIPOS>BOND
     1    1    2 1
     2    1    6 2
     3    2    3 2
     4    3    4 1
     5    3   15 1
     6    4    5 2
     7    4   13 1
     8    5    6 1
     9    5    8 1
    10    6    7 1
    11    7   10 2
    12    7   12 1
    13    8    9 1
    14    9   10 1
    15    9   11 2
    16   13   14 1
    17   15   16 1
    18    1   17 1
    19    2   18 1
    20    8   19 1
    21   10   20 1
    22   12   21 1
    23   12   22 1
    24   12   23 1
    25   14   24 1
    26   14   25 1
    27   14   26 1
    28   16   27 1
    29   16   28 1
    30   16   29 1
@<TRIPOS>PROPERTY_DATA
  Total_Score	| 3.4636
  Crash		| -0.3048
  Polar		| 1.1048
  FragIndex	| 1
  FragRMSD	| 0.279

