@<TRIPOS>MOLECULE
BindingDB_29222
 29 30 0 0 0
SMALL
NO_CHARGES


@<TRIPOS>ATOM
1    C        -1.7739   -6.7054  -16.5779  C     
2    C        -1.5679   -5.5401  -15.8062  C     
3    C        -2.3374   -5.3069  -14.6623  C     
4    C        -3.3181   -6.2381  -14.2827  C     
5    C        -3.3983   -7.4813  -14.9502  C     
6    C        -2.5874   -7.7666  -16.0886  C     
7    C        -2.6980   -9.0721  -16.6574  C     
8    N        -4.3059   -8.4163  -14.5328  N     
9    C        -4.4302   -9.5972  -15.1255  C     
10   C        -3.6248   -9.9353  -16.1718  C     
11   O        -5.2640  -10.3824  -14.6991  O     
12   C        -1.7560   -9.5545  -17.6695  C     
13   O        -4.1865   -5.9164  -13.2753  O     
14   C        -5.2803   -5.0924  -13.7320  C     
15   O        -1.3567   -6.6777  -17.8849  O     
16   C        -2.0262   -5.6448  -18.6606  C     
17   H        -0.9506   -4.7994  -16.1491  H     
18   H        -2.2492   -4.4182  -14.1623  H     
19   H        -4.8827   -8.2077  -13.7795  H     
20   H        -3.7109  -10.8535  -16.5524  H     
21   H        -1.8942   -8.9966  -18.5908  H     
22   H        -1.8781  -10.6142  -17.9157  H     
23   H        -0.7304   -9.4184  -17.3188  H     
24   H        -4.9246   -4.1234  -14.0939  H     
25   H        -5.9481   -4.9151  -12.8882  H     
26   H        -5.8613   -5.5838  -14.5195  H     
27   H        -2.0753   -5.9560  -19.7043  H     
28   H        -1.4467   -4.7207  -18.6123  H     
29   H        -3.0522   -5.4316  -18.3340  H     
@<TRIPOS>BOND
     1    1    2 1
     2    1    6 2
     3    1   15 1
     4    2    3 2
     5    3    4 1
     6    4    5 2
     7    4   13 1
     8    5    6 1
     9    5    8 1
    10    6    7 1
    11    7   10 2
    12    7   12 1
    13    8    9 1
    14    9   10 1
    15    9   11 2
    16   13   14 1
    17   15   16 1
    18    2   17 1
    19    3   18 1
    20    8   19 1
    21   10   20 1
    22   12   21 1
    23   12   22 1
    24   12   23 1
    25   14   24 1
    26   14   25 1
    27   14   26 1
    28   16   27 1
    29   16   28 1
    30   16   29 1
@<TRIPOS>PROPERTY_DATA
  Total_Score	| 1.7055
  Crash		| -2.0811
  Polar		| 1.0672
  FragIndex	| 1
  FragRMSD	| 0.836

