@<TRIPOS>MOLECULE
BindingDB_29229
 40 41 0 0 0
SMALL
NO_CHARGES


@<TRIPOS>ATOM
1    C        -1.5548   -7.3109  -16.5921  C     
2    C        -1.6193   -5.8999  -16.5549  C     
3    C        -2.7988   -5.2828  -16.0879  C     
4    C        -3.8852   -6.0687  -15.6310  C     
5    C        -3.8155   -7.4947  -15.6386  C     
6    C        -2.6921   -8.1091  -16.2795  C     
7    C        -2.7960   -9.4868  -16.6336  C     
8    N        -4.8042   -8.3430  -15.0841  N     
9    C        -4.7816   -9.6645  -15.3576  C     
10   C        -3.8309  -10.2088  -16.1584  C     
11   O        -5.6179  -10.4471  -14.9166  O     
12   C        -1.9345  -10.1258  -17.6403  C     
13   O        -5.1181   -5.4754  -15.4898  O     
14   C        -5.3461   -4.5217  -14.4403  C     
15   O        -0.7208   -5.1147  -17.2455  O     
16   C         0.6052   -4.8998  -16.7349  C     
17   O        -0.3701   -7.8913  -16.9418  O     
18   C         0.1974   -8.6668  -15.8633  C     
19   O        -2.9671   -3.9241  -16.2009  O     
20   C        -2.2628   -3.1227  -15.2311  C     
21   C        -5.7551   -7.8511  -14.0978  C     
22   H        -3.9297  -11.1675  -16.4203  H     
23   H        -1.8012   -9.4576  -18.4938  H     
24   H        -2.3397  -11.0628  -18.0343  H     
25   H        -0.9621  -10.3597  -17.2120  H     
26   H        -4.7193   -4.6932  -13.5617  H     
27   H        -6.3878   -4.6015  -14.1336  H     
28   H        -5.2023   -3.5127  -14.8167  H     
29   H         0.6025   -4.5282  -15.7127  H     
30   H         1.0987   -4.1586  -17.3660  H     
31   H         1.1977   -5.8097  -16.7840  H     
32   H        -0.5174   -9.3422  -15.3851  H     
33   H         0.6227   -8.0207  -15.0946  H     
34   H         0.9869   -9.2816  -16.2956  H     
35   H        -2.2581   -3.5508  -14.2258  H     
36   H        -2.7504   -2.1498  -15.1832  H     
37   H        -1.2345   -2.9654  -15.5382  H     
38   H        -5.2475   -7.2217  -13.3663  H     
39   H        -6.2561   -8.6298  -13.5207  H     
40   H        -6.5438   -7.2847  -14.5936  H     
@<TRIPOS>BOND
     1    1    2 1
     2    1    6 2
     3    1   17 1
     4    2    3 2
     5    2   15 1
     6    3    4 1
     7    3   19 1
     8    4    5 2
     9    4   13 1
    10    5    6 1
    11    5    8 1
    12    6    7 1
    13    7   10 2
    14    7   12 1
    15    8    9 1
    16    8   21 1
    17    9   10 1
    18    9   11 2
    19   13   14 1
    20   15   16 1
    21   17   18 1
    22   19   20 1
    23   10   22 1
    24   12   23 1
    25   12   24 1
    26   12   25 1
    27   14   26 1
    28   14   27 1
    29   14   28 1
    30   16   29 1
    31   16   30 1
    32   16   31 1
    33   18   32 1
    34   18   33 1
    35   18   34 1
    36   20   35 1
    37   20   36 1
    38   20   37 1
    39   21   38 1
    40   21   39 1
    41   21   40 1
@<TRIPOS>PROPERTY_DATA
  Total_Score	| 3.0727
  Crash		| -2.3653
  Polar		| 1.1686
  FragIndex	| 1
  FragRMSD	| 0.886

