@<TRIPOS>MOLECULE
BindingDB_29224
 33 34 0 0 0
SMALL
NO_CHARGES


@<TRIPOS>ATOM
1    C        -1.0161   -7.5317  -16.5479  C     
2    C        -0.8736   -6.2085  -16.0948  C     
3    C        -1.9680   -5.5334  -15.4982  C     
4    C        -3.1415   -6.2665  -15.1938  C     
5    C        -3.2278   -7.6368  -15.5485  C     
6    C        -2.2033   -8.2622  -16.3159  C     
7    C        -2.4031   -9.6030  -16.7393  C     
8    N        -4.2740   -8.4148  -15.1186  N     
9    C        -4.3712   -9.7056  -15.4202  C     
10   C        -3.4720  -10.2887  -16.2640  C     
11   O        -5.2772  -10.3614  -14.9261  O     
12   C        -1.5217  -10.2289  -17.7295  C     
13   O        -4.1180   -5.6667  -14.4378  O     
14   C        -5.3077   -5.2966  -15.1599  C     
15   O        -1.8469   -4.2116  -15.1211  O     
16   O         0.3994   -5.7053  -16.1177  O     
17   C         0.5608   -4.5042  -16.8703  C     
18   C        -2.5858   -3.2303  -15.9007  C     
19   H        -0.2139   -7.9753  -17.0045  H     
20   H        -4.9352   -8.0249  -14.5241  H     
21   H        -3.6319  -11.2304  -16.5479  H     
22   H        -1.4940   -9.6148  -18.6329  H     
23   H        -1.8430  -11.2314  -18.0258  H     
24   H        -0.5086  -10.3139  -17.3316  H     
25   H        -5.0906   -4.5953  -15.9646  H     
26   H        -5.9900   -4.8127  -14.4630  H     
27   H        -5.8133   -6.1693  -15.5732  H     
28   H         0.1398   -4.5907  -17.8772  H     
29   H         1.6272   -4.2789  -16.9477  H     
30   H         0.0780   -3.7035  -16.3244  H     
31   H        -1.9193   -2.5063  -16.4059  H     
32   H        -3.2128   -2.6665  -15.2054  H     
33   H        -3.2308   -3.6754  -16.6656  H     
@<TRIPOS>BOND
     1    1    2 1
     2    1    6 2
     3    2    3 2
     4    2   16 1
     5    3    4 1
     6    3   15 1
     7    4    5 2
     8    4   13 1
     9    5    6 1
    10    5    8 1
    11    6    7 1
    12    7   10 2
    13    7   12 1
    14    8    9 1
    15    9   10 1
    16    9   11 2
    17   13   14 1
    18   15   18 1
    19   16   17 1
    20    1   19 1
    21    8   20 1
    22   10   21 1
    23   12   22 1
    24   12   23 1
    25   12   24 1
    26   14   25 1
    27   14   26 1
    28   14   27 1
    29   17   28 1
    30   17   29 1
    31   17   30 1
    32   18   31 1
    33   18   32 1
    34   18   33 1
@<TRIPOS>PROPERTY_DATA
  Total_Score	| 5.3214
  Crash		| -0.3717
  Polar		| 2.3049
  FragIndex	| 1
  FragRMSD	| 0.253

