@<TRIPOS>MOLECULE
BindingDB_29221
 32 33 0 0 0
SMALL
NO_CHARGES


@<TRIPOS>ATOM
1    C        -1.0004   -7.6062  -16.4849  C     
2    C        -0.7710   -6.3010  -16.0237  C     
3    C        -1.7768   -5.6482  -15.3029  C     
4    C        -3.0106   -6.2817  -15.0451  C     
5    C        -3.2194   -7.6553  -15.3929  C     
6    C        -2.2127   -8.2947  -16.1971  C     
7    C        -2.4644   -9.6008  -16.6762  C     
8    N        -4.3261   -8.4257  -14.9623  N     
9    C        -4.4405   -9.7047  -15.3746  C     
10   C        -3.5566  -10.2698  -16.2355  C     
11   O        -5.3717  -10.4260  -15.0246  O     
12   C        -1.6168  -10.2358  -17.6987  C     
13   O        -3.9377   -5.4975  -14.4109  O     
14   C        -4.7734   -4.7437  -15.3067  C     
15   O         0.4441   -5.6998  -16.2339  O     
16   C         0.3537   -4.4862  -16.9988  C     
17   C        -5.3070   -7.8915  -14.0280  C     
18   H        -0.2549   -8.0407  -17.0322  H     
19   H        -1.6196   -4.6857  -14.9847  H     
20   H        -3.7427  -11.1876  -16.5791  H     
21   H        -1.5500   -9.5816  -18.5759  H     
22   H        -1.9914  -11.2045  -18.0487  H     
23   H        -0.6094  -10.4000  -17.3017  H     
24   H        -4.1913   -4.0408  -15.9024  H     
25   H        -5.4797   -4.1672  -14.7147  H     
26   H        -5.3421   -5.3994  -15.9672  H     
27   H        -0.1327   -4.6568  -17.9620  H     
28   H         1.3660   -4.1279  -17.1823  H     
29   H        -0.1872   -3.7112  -16.4515  H     
30   H        -4.7977   -7.4847  -13.1536  H     
31   H        -6.0169   -8.6226  -13.6382  H     
32   H        -5.8900   -7.1060  -14.5138  H     
@<TRIPOS>BOND
     1    1    2 1
     2    1    6 2
     3    2    3 2
     4    2   15 1
     5    3    4 1
     6    4    5 2
     7    4   13 1
     8    5    6 1
     9    5    8 1
    10    6    7 1
    11    7   10 2
    12    7   12 1
    13    8    9 1
    14    8   17 1
    15    9   10 1
    16    9   11 2
    17   13   14 1
    18   15   16 1
    19    1   18 1
    20    3   19 1
    21   10   20 1
    22   12   21 1
    23   12   22 1
    24   12   23 1
    25   14   24 1
    26   14   25 1
    27   14   26 1
    28   16   27 1
    29   16   28 1
    30   16   29 1
    31   17   30 1
    32   17   31 1
    33   17   32 1
@<TRIPOS>PROPERTY_DATA
  Total_Score	| 5.6233
  Crash		| -0.2656
  Polar		| 2.2371
  FragIndex	| 1
  FragRMSD	| 0.066

