@<TRIPOS>MOLECULE
BindingDB_29226
 33 34 0 0 0
SMALL
NO_CHARGES


@<TRIPOS>ATOM
1    C        -1.2957   -7.2424  -16.3385  C     
2    C        -0.8170   -6.1645  -15.5735  C     
3    C        -1.4826   -5.8289  -14.3883  C     
4    C        -2.5818   -6.5897  -13.9339  C     
5    C        -2.9280   -7.7801  -14.6205  C     
6    C        -2.2360   -8.1683  -15.8050  C     
7    C        -2.6285   -9.3732  -16.4589  C     
8    N        -3.9917   -8.5462  -14.2149  N     
9    C        -4.3666   -9.6465  -14.8622  C     
10   C        -3.6884  -10.0667  -15.9716  C     
11   O        -5.3288  -10.2769  -14.4453  O     
12   C        -1.8716   -9.9073  -17.6047  C     
13   O        -3.3703   -6.1266  -12.9105  O     
14   C        -2.8330   -5.0241  -12.1590  C     
15   O         0.3010   -5.4709  -15.9557  O     
16   C         0.1046   -4.4876  -16.9862  C     
17   O        -1.0995   -7.1263  -17.6858  O     
18   C        -2.1461   -6.3007  -18.2609  C     
19   H        -1.1947   -4.9843  -13.8927  H     
20   H        -4.4992   -8.2676  -13.4352  H     
21   H        -3.9758  -10.9147  -16.4070  H     
22   H        -1.9395   -9.2461  -18.4844  H     
23   H        -2.2087  -10.8993  -17.9143  H     
24   H        -0.8207  -10.0017  -17.3224  H     
25   H        -1.9037   -5.3102  -11.6602  H     
26   H        -3.5635   -4.7359  -11.4034  H     
27   H        -2.6463   -4.1447  -12.7743  H     
28   H        -0.0937   -4.9591  -17.9507  H     
29   H         1.0277   -3.9154  -17.0793  H     
30   H        -0.7055   -3.7936  -16.7437  H     
31   H        -3.1368   -6.7554  -18.0746  H     
32   H        -1.9875   -6.2320  -19.3348  H     
33   H        -2.1350   -5.2836  -17.8569  H     
@<TRIPOS>BOND
     1    1    2 1
     2    1    6 2
     3    1   17 1
     4    2    3 2
     5    2   15 1
     6    3    4 1
     7    4    5 2
     8    4   13 1
     9    5    6 1
    10    5    8 1
    11    6    7 1
    12    7   10 2
    13    7   12 1
    14    8    9 1
    15    9   10 1
    16    9   11 2
    17   13   14 1
    18   15   16 1
    19   17   18 1
    20    3   19 1
    21    8   20 1
    22   10   21 1
    23   12   22 1
    24   12   23 1
    25   12   24 1
    26   14   25 1
    27   14   26 1
    28   14   27 1
    29   16   28 1
    30   16   29 1
    31   16   30 1
    32   18   31 1
    33   18   32 1
    34   18   33 1
@<TRIPOS>PROPERTY_DATA
  Total_Score	| 2.9595
  Crash		| -2.6094
  Polar		| 2.1393
  FragIndex	| 1
  FragRMSD	| 1.157

