@<TRIPOS>MOLECULE
BindingDB_29220
 29 30 0 0 0
SMALL
NO_CHARGES


@<TRIPOS>ATOM
1    C        -0.9802   -7.6203  -16.5515  C     
2    C        -0.7584   -6.3319  -16.0288  C     
3    C        -1.7187   -5.7418  -15.1869  C     
4    C        -2.9260   -6.4198  -14.8748  C     
5    C        -3.1157   -7.7256  -15.3872  C     
6    C        -2.1593   -8.3411  -16.2486  C     
7    C        -2.4337   -9.6495  -16.7305  C     
8    N        -4.2222   -8.4512  -15.0252  N     
9    C        -4.4131   -9.7004  -15.4270  C     
10   C        -3.5369  -10.2952  -16.2838  C     
11   O        -5.4036  -10.2876  -15.0157  O     
12   C        -1.5721  -10.3029  -17.7180  C     
13   O        -3.9233   -5.9297  -14.0574  O     
14   C        -4.9983   -5.1224  -14.5770  C     
15   O         0.4165   -5.6773  -16.2905  O     
16   C         0.2312   -4.4845  -17.0706  C     
17   H        -0.2536   -8.0212  -17.1481  H     
18   H        -1.5363   -4.8081  -14.8101  H     
19   H        -4.8673   -8.0519  -14.4217  H     
20   H        -3.7400  -11.2164  -16.5926  H     
21   H        -1.4976   -9.6741  -18.6058  H     
22   H        -1.9365  -11.2812  -18.0398  H     
23   H        -0.5766  -10.4442  -17.2977  H     
24   H        -4.6126   -4.1536  -14.9055  H     
25   H        -5.7189   -4.9555  -13.7734  H     
26   H        -5.5107   -5.6241  -15.4047  H     
27   H        -0.2467   -4.7189  -18.0263  H     
28   H         1.2103   -4.0454  -17.2681  H     
29   H        -0.3782   -3.7419  -16.5436  H     
@<TRIPOS>BOND
     1    1    2 1
     2    1    6 2
     3    2    3 2
     4    2   15 1
     5    3    4 1
     6    4    5 2
     7    4   13 1
     8    5    6 1
     9    5    8 1
    10    6    7 1
    11    7   10 2
    12    7   12 1
    13    8    9 1
    14    9   10 1
    15    9   11 2
    16   13   14 1
    17   15   16 1
    18    1   17 1
    19    3   18 1
    20    8   19 1
    21   10   20 1
    22   12   21 1
    23   12   22 1
    24   12   23 1
    25   14   24 1
    26   14   25 1
    27   14   26 1
    28   16   27 1
    29   16   28 1
    30   16   29 1
@<TRIPOS>PROPERTY_DATA
  Total_Score	| 4.7532
  Crash		| -0.2712
  Polar		| 2.1660
  FragIndex	| 1
  FragRMSD	| 0.239

