@<TRIPOS>MOLECULE
BindingDB_29213
 27 29 0 0 0
SMALL
NO_CHARGES


@<TRIPOS>ATOM
1    C        -1.2268   -7.4807  -16.7663  C     
2    C        -1.0668   -6.1376  -16.3873  C     
3    C        -2.0345   -5.5411  -15.5737  C     
4    C        -3.1254   -6.2676  -15.1191  C     
5    C        -3.3247   -7.6338  -15.4668  C     
6    C        -2.3488   -8.2435  -16.3314  C     
7    C        -2.5473   -9.5838  -16.7339  C     
8    N        -4.4030   -8.4147  -15.0023  N     
9    C        -4.4951   -9.7064  -15.3807  C     
10   C        -3.6122  -10.2627  -16.2570  C     
11   O        -5.3844  -10.4507  -14.9713  O     
12   O        -2.0430   -4.2621  -15.1526  O     
13   C        -3.0955   -4.3041  -14.1771  C     
14   O        -3.9124   -5.4634  -14.3678  O     
15   C        -1.6326  -10.2597  -17.6658  C     
16   C        -5.3920   -7.8579  -14.0911  C     
17   H        -0.4993   -7.8842  -17.3640  H     
18   H        -0.2617   -5.5996  -16.7090  H     
19   H        -3.7734  -11.2031  -16.5532  H     
20   H        -2.6528   -4.3343  -13.1782  H     
21   H        -3.7193   -3.4091  -14.2545  H     
22   H        -1.5506   -9.6871  -18.5916  H     
23   H        -1.9504  -11.2678  -17.9417  H     
24   H        -0.6434  -10.3414  -17.2085  H     
25   H        -4.9003   -7.5166  -13.1817  H     
26   H        -6.1782   -8.5486  -13.7780  H     
27   H        -5.8965   -7.0196  -14.5696  H     
@<TRIPOS>BOND
     1    1    2 1
     2    1    6 2
     3    2    3 2
     4    3    4 1
     5    3   12 1
     6    4    5 2
     7    4   14 1
     8    5    6 1
     9    5    8 1
    10    6    7 1
    11    7   10 2
    12    7   15 1
    13    8    9 1
    14    8   16 1
    15    9   10 1
    16    9   11 2
    17   12   13 1
    18   13   14 1
    19    1   17 1
    20    2   18 1
    21   10   19 1
    22   13   20 1
    23   13   21 1
    24   15   22 1
    25   15   23 1
    26   15   24 1
    27   16   25 1
    28   16   26 1
    29   16   27 1
@<TRIPOS>PROPERTY_DATA
  Total_Score	| 3.5333
  Crash		| -0.1539
  Polar		| 1.1140
  FragIndex	| 1
  FragRMSD	| 0.582

