@<TRIPOS>MOLECULE
BindingDB_29227
 36 37 0 0 0
SMALL
NO_CHARGES


@<TRIPOS>ATOM
1    C        -1.1642   -7.4647  -16.0016  C     
2    C        -1.1003   -6.0747  -15.7966  C     
3    C        -2.2719   -5.3838  -15.4631  C     
4    C        -3.4930   -6.0695  -15.3140  C     
5    C        -3.5673   -7.4846  -15.5013  C     
6    C        -2.4105   -8.1466  -16.0266  C     
7    C        -2.5502   -9.4715  -16.5121  C     
8    N        -4.6742   -8.2924  -15.1502  N     
9    C        -4.6890   -9.5980  -15.5043  C     
10   C        -3.6871  -10.1472  -16.2415  C     
11   O        -5.5968  -10.3618  -15.1887  O     
12   C        -1.5947  -10.0579  -17.4628  C     
13   O        -4.5783   -5.3106  -14.9706  O     
14   C        -5.0466   -4.4640  -16.0354  C     
15   O         0.1151   -5.4414  -15.8421  O     
16   C         0.2163   -4.4848  -16.9086  C     
17   O         0.0081   -8.1683  -15.9405  O     
18   C         0.3057   -8.5462  -14.5765  C     
19   C        -5.7101   -7.7881  -14.2604  C     
20   H        -2.2276   -4.3771  -15.2936  H     
21   H        -3.8075  -11.0717  -16.5938  H     
22   H        -1.3596   -9.3361  -18.2470  H     
23   H        -1.9716  -10.9562  -17.9611  H     
24   H        -0.6736  -10.3421  -16.9560  H     
25   H        -4.3600   -3.6270  -16.1944  H     
26   H        -6.0176   -4.0606  -15.7442  H     
27   H        -5.1697   -5.0054  -16.9753  H     
28   H        -0.0176   -4.9371  -17.8748  H     
29   H         1.2413   -4.1185  -16.9410  H     
30   H        -0.4478   -3.6340  -16.7401  H     
31   H         0.6773   -7.6900  -14.0100  H     
32   H         1.0816   -9.3011  -14.5950  H     
33   H        -0.5521   -8.9760  -14.0519  H     
34   H        -5.2540   -7.2897  -13.4018  H     
35   H        -6.3691   -8.5529  -13.8415  H     
36   H        -6.3497   -7.0817  -14.7958  H     
@<TRIPOS>BOND
     1    1    2 1
     2    1    6 2
     3    1   17 1
     4    2    3 2
     5    2   15 1
     6    3    4 1
     7    4    5 2
     8    4   13 1
     9    5    6 1
    10    5    8 1
    11    6    7 1
    12    7   10 2
    13    7   12 1
    14    8    9 1
    15    8   19 1
    16    9   10 1
    17    9   11 2
    18   13   14 1
    19   15   16 1
    20   17   18 1
    21    3   20 1
    22   10   21 1
    23   12   22 1
    24   12   23 1
    25   12   24 1
    26   14   25 1
    27   14   26 1
    28   14   27 1
    29   16   28 1
    30   16   29 1
    31   16   30 1
    32   18   31 1
    33   18   32 1
    34   18   33 1
    35   19   34 1
    36   19   35 1
    37   19   36 1
@<TRIPOS>PROPERTY_DATA
  Total_Score	| 3.4627
  Crash		| -3.0261
  Polar		| 2.0023
  FragIndex	| 1
  FragRMSD	| 0.510

