@<TRIPOS>MOLECULE
BindingDB_29935
 82 84 0 0 0
SMALL
NO_CHARGES


@<TRIPOS>ATOM
1    C        31.2862   -7.8667  -14.7186  C     
2    C        32.0723   -8.4111  -13.6777  C     
3    C        33.4128   -8.7900  -13.8971  C     
4    C        33.9829   -8.6519  -15.1810  C     
5    C        33.2148   -8.1221  -16.2330  C     
6    C        31.8782   -7.7405  -16.0031  C     
7    C        29.8420   -7.5280  -14.4678  C     
8    C        29.0200   -8.7536  -13.9251  C     
9    O        29.7687   -6.4720  -13.4844  O     
10   C        29.9081   -5.1149  -13.9451  C     
11   C        29.5392   -4.1525  -12.7922  C     
12   C        28.0279   -3.8254  -12.7183  C     
13   O        27.7822   -2.5078  -13.2578  O     
14   C        28.0584  -11.1049  -14.4480  C     
15   C        28.8962   -9.9079  -14.9723  C     
16   C        27.5826   -8.3865  -13.4251  C     
17   N        26.9490   -9.5796  -12.8704  N     
18   C        26.7119  -10.6342  -13.8469  C     
19   C        26.7905   -9.7872  -11.5483  C     
20   O        26.5246  -10.9105  -11.1290  O     
21   N        26.9711   -8.8278  -10.6454  N     
22   C        27.0171   -8.9397   -9.2117  C     
23   C        25.6000   -8.6183   -8.6449  C     
24   N        25.4607   -8.5795   -7.1700  N     
25   C        28.1153   -7.9699   -8.6701  C     
26   C        29.5034   -8.0280   -9.3922  C     
27   C        30.2862   -6.6913   -9.2204  C     
28   C        30.3910   -9.2179   -8.9184  C     
29   C        31.7608   -9.2543   -9.6494  C     
30   C        32.5176   -7.9101   -9.5410  C     
31   C        31.6376   -6.7143   -9.9803  C     
32   C        25.9375   -9.7546   -6.4201  C     
33   C        26.5706   -1.8618  -12.8312  C     
34   C        25.3250   -2.7099  -13.1456  C     
35   Cl       34.3193   -9.4630  -12.6388  Cl    
36   H        31.6569   -8.5598  -12.7528  H     
37   H        34.9469   -8.9424  -15.3558  H     
38   H        33.6157   -8.0568  -17.1717  H     
39   H        31.3499   -7.3669  -16.7942  H     
40   H        29.3591   -7.1888  -15.3922  H     
41   H        29.5509   -9.1533  -13.0525  H     
42   H        30.9463   -4.9237  -14.2302  H     
43   H        29.2606   -4.9336  -14.8062  H     
44   H        29.8546   -4.6122  -11.8499  H     
45   H        30.1064   -3.2228  -12.9101  H     
46   H        27.4479   -4.5972  -13.2419  H     
47   H        27.7294   -3.8352  -11.6677  H     
48   H        27.8687  -11.8058  -15.2663  H     
49   H        28.6285  -11.6337  -13.6761  H     
50   H        28.4302   -9.5233  -15.8877  H     
51   H        29.8851  -10.2949  -15.2295  H     
52   H        27.6552   -7.5726  -12.7066  H     
53   H        26.9836   -7.9986  -14.2570  H     
54   H        26.0644  -10.2507  -14.6443  H     
55   H        26.1966  -11.5074  -13.4363  H     
56   H        27.0793   -7.9319  -10.9833  H     
57   H        27.2831   -9.9629   -8.9252  H     
58   H        25.2881   -7.6382   -9.0129  H     
59   H        24.8839   -9.3488   -9.0341  H     
60   H        25.9331   -7.7486   -6.8092  H     
61   H        24.4641   -8.4751   -6.9779  H     
62   H        27.7242   -6.9537   -8.7580  H     
63   H        28.2728   -8.1636   -7.6075  H     
64   H        29.3218   -8.1477  -10.4630  H     
65   H        29.6906   -5.8619   -9.6080  H     
66   H        30.4673   -6.4964   -8.1592  H     
67   H        30.5637   -9.1415   -7.8436  H     
68   H        29.8790  -10.1596   -9.1048  H     
69   H        32.3748  -10.0485   -9.2159  H     
70   H        31.6018   -9.4942  -10.7033  H     
71   H        32.8344   -7.7675   -8.5082  H     
72   H        33.4131   -7.9459  -10.1617  H     
73   H        31.4445   -6.7847  -11.0502  H     
74   H        32.1722   -5.7806   -9.8043  H     
75   H        25.5439  -10.6767   -6.8470  H     
76   H        25.5995   -9.6716   -5.3881  H     
77   H        27.0246   -9.7926   -6.4204  H     
78   H        26.5986   -1.6033  -11.7687  H     
79   H        26.4981   -0.9295  -13.3917  H     
80   H        25.3367   -3.0067  -14.1958  H     
81   H        24.4236   -2.1297  -12.9531  H     
82   H        25.3017   -3.6109  -12.5300  H     
@<TRIPOS>BOND
     1    1    2 1
     2    1    6 2
     3    1    7 1
     4    2    3 2
     5    3    4 1
     6    3   35 1
     7    4    5 2
     8    5    6 1
     9    7    8 1
    10    7    9 1
    11    8   15 1
    12    8   16 1
    13    9   10 1
    14   10   11 1
    15   11   12 1
    16   12   13 1
    17   13   33 1
    18   14   15 1
    19   14   18 1
    20   16   17 1
    21   17   18 1
    22   17   19 1
    23   19   20 2
    24   19   21 am
    25   21   22 1
    26   22   23 1
    27   22   25 1
    28   23   24 1
    29   24   32 1
    30   25   26 1
    31   26   27 1
    32   26   28 1
    33   27   31 1
    34   28   29 1
    35   29   30 1
    36   30   31 1
    37   33   34 1
    38    2   36 1
    39    4   37 1
    40    5   38 1
    41    6   39 1
    42    7   40 1
    43    8   41 1
    44   10   42 1
    45   10   43 1
    46   11   44 1
    47   11   45 1
    48   12   46 1
    49   12   47 1
    50   14   48 1
    51   14   49 1
    52   15   50 1
    53   15   51 1
    54   16   52 1
    55   16   53 1
    56   18   54 1
    57   18   55 1
    58   21   56 1
    59   22   57 1
    60   23   58 1
    61   23   59 1
    62   24   60 1
    63   24   61 1
    64   25   62 1
    65   25   63 1
    66   26   64 1
    67   27   65 1
    68   27   66 1
    69   28   67 1
    70   28   68 1
    71   29   69 1
    72   29   70 1
    73   30   71 1
    74   30   72 1
    75   31   73 1
    76   31   74 1
    77   32   75 1
    78   32   76 1
    79   32   77 1
    80   33   78 1
    81   33   79 1
    82   34   80 1
    83   34   81 1
    84   34   82 1
@<TRIPOS>PROPERTY_DATA
  Total_Score	| 16.2763
  Crash		| -1.9388
  Polar		| 6.9636
  FragIndex	| 1
  FragRMSD	| 0.344

