@<TRIPOS>MOLECULE
BindingDB_50305458
 83 85 0 0 0
SMALL
NO_CHARGES


@<TRIPOS>ATOM
1    C        29.6053   -4.3241  -12.5708  C     
2    N        28.1950   -4.2859  -12.3350  N     
3    C        27.3414   -3.3876  -12.8706  C     
4    O        27.7764   -2.3903  -13.6836  O     
5    O        26.0216   -3.5208  -12.5903  O     
6    C        24.9777   -2.6926  -13.1102  C     
7    C        29.9397   -5.2318  -13.7733  C     
8    O        29.8367   -6.6078  -13.3608  O     
9    C        29.8678   -7.6236  -14.3837  C     
10   C        32.1381   -8.4897  -13.6822  C     
11   C        33.4712   -8.8552  -13.9642  C     
12   C        33.9781   -8.6939  -15.2663  C     
13   C        33.1538   -8.1705  -16.2802  C     
14   C        31.8271   -7.8105  -15.9968  C     
15   C        31.2897   -7.9830  -14.6945  C     
16   C        29.0285   -8.8482  -13.8768  C     
17   C        27.5856   -8.4510  -13.4226  C     
18   N        26.9307   -9.6308  -12.8711  N     
19   C        26.6808  -10.6683  -13.8622  C     
20   C        28.0278  -11.1667  -14.4468  C     
21   C        28.9298   -9.9981  -14.9322  C     
22   C        26.7644   -9.8310  -11.5508  C     
23   O        26.4040  -10.9327  -11.1340  O     
24   N        27.0126   -8.8927  -10.6457  N     
25   C        27.0430   -8.9913   -9.2104  C     
26   C        25.6034   -8.7010   -8.6864  C     
27   C        28.1086   -7.9769   -8.6735  C     
28   C        29.5109   -8.0447   -9.3656  C     
29   C        30.3181   -6.7199   -9.1634  C     
30   C        31.6622   -6.7529   -9.9396  C     
31   C        32.5370   -7.9718   -9.5349  C     
32   C        31.7527   -9.3111   -9.6183  C     
33   C        30.3815   -9.2518   -8.8850  C     
34   N        25.4357   -8.5434   -7.2198  N     
35   Cl       34.4412   -9.5105  -12.7435  Cl    
36   C        25.7914   -9.6852   -6.3433  C     
37   C        24.5550  -10.4868   -5.8729  C     
38   H        30.0096   -3.3246  -12.7550  H     
39   H        30.0882   -4.7198  -11.6782  H     
40   H        27.8103   -5.0052  -11.8069  H     
41   H        25.1641   -1.6451  -12.8673  H     
42   H        24.0322   -2.9954  -12.6640  H     
43   H        24.9145   -2.8083  -14.1930  H     
44   H        29.2433   -5.0114  -14.5867  H     
45   H        30.9538   -5.0198  -14.1153  H     
46   H        29.3588   -7.2419  -15.2721  H     
47   H        31.7858   -8.6061  -12.7324  H     
48   H        34.9386   -8.9571  -15.4835  H     
49   H        33.5212   -8.0610  -17.2260  H     
50   H        31.2409   -7.4288  -16.7475  H     
51   H        29.5269   -9.2594  -12.9916  H     
52   H        27.6447   -7.6251  -12.7181  H     
53   H        27.0217   -8.0651  -14.2780  H     
54   H        26.1337  -11.5286  -13.4656  H     
55   H        26.0634  -10.2620  -14.6709  H     
56   H        28.5556  -11.7319  -13.6724  H     
57   H        27.8302  -11.8474  -15.2818  H     
58   H        28.5224   -9.6061  -15.8643  H     
59   H        29.9251  -10.3974  -15.1431  H     
60   H        27.2023   -8.0024  -10.9865  H     
61   H        27.3395   -9.9980   -8.8954  H     
62   H        25.2563   -7.7636   -9.1286  H     
63   H        24.9289   -9.4886   -9.0312  H     
64   H        27.7022   -6.9709   -8.8156  H     
65   H        28.2378   -8.1269   -7.5984  H     
66   H        29.3397   -8.1535  -10.4396  H     
67   H        29.7295   -5.8764   -9.5326  H     
68   H        30.5188   -6.5542   -8.0971  H     
69   H        31.4573   -6.7970  -11.0132  H     
70   H        32.2182   -5.8278   -9.7468  H     
71   H        33.4102   -8.0215  -10.1976  H     
72   H        32.9072   -7.8325   -8.5123  H     
73   H        31.5811   -9.5606  -10.6685  H     
74   H        32.3625  -10.1054   -9.1753  H     
75   H        30.5584   -9.1807   -7.8014  H     
76   H        29.8474  -10.1903   -9.0746  H     
77   H        25.9694   -7.7204   -6.9246  H     
78   H        24.4431   -8.3324   -7.0724  H     
79   H        26.5003  -10.3541   -6.8457  H     
80   H        26.2785   -9.2627   -5.4524  H     
81   H        23.8354   -9.8212   -5.3811  H     
82   H        24.8657  -11.2563   -5.1610  H     
83   H        24.0691  -10.9735   -6.7237  H     
@<TRIPOS>BOND
     1    1    2 1
     2    1    7 1
     3    2    3 am
     4    3    4 2
     5    3    5 1
     6    5    6 1
     7    7    8 1
     8    8    9 1
     9    9   15 1
    10    9   16 1
    11   10   11 2
    12   10   15 1
    13   11   12 1
    14   11   35 1
    15   12   13 2
    16   13   14 1
    17   14   15 2
    18   16   17 1
    19   16   21 1
    20   17   18 1
    21   18   19 1
    22   18   22 1
    23   19   20 1
    24   20   21 1
    25   22   23 2
    26   22   24 am
    27   24   25 1
    28   25   26 1
    29   25   27 1
    30   26   34 1
    31   27   28 1
    32   28   29 1
    33   28   33 1
    34   29   30 1
    35   30   31 1
    36   31   32 1
    37   32   33 1
    38   34   36 1
    39   36   37 1
    40    1   38 1
    41    1   39 1
    42    2   40 1
    43    6   41 1
    44    6   42 1
    45    6   43 1
    46    7   44 1
    47    7   45 1
    48    9   46 1
    49   10   47 1
    50   12   48 1
    51   13   49 1
    52   14   50 1
    53   16   51 1
    54   17   52 1
    55   17   53 1
    56   19   54 1
    57   19   55 1
    58   20   56 1
    59   20   57 1
    60   21   58 1
    61   21   59 1
    62   24   60 1
    63   25   61 1
    64   26   62 1
    65   26   63 1
    66   27   64 1
    67   27   65 1
    68   28   66 1
    69   29   67 1
    70   29   68 1
    71   30   69 1
    72   30   70 1
    73   31   71 1
    74   31   72 1
    75   32   73 1
    76   32   74 1
    77   33   75 1
    78   33   76 1
    79   34   77 1
    80   34   78 1
    81   36   79 1
    82   36   80 1
    83   37   81 1
    84   37   82 1
    85   37   83 1
@<TRIPOS>PROPERTY_DATA
  Total_Score	| 16.6574
  Crash		| -1.6326
  Polar		| 7.5683
  FragIndex	| 1
  FragRMSD	| 0.291

