@<TRIPOS>MOLECULE
BindingDB_50305452
 80 82 0 0 0
SMALL
NO_CHARGES


@<TRIPOS>ATOM
1    C        29.5065   -4.1269  -12.6996  C     
2    N        28.1207   -4.2534  -12.3708  N     
3    C        27.0978   -3.8156  -13.1313  C     
4    O        25.8476   -4.1372  -12.7266  O     
5    O        27.2996   -3.0823  -14.2617  O     
6    C        26.2631   -2.6539  -15.1478  C     
7    C        29.8998   -5.0866  -13.8481  C     
8    O        29.8128   -6.4695  -13.4146  O     
9    C        29.8458   -7.4772  -14.4393  C     
10   C        32.0963   -8.3539  -13.7034  C     
11   C        33.4309   -8.7236  -13.9705  C     
12   C        33.9542   -8.5781  -15.2672  C     
13   C        33.1385   -8.0701  -16.2942  C     
14   C        31.8111   -7.6831  -16.0168  C     
15   C        31.2622   -7.8476  -14.7244  C     
16   C        28.9873   -8.7121  -13.9833  C     
17   C        27.5860   -8.3549  -13.3781  C     
18   N        26.9708   -9.5849  -12.8639  N     
19   C        26.6330  -10.5424  -13.9126  C     
20   C        27.9285  -10.9802  -14.6502  C     
21   C        28.7696   -9.7568  -15.1306  C     
22   C        26.8088   -9.8269  -11.5445  C     
23   O        26.3990  -10.9292  -11.1884  O     
24   N        27.0978   -8.9552  -10.5817  N     
25   C        27.1570   -9.1456   -9.1605  C     
26   C        25.7819   -8.5935   -8.6191  C     
27   C        28.3891   -8.4162   -8.4880  C     
28   C        29.7691   -8.3827   -9.2360  C     
29   C        30.4542   -6.9833   -9.0848  C     
30   C        31.7929   -6.8596   -9.8628  C     
31   C        32.8007   -7.9812   -9.4886  C     
32   C        32.1472   -9.3872   -9.5801  C     
33   C        30.8006   -9.4734   -8.7922  C     
34   N        25.4676   -8.5560   -7.1552  N     
35   C        25.7580   -9.7544   -6.3361  C     
36   Cl       34.3992   -9.3552  -12.7278  Cl    
37   H        29.7589   -3.1065  -12.9570  H     
38   H        30.0885   -4.4038  -11.8190  H     
39   H        27.9138   -4.7809  -11.5800  H     
40   H        25.7752   -3.5115  -15.6026  H     
41   H        26.7102   -2.0584  -15.9300  H     
42   H        25.5228   -2.0586  -14.6188  H     
43   H        29.2237   -4.8933  -14.6853  H     
44   H        30.9122   -4.8520  -14.1819  H     
45   H        29.3441   -7.1048  -15.3336  H     
46   H        31.7386   -8.4701  -12.7576  H     
47   H        34.9165   -8.8602  -15.4754  H     
48   H        33.5210   -7.9640  -17.2354  H     
49   H        31.2403   -7.3159  -16.7817  H     
50   H        29.5175   -9.2487  -13.1850  H     
51   H        27.7081   -7.5991  -12.6024  H     
52   H        26.9442   -7.9016  -14.1541  H     
53   H        26.1157  -11.4527  -13.5430  H     
54   H        25.9590  -10.0783  -14.6610  H     
55   H        28.5444  -11.5762  -13.9649  H     
56   H        27.6751  -11.6185  -15.5127  H     
57   H        28.2715   -9.2961  -15.9891  H     
58   H        29.7415  -10.1403  -15.4928  H     
59   H        27.3351   -8.0767  -10.8676  H     
60   H        27.2271  -10.2079   -8.9253  H     
61   H        25.6988   -7.5326   -8.9524  H     
62   H        24.9482   -9.1281   -9.1188  H     
63   H        28.0782   -7.3781   -8.2685  H     
64   H        28.5840   -8.8689   -7.5007  H     
65   H        29.6411   -8.5433  -10.2973  H     
66   H        29.7840   -6.2124   -9.4686  H     
67   H        30.6388   -6.7718   -8.0236  H     
68   H        31.5910   -6.9054  -10.9354  H     
69   H        32.2511   -5.8838   -9.6413  H     
70   H        33.6601   -7.9340  -10.1733  H     
71   H        33.1736   -7.8224   -8.4628  H     
72   H        31.9752   -9.6258  -10.6412  H     
73   H        32.8629  -10.1289   -9.1842  H     
74   H        31.0250   -9.3760   -7.7263  H     
75   H        30.3755  -10.4698   -8.9556  H     
76   H        25.9442   -7.7235   -6.7432  H     
77   H        24.4431   -8.3779   -7.1099  H     
78   H        25.4514  -10.6604   -6.8944  H     
79   H        25.1815   -9.6681   -5.4206  H     
80   H        26.8221   -9.7648   -6.0992  H     
@<TRIPOS>BOND
     1    1    2 1
     2    1    7 1
     3    2    3 am
     4    3    4 2
     5    3    5 1
     6    5    6 1
     7    7    8 1
     8    8    9 1
     9    9   15 1
    10    9   16 1
    11   10   11 2
    12   10   15 1
    13   11   12 1
    14   11   36 1
    15   12   13 2
    16   13   14 1
    17   14   15 2
    18   16   17 1
    19   16   21 1
    20   17   18 1
    21   18   19 1
    22   18   22 1
    23   19   20 1
    24   20   21 1
    25   22   23 2
    26   22   24 am
    27   24   25 1
    28   25   26 1
    29   25   27 1
    30   26   34 1
    31   27   28 1
    32   28   29 1
    33   28   33 1
    34   29   30 1
    35   30   31 1
    36   31   32 1
    37   32   33 1
    38   34   35 1
    39    1   37 1
    40    1   38 1
    41    2   39 1
    42    6   40 1
    43    6   41 1
    44    6   42 1
    45    7   43 1
    46    7   44 1
    47    9   45 1
    48   10   46 1
    49   12   47 1
    50   13   48 1
    51   14   49 1
    52   16   50 1
    53   17   51 1
    54   17   52 1
    55   19   53 1
    56   19   54 1
    57   20   55 1
    58   20   56 1
    59   21   57 1
    60   21   58 1
    61   24   59 1
    62   25   60 1
    63   26   61 1
    64   26   62 1
    65   27   63 1
    66   27   64 1
    67   28   65 1
    68   29   66 1
    69   29   67 1
    70   30   68 1
    71   30   69 1
    72   31   70 1
    73   31   71 1
    74   32   72 1
    75   32   73 1
    76   33   74 1
    77   33   75 1
    78   34   76 1
    79   34   77 1
    80   35   78 1
    81   35   79 1
    82   35   80 1
@<TRIPOS>PROPERTY_DATA
  Total_Score	| 13.9884
  Crash		| -2.9268
  Polar		| 6.2080
  FragIndex	| 1
  FragRMSD	| 0.798

