@<TRIPOS>MOLECULE
BindingDB_50382336
 78 80 0 0 0
SMALL
NO_CHARGES


@<TRIPOS>ATOM
1    C        29.1029   -9.6075  -14.4036  C     
2    C        28.4351  -10.2818  -13.1566  C     
3    N        27.0571   -9.8746  -12.8742  N     
4    C        26.1545   -9.9714  -14.0161  C     
5    C        26.7021   -9.1993  -15.2409  C     
6    C        28.1168   -9.7109  -15.6144  C     
7    C        27.4434   -3.7535  -13.1866  C     
8    N        28.0988   -4.8988  -12.8913  N     
9    O        28.0742   -2.6861  -13.7161  O     
10   O        26.0873   -3.7161  -12.9830  O     
11   C        25.2364   -2.5934  -13.2128  C     
12   C        29.5002   -5.1210  -13.1240  C     
13   C        30.0196   -6.4101  -12.4388  C     
14   O        29.3782   -7.6261  -12.8822  O     
15   C        29.7243   -8.1677  -14.1824  C     
16   C        31.1962   -8.2074  -14.4389  C     
17   C        31.7234   -7.7980  -15.6889  C     
18   C        33.0992   -7.9454  -15.9687  C     
19   C        33.9590   -8.5189  -15.0230  C     
20   C        33.4536   -8.9263  -13.7743  C     
21   C        32.0798   -8.7745  -13.4856  C     
22   C        26.5927   -9.6396  -11.6283  C     
23   O        25.3811   -9.5418  -11.4266  O     
24   N        27.3832   -9.5368  -10.5641  N     
25   C        27.0421   -9.4707   -9.1590  C     
26   C        26.0987   -8.2646   -8.8004  C     
27   C        28.3459   -9.4885   -8.2973  C     
28   C        29.5619   -8.6750   -8.8705  C     
29   C        30.2582   -7.7667   -7.8271  C     
30   O        31.3953   -7.0652   -8.3897  O     
31   C        32.4349   -7.9337   -8.8920  C     
32   C        31.8970   -8.8543  -10.0044  C     
33   C        30.6468   -9.6148   -9.4900  C     
34   N        25.5000   -8.2703   -7.4388  N     
35   C        25.3625   -9.5688   -6.7584  C     
36   Cl       34.5074   -9.6174  -12.6385  Cl    
37   H        29.9142  -10.2952  -14.6836  H     
38   H        28.3978  -11.3644  -13.3316  H     
39   H        29.1093  -10.1453  -12.3196  H     
40   H        26.0401  -11.0233  -14.2823  H     
41   H        25.1489   -9.5855  -13.8195  H     
42   H        26.0316   -9.3249  -16.0964  H     
43   H        26.7516   -8.1316  -15.0000  H     
44   H        28.4976   -9.1475  -16.4709  H     
45   H        28.0295  -10.7526  -15.9372  H     
46   H        27.5727   -5.6533  -12.5867  H     
47   H        24.2268   -2.8454  -12.8799  H     
48   H        25.2097   -2.3408  -14.2760  H     
49   H        25.5856   -1.7254  -12.6486  H     
50   H        29.6183   -5.1627  -14.2071  H     
51   H        30.0973   -4.2789  -12.7641  H     
52   H        31.1002   -6.4945  -12.5831  H     
53   H        29.8392   -6.3279  -11.3596  H     
54   H        29.2642   -7.5053  -14.9049  H     
55   H        31.1155   -7.4142  -16.4201  H     
56   H        33.4787   -7.6608  -16.8831  H     
57   H        34.9466   -8.6734  -15.2513  H     
58   H        31.7123   -9.1234  -12.5887  H     
59   H        28.3276   -9.5717  -10.7392  H     
60   H        26.4948  -10.3876   -8.9249  H     
61   H        26.6629   -7.3329   -8.8986  H     
62   H        25.2687   -8.2130   -9.5219  H     
63   H        28.1141   -9.1409   -7.2879  H     
64   H        28.6254  -10.5367   -8.1760  H     
65   H        29.2163   -8.0069   -9.6600  H     
66   H        29.5498   -7.0148   -7.4648  H     
67   H        30.5825   -8.3544   -6.9597  H     
68   H        33.2296   -7.3122   -9.3058  H     
69   H        32.8581   -8.5302   -8.0742  H     
70   H        31.6348   -8.2500  -10.8824  H     
71   H        32.6711   -9.5838  -10.2856  H     
72   H        30.9754  -10.3418   -8.7291  H     
73   H        30.2183  -10.1825  -10.3164  H     
74   H        26.0654   -7.6779   -6.8379  H     
75   H        24.5694   -7.8487   -7.5053  H     
76   H        24.9008  -10.3235   -7.4078  H     
77   H        24.7181   -9.4514   -5.8833  H     
78   H        26.3408   -9.9408   -6.4226  H     
@<TRIPOS>BOND
     1    1    2 1
     2    1    6 1
     3    1   15 1
     4    2    3 1
     5    3    4 1
     6    3   22 1
     7    4    5 1
     8    5    6 1
     9    7    8 am
    10    7    9 2
    11    7   10 1
    12    8   12 1
    13   10   11 1
    14   12   13 1
    15   13   14 1
    16   15   14 1
    17   15   16 1
    18   16   17 2
    19   16   21 1
    20   17   18 1
    21   18   19 2
    22   19   20 1
    23   20   21 2
    24   20   36 1
    25   22   23 2
    26   22   24 am
    27   25   24 1
    28   25   26 1
    29   25   27 1
    30   26   34 1
    31   27   28 1
    32   28   29 1
    33   28   33 1
    34   29   30 1
    35   30   31 1
    36   31   32 1
    37   32   33 1
    38   34   35 1
    39    1   37 1
    40    2   38 1
    41    2   39 1
    42    4   40 1
    43    4   41 1
    44    5   42 1
    45    5   43 1
    46    6   44 1
    47    6   45 1
    48    8   46 1
    49   11   47 1
    50   11   48 1
    51   11   49 1
    52   12   50 1
    53   12   51 1
    54   13   52 1
    55   13   53 1
    56   15   54 1
    57   17   55 1
    58   18   56 1
    59   19   57 1
    60   21   58 1
    61   24   59 1
    62   25   60 1
    63   26   61 1
    64   26   62 1
    65   27   63 1
    66   27   64 1
    67   28   65 1
    68   29   66 1
    69   29   67 1
    70   31   68 1
    71   31   69 1
    72   32   70 1
    73   32   71 1
    74   33   72 1
    75   33   73 1
    76   34   74 1
    77   34   75 1
    78   35   76 1
    79   35   77 1
    80   35   78 1
@<TRIPOS>PROPERTY_DATA
  Total_Score	| 12.1488
  Crash		| -2.8333
  Polar		| 6.0134
  FragIndex	| 1
  FragRMSD	| 1.236

