@<TRIPOS>MOLECULE
BindingDB_50305455
 80 82 0 0 0
SMALL
NO_CHARGES


@<TRIPOS>ATOM
1    C        29.3578   -4.2598  -12.7116  C     
2    N        27.9698   -4.5734  -12.6468  N     
3    C        26.9357   -3.7468  -12.8998  C     
4    O        25.7184   -4.3284  -12.9682  O     
5    O        27.0675   -2.4054  -13.0716  O     
6    C        25.9584   -1.5260  -13.2970  C     
7    C        30.0069   -5.1175  -13.8200  C     
8    O        29.9987   -6.5047  -13.3983  O     
9    C        29.9796   -7.5339  -14.4057  C     
10   C        31.9251   -7.7297  -16.0229  C     
11   C        33.2475   -8.1196  -16.3127  C     
12   C        34.0588   -8.6745  -15.3051  C     
13   C        33.5455   -8.8374  -14.0050  C     
14   C        32.2252   -8.4500  -13.7220  C     
15   C        31.3841   -7.9121  -14.7262  C     
16   C        29.1268   -8.7552  -13.8885  C     
17   C        27.7452   -8.3389  -13.2995  C     
18   N        27.0648   -9.5203  -12.7791  N     
19   C        26.7355  -10.4992  -13.8059  C     
20   C        28.0294  -11.0186  -14.4798  C     
21   C        28.9121   -9.8488  -14.9932  C     
22   C        26.8922   -9.7562  -11.4627  C     
23   O        26.5438  -10.8749  -11.0787  O     
24   N        27.1114   -8.8354  -10.5367  N     
25   C        27.1231   -8.9560   -9.1071  C     
26   C        25.6678   -8.6678   -8.6222  C     
27   C        28.1906   -7.9636   -8.5309  C     
28   C        29.5826   -7.9846   -9.2624  C     
29   C        30.3808   -6.6515   -9.1051  C     
30   C        31.6881   -6.6734   -9.9454  C     
31   C        32.6059   -7.8720   -9.5830  C     
32   C        31.8263   -9.2154   -9.5842  C     
33   C        30.4992   -9.1505   -8.7747  C     
34   N        25.4534   -8.5777   -7.1628  N     
35   C        25.8408   -9.7632   -6.3782  C     
36   H        29.5467   -3.2041  -12.9203  H     
37   H        29.8172   -4.5197  -11.7567  H     
38   H        27.7465   -5.4935  -12.4400  H     
39   H        25.4689   -1.7772  -14.2380  H     
40   H        26.3123   -0.5016  -13.3373  H     
41   H        25.2365   -1.6089  -12.4857  H     
42   H        29.4335   -4.9898  -14.7429  H     
43   H        31.0325   -4.7807  -14.0066  H     
44   H        29.4671   -7.1480  -15.2921  H     
45   H        31.3594   -7.3211  -16.7674  H     
46   H        33.6252   -7.9927  -17.2551  H     
47   H        35.0161   -8.9630  -15.5141  H     
48   H        34.1367   -9.2280  -13.2651  H     
49   H        31.8781   -8.5656  -12.7669  H     
50   H        29.6750   -9.2299  -13.0672  H     
51   H        27.9169   -7.5806  -12.5376  H     
52   H        27.1357   -7.8585  -14.0713  H     
53   H        26.1863  -11.3615  -13.4240  H     
54   H        26.0908  -10.0406  -14.5666  H     
55   H        28.5990  -11.6014  -13.7532  H     
56   H        27.7786  -11.6790  -15.3155  H     
57   H        28.4422   -9.4035  -15.8752  H     
58   H        29.8790  -10.2632  -15.3056  H     
59   H        27.2344   -7.9309  -10.8596  H     
60   H        27.3957   -9.9756   -8.8013  H     
61   H        25.3533   -7.7026   -9.0379  H     
62   H        24.9908   -9.4264   -9.0390  H     
63   H        27.7750   -6.9544   -8.5989  H     
64   H        28.3404   -8.1646   -7.4686  H     
65   H        29.3928   -8.1126  -10.3333  H     
66   H        29.7694   -5.8114   -9.4422  H     
67   H        30.6323   -6.4865   -8.0524  H     
68   H        31.4301   -6.7383  -11.0058  H     
69   H        32.2322   -5.7379   -9.7940  H     
70   H        33.4279   -7.9316  -10.3036  H     
71   H        33.0427   -7.7095   -8.5942  H     
72   H        31.5939   -9.4821  -10.6193  H     
73   H        32.4608  -10.0044   -9.1667  H     
74   H        30.7349   -9.0159   -7.7133  H     
75   H        29.9810  -10.1068   -8.8827  H     
76   H        25.9263   -7.7420   -6.8026  H     
77   H        24.4486   -8.4338   -7.0380  H     
78   H        25.3257  -10.6543   -6.7493  H     
79   H        25.5328   -9.6043   -5.3421  H     
80   H        26.9244   -9.9114   -6.4159  H     
@<TRIPOS>BOND
     1    1    2 1
     2    1    7 1
     3    2    3 am
     4    3    4 2
     5    3    5 1
     6    5    6 1
     7    7    8 1
     8    8    9 1
     9    9   15 1
    10    9   16 1
    11   10   11 2
    12   10   15 1
    13   11   12 1
    14   12   13 2
    15   13   14 1
    16   14   15 2
    17   16   17 1
    18   16   21 1
    19   17   18 1
    20   18   19 1
    21   18   22 1
    22   19   20 1
    23   20   21 1
    24   22   23 2
    25   22   24 am
    26   24   25 1
    27   25   26 1
    28   25   27 1
    29   26   34 1
    30   27   28 1
    31   28   29 1
    32   28   33 1
    33   29   30 1
    34   30   31 1
    35   31   32 1
    36   32   33 1
    37   34   35 1
    38    1   36 1
    39    1   37 1
    40    2   38 1
    41    6   39 1
    42    6   40 1
    43    6   41 1
    44    7   42 1
    45    7   43 1
    46    9   44 1
    47   10   45 1
    48   11   46 1
    49   12   47 1
    50   13   48 1
    51   14   49 1
    52   16   50 1
    53   17   51 1
    54   17   52 1
    55   19   53 1
    56   19   54 1
    57   20   55 1
    58   20   56 1
    59   21   57 1
    60   21   58 1
    61   24   59 1
    62   25   60 1
    63   26   61 1
    64   26   62 1
    65   27   63 1
    66   27   64 1
    67   28   65 1
    68   29   66 1
    69   29   67 1
    70   30   68 1
    71   30   69 1
    72   31   70 1
    73   31   71 1
    74   32   72 1
    75   32   73 1
    76   33   74 1
    77   33   75 1
    78   34   76 1
    79   34   77 1
    80   35   78 1
    81   35   79 1
    82   35   80 1
@<TRIPOS>PROPERTY_DATA
  Total_Score	| 14.4732
  Crash		| -2.3640
  Polar		| 6.2473
  FragIndex	| 1
  FragRMSD	| 0.686

