@<TRIPOS>MOLECULE
BindingDB_50305463
 80 82 0 0 0
SMALL
NO_CHARGES


@<TRIPOS>ATOM
1    C        29.0644   -4.6671  -12.4829  C     
2    N        28.7747   -3.3182  -12.8487  N     
3    C        27.5339   -2.8180  -13.0331  C     
4    O        27.4343   -1.5798  -13.5702  O     
5    O        26.4057   -3.5076  -12.6968  O     
6    C        25.0681   -3.0638  -12.9307  C     
7    C        28.9663   -5.6093  -13.7067  C     
8    O        29.7656   -6.7771  -13.4560  O     
9    C        29.7715   -7.8134  -14.4599  C     
10   C        32.0392   -8.5988  -13.6786  C     
11   C        33.4024   -8.8790  -13.9006  C     
12   C        33.9522   -8.6984  -15.1801  C     
13   C        33.1374   -8.2765  -16.2398  C     
14   C        31.7786   -7.9857  -16.0289  C     
15   C        31.2056   -8.1446  -14.7375  C     
16   C        28.9182   -9.0103  -13.9216  C     
17   C        27.4974   -8.5654  -13.4515  C     
18   N        26.8449   -9.7112  -12.8301  N     
19   C        26.5504  -10.7890  -13.7664  C     
20   C        27.8580  -11.3183  -14.4099  C     
21   C        28.7478  -10.1674  -14.9607  C     
22   C        26.7098   -9.8522  -11.4934  C     
23   O        26.3769  -10.9506  -11.0305  O     
24   N        26.9836   -8.8808  -10.6175  N     
25   C        27.0191   -8.9703   -9.1854  C     
26   C        25.6047   -8.6597   -8.6216  C     
27   C        28.1081   -7.9990   -8.6127  C     
28   C        29.5081   -8.0749   -9.3184  C     
29   C        30.2833   -6.7134   -9.1933  C     
30   C        31.6156   -6.7250   -9.9933  C     
31   C        32.5417   -7.9040   -9.5679  C     
32   C        31.7824   -9.2632   -9.6015  C     
33   C        30.4496   -9.2183   -8.8027  C     
34   N        25.4514   -8.6290   -7.1472  N     
35   C        25.9369   -9.8081   -6.4118  C     
36   F        31.0687   -7.5730  -17.0479  F     
37   Cl       34.3795   -9.4060  -12.6257  Cl    
38   H        30.0921   -4.7017  -12.1109  H     
39   H        28.3868   -5.0037  -11.6888  H     
40   H        29.5284   -2.7301  -13.0378  H     
41   H        24.9291   -2.0323  -12.6051  H     
42   H        24.3857   -3.6975  -12.3720  H     
43   H        24.8436   -3.1417  -13.9941  H     
44   H        27.9171   -5.8989  -13.8537  H     
45   H        29.3396   -5.0897  -14.5942  H     
46   H        29.2616   -7.4726  -15.3673  H     
47   H        31.6645   -8.7014  -12.7360  H     
48   H        34.9436   -8.8923  -15.3532  H     
49   H        33.5446   -8.1521  -17.1705  H     
50   H        29.4242   -9.4256  -13.0434  H     
51   H        27.5696   -7.7162  -12.7789  H     
52   H        26.9109   -8.2170  -14.3057  H     
53   H        26.0341  -11.6352  -13.3075  H     
54   H        25.8823  -10.4283  -14.5490  H     
55   H        28.4237  -11.8636  -13.6478  H     
56   H        27.6190  -12.0163  -15.2174  H     
57   H        28.2945   -9.7751  -15.8731  H     
58   H        29.7264  -10.5779  -15.2203  H     
59   H        27.1541   -7.9964  -10.9798  H     
60   H        27.3076   -9.9858   -8.8807  H     
61   H        25.2928   -7.6832   -8.9966  H     
62   H        24.8959   -9.3888   -9.0249  H     
63   H        27.7015   -6.9811   -8.6924  H     
64   H        28.2392   -8.1941   -7.5397  H     
65   H        29.3481   -8.2402  -10.3951  H     
66   H        29.6507   -5.9088   -9.5972  H     
67   H        30.4958   -6.4944   -8.1327  H     
68   H        31.4037   -6.8273  -11.0751  H     
69   H        32.1386   -5.7735   -9.8163  H     
70   H        33.3995   -7.9613  -10.2457  H     
71   H        32.9203   -7.7346   -8.5552  H     
72   H        31.5678   -9.5292  -10.6495  H     
73   H        32.4293  -10.0448   -9.1767  H     
74   H        30.6641   -9.0577   -7.7342  H     
75   H        29.9385  -10.1881   -8.9119  H     
76   H        25.8955   -7.7793   -6.7923  H     
77   H        24.4510   -8.5278   -6.9729  H     
78   H        25.5330  -10.7213   -6.8583  H     
79   H        25.5904   -9.7416   -5.3813  H     
80   H        27.0228   -9.8446   -6.4230  H     
@<TRIPOS>BOND
     1    1    2 1
     2    1    7 1
     3    2    3 am
     4    3    4 2
     5    3    5 1
     6    5    6 1
     7    7    8 1
     8    8    9 1
     9    9   15 1
    10    9   16 1
    11   10   11 2
    12   10   15 1
    13   11   12 1
    14   11   37 1
    15   12   13 2
    16   13   14 1
    17   14   15 2
    18   14   36 1
    19   16   17 1
    20   16   21 1
    21   17   18 1
    22   18   19 1
    23   18   22 1
    24   19   20 1
    25   20   21 1
    26   22   23 2
    27   22   24 am
    28   24   25 1
    29   25   26 1
    30   25   27 1
    31   26   34 1
    32   27   28 1
    33   28   29 1
    34   28   33 1
    35   29   30 1
    36   30   31 1
    37   31   32 1
    38   32   33 1
    39   34   35 1
    40    1   38 1
    41    1   39 1
    42    2   40 1
    43    6   41 1
    44    6   42 1
    45    6   43 1
    46    7   44 1
    47    7   45 1
    48    9   46 1
    49   10   47 1
    50   12   48 1
    51   13   49 1
    52   16   50 1
    53   17   51 1
    54   17   52 1
    55   19   53 1
    56   19   54 1
    57   20   55 1
    58   20   56 1
    59   21   57 1
    60   21   58 1
    61   24   59 1
    62   25   60 1
    63   26   61 1
    64   26   62 1
    65   27   63 1
    66   27   64 1
    67   28   65 1
    68   29   66 1
    69   29   67 1
    70   30   68 1
    71   30   69 1
    72   31   70 1
    73   31   71 1
    74   32   72 1
    75   32   73 1
    76   33   74 1
    77   33   75 1
    78   34   76 1
    79   34   77 1
    80   35   78 1
    81   35   79 1
    82   35   80 1
@<TRIPOS>PROPERTY_DATA
  Total_Score	| 14.5185
  Crash		| -1.6002
  Polar		| 6.7275
  FragIndex	| 1
  FragRMSD	| 0.485

