@<TRIPOS>MOLECULE
BindingDB_50305456
 77 79 0 0 0
SMALL
NO_CHARGES


@<TRIPOS>ATOM
1    C        29.6040   -4.9728  -13.1664  C     
2    N        28.2295   -4.8261  -12.8207  N     
3    C        27.4675   -3.7598  -13.1776  C     
4    O        27.9878   -2.7030  -13.8468  O     
5    O        26.1587   -3.7803  -12.8212  O     
6    C        25.2082   -2.7613  -13.1438  C     
7    C        30.1391   -6.3578  -12.7312  C     
8    O        29.3964   -7.4892  -13.2479  O     
9    C        29.7938   -8.0320  -14.5320  C     
10   C        32.0593   -8.6968  -13.6024  C     
11   C        33.4492   -8.8742  -13.7459  C     
12   C        34.0811   -8.5317  -14.9560  C     
13   C        33.3307   -7.9631  -16.0017  C     
14   C        31.9411   -7.7757  -15.8543  C     
15   C        31.2803   -8.1731  -14.6637  C     
16   C        29.0748   -9.4004  -14.8628  C     
17   C        28.8537  -10.3840  -13.6661  C     
18   N        27.7543  -10.0015  -12.8015  N     
19   C        26.4726   -9.7955  -13.4615  C     
20   C        26.5793   -8.8107  -14.6472  C     
21   C        27.7153   -9.2123  -15.6066  C     
22   C        27.8225  -10.0834  -11.4652  C     
23   O        28.6567  -10.8248  -10.9314  O     
24   N        27.1158   -9.2517  -10.7044  N     
25   C        26.8739   -9.3309   -9.2885  C     
26   C        25.9665   -8.1370   -8.8442  C     
27   C        28.1501   -9.5836   -8.4131  C     
28   C        29.4611   -8.7044   -8.3791  C     
29   C        30.6897   -9.4574   -9.0221  C     
30   C        32.0151   -8.6767   -8.8739  C     
31   C        31.8754   -7.2652   -9.4881  C     
32   C        30.6931   -6.4851   -8.8561  C     
33   C        29.3595   -7.2630   -8.9587  C     
34   N        25.3471   -8.3333   -7.5246  N     
35   Cl       34.3492   -9.4933  -12.4541  Cl    
36   H        29.7312   -4.8486  -14.2435  H     
37   H        30.2004   -4.2120  -12.6585  H     
38   H        27.8036   -5.5307  -12.3092  H     
39   H        25.5380   -1.7924  -12.7597  H     
40   H        24.2433   -3.0117  -12.6995  H     
41   H        25.0950   -2.7006  -14.2270  H     
42   H        31.2093   -6.4212  -12.9587  H     
43   H        30.0519   -6.3930  -11.6449  H     
44   H        29.4638   -7.3074  -15.2822  H     
45   H        31.6214   -8.9325  -12.7159  H     
46   H        35.0786   -8.6866  -15.0829  H     
47   H        33.7894   -7.6883  -16.8722  H     
48   H        31.4186   -7.3524  -16.6234  H     
49   H        29.7104   -9.9238  -15.5854  H     
50   H        28.6464  -11.3847  -14.0653  H     
51   H        29.7896  -10.4652  -13.1198  H     
52   H        26.1333  -10.7646  -13.8443  H     
53   H        25.6882   -9.4434  -12.7822  H     
54   H        25.6355   -8.8216  -15.1974  H     
55   H        26.7418   -7.7992  -14.2642  H     
56   H        27.8068   -8.4645  -16.4017  H     
57   H        27.4406  -10.1523  -16.0865  H     
58   H        26.6137   -8.5655  -11.1835  H     
59   H        26.2477  -10.2119   -9.1584  H     
60   H        26.5384   -7.2159   -8.7908  H     
61   H        25.1526   -8.0016   -9.5676  H     
62   H        27.8059   -9.7001   -7.3800  H     
63   H        28.4616  -10.5855   -8.7113  H     
64   H        29.7158   -8.5787   -7.3147  H     
65   H        30.8221  -10.4264   -8.5341  H     
66   H        30.5023   -9.6313  -10.0879  H     
67   H        32.2834   -8.6123   -7.8187  H     
68   H        32.8192   -9.2148   -9.3841  H     
69   H        32.8010   -6.7176   -9.3281  H     
70   H        31.7149   -7.3521  -10.5731  H     
71   H        30.9031   -6.2841   -7.7983  H     
72   H        30.5911   -5.5172   -9.3488  H     
73   H        29.0343   -7.3192   -9.9934  H     
74   H        28.6324   -6.6640   -8.4065  H     
75   H        24.3793   -8.6352   -7.6351  H     
76   H        25.3488   -7.4430   -7.0301  H     
77   H        25.8567   -9.0172   -6.9693  H     
@<TRIPOS>BOND
     1    1    2 1
     2    1    7 1
     3    2    3 am
     4    3    4 2
     5    3    5 1
     6    5    6 1
     7    7    8 1
     8    8    9 1
     9    9   15 1
    10    9   16 1
    11   10   11 2
    12   10   15 1
    13   11   12 1
    14   11   35 1
    15   12   13 2
    16   13   14 1
    17   14   15 2
    18   16   17 1
    19   16   21 1
    20   17   18 1
    21   18   19 1
    22   18   22 1
    23   19   20 1
    24   20   21 1
    25   22   23 2
    26   22   24 am
    27   24   25 1
    28   25   26 1
    29   25   27 1
    30   26   34 1
    31   27   28 1
    32   28   29 1
    33   28   33 1
    34   29   30 1
    35   30   31 1
    36   31   32 1
    37   32   33 1
    38    1   36 1
    39    1   37 1
    40    2   38 1
    41    6   39 1
    42    6   40 1
    43    6   41 1
    44    7   42 1
    45    7   43 1
    46    9   44 1
    47   10   45 1
    48   12   46 1
    49   13   47 1
    50   14   48 1
    51   16   49 1
    52   17   50 1
    53   17   51 1
    54   19   52 1
    55   19   53 1
    56   20   54 1
    57   20   55 1
    58   21   56 1
    59   21   57 1
    60   24   58 1
    61   25   59 1
    62   26   60 1
    63   26   61 1
    64   27   62 1
    65   27   63 1
    66   28   64 1
    67   29   65 1
    68   29   66 1
    69   30   67 1
    70   30   68 1
    71   31   69 1
    72   31   70 1
    73   32   71 1
    74   32   72 1
    75   33   73 1
    76   33   74 1
    77   34   75 1
    78   34   76 1
    79   34   77 1
@<TRIPOS>PROPERTY_DATA
  Total_Score	| 11.0945
  Crash		| -3.1811
  Polar		| 4.9935
  FragIndex	| 1
  FragRMSD	| 1.112

