@<TRIPOS>MOLECULE
BindingDB_29930
 76 78 0 0 0
SMALL
NO_CHARGES


@<TRIPOS>ATOM
1    C        31.3163   -7.9326  -14.6676  C     
2    C        32.1365   -8.4573  -13.6407  C     
3    C        33.4753   -8.8130  -13.8876  C     
4    C        34.0248   -8.6229  -15.1678  C     
5    C        33.2359   -8.0843  -16.1946  C     
6    C        31.8910   -7.7448  -15.9484  C     
7    C        29.8798   -7.5966  -14.4001  C     
8    C        29.0296   -8.8248  -13.8991  C     
9    O        29.8677   -6.5478  -13.4020  O     
10   C        29.6363   -5.1979  -13.8420  C     
11   C        28.7863   -4.4385  -12.7933  C     
12   C        27.3809   -4.0425  -13.3197  C     
13   O        26.7053   -5.1373  -13.9439  O     
14   C        28.0298  -11.1436  -14.4753  C     
15   C        28.9118   -9.9650  -14.9621  C     
16   C        27.5934   -8.4433  -13.4185  C     
17   N        26.9244   -9.6285  -12.8786  N     
18   C        26.6832  -10.6616  -13.8762  C     
19   C        26.7034   -9.8221  -11.5601  C     
20   O        26.3501  -10.9227  -11.1479  O     
21   N        26.9270   -8.8707  -10.6568  N     
22   C        26.9872   -8.9774   -9.2217  C     
23   C        25.5721   -8.6564   -8.6470  C     
24   N        25.4573   -8.5801   -7.1686  N     
25   C        28.0835   -7.9930   -8.6905  C     
26   C        29.4740   -8.0398   -9.4122  C     
27   C        30.2438   -6.6931   -9.2581  C     
28   C        30.3664   -9.2162   -8.9089  C     
29   C        31.7447   -9.2562   -9.6209  C     
30   C        32.4918   -7.8981   -9.5631  C     
31   C        31.6053   -6.7098  -10.0055  C     
32   Cl       34.4102   -9.4926  -12.6557  Cl    
33   C        25.9237   -9.7472   -6.3938  C     
34   H        31.7609   -8.5822  -12.7063  H     
35   H        34.9938   -8.8883  -15.3620  H     
36   H        33.6314   -7.9559  -17.1273  H     
37   H        31.3347   -7.3565  -16.7140  H     
38   H        29.4134   -7.2543  -15.3362  H     
39   H        29.5373   -9.2425  -13.0255  H     
40   H        30.5906   -4.6914  -13.9762  H     
41   H        29.1010   -5.1905  -14.7920  H     
42   H        28.6574   -5.0673  -11.9076  H     
43   H        29.3178   -3.5297  -12.4855  H     
44   H        26.7637   -3.6891  -12.4850  H     
45   H        27.4737   -3.2339  -14.0489  H     
46   H        26.4890   -5.7494  -13.2116  H     
47   H        27.8431  -11.8240  -15.3125  H     
48   H        28.5743  -11.7021  -13.7094  H     
49   H        28.4750   -9.5513  -15.8752  H     
50   H        29.9081  -10.3472  -15.2113  H     
51   H        27.6645   -7.6335  -12.6987  H     
52   H        27.0124   -8.0459  -14.2580  H     
53   H        26.0506  -10.2612  -14.6773  H     
54   H        26.1545  -11.5349  -13.4851  H     
55   H        27.0992   -7.9856  -11.0024  H     
56   H        27.2609   -9.9932   -8.9348  H     
57   H        25.2452   -7.6896   -9.0355  H     
58   H        24.8611   -9.4044   -9.0097  H     
59   H        25.9349   -7.7475   -6.8217  H     
60   H        24.4609   -8.4658   -6.9662  H     
61   H        27.6827   -6.9794   -8.7805  H     
62   H        28.2425   -8.1788   -7.6274  H     
63   H        29.3110   -8.1790  -10.4836  H     
64   H        29.6411   -5.8740   -9.6647  H     
65   H        30.4217   -6.4873   -8.1972  H     
66   H        30.5324   -9.1157   -7.8335  H     
67   H        29.8652  -10.1707   -9.0883  H     
68   H        32.3698  -10.0225   -9.1468  H     
69   H        31.5970   -9.5379  -10.6637  H     
70   H        32.8381   -7.7336   -8.5365  H     
71   H        33.3777   -7.9457  -10.2036  H     
72   H        31.4193   -6.7726  -11.0785  H     
73   H        32.1358   -5.7750   -9.8142  H     
74   H        25.4579  -10.6691   -6.7626  H     
75   H        25.6441   -9.6074   -5.3426  H     
76   H        27.0134   -9.8444   -6.4548  H     
@<TRIPOS>BOND
     1    1    2 1
     2    1    6 2
     3    1    7 1
     4    2    3 2
     5    3    4 1
     6    3   32 1
     7    4    5 2
     8    5    6 1
     9    7    8 1
    10    7    9 1
    11    8   15 1
    12    8   16 1
    13    9   10 1
    14   10   11 1
    15   11   12 1
    16   12   13 1
    17   14   15 1
    18   14   18 1
    19   16   17 1
    20   17   18 1
    21   17   19 1
    22   19   20 2
    23   19   21 am
    24   21   22 1
    25   22   23 1
    26   22   25 1
    27   23   24 1
    28   24   33 1
    29   25   26 1
    30   26   27 1
    31   26   28 1
    32   27   31 1
    33   28   29 1
    34   29   30 1
    35   30   31 1
    36    2   34 1
    37    4   35 1
    38    5   36 1
    39    6   37 1
    40    7   38 1
    41    8   39 1
    42   10   40 1
    43   10   41 1
    44   11   42 1
    45   11   43 1
    46   12   44 1
    47   12   45 1
    48   13   46 1
    49   14   47 1
    50   14   48 1
    51   15   49 1
    52   15   50 1
    53   16   51 1
    54   16   52 1
    55   18   53 1
    56   18   54 1
    57   21   55 1
    58   22   56 1
    59   23   57 1
    60   23   58 1
    61   24   59 1
    62   24   60 1
    63   25   61 1
    64   25   62 1
    65   26   63 1
    66   27   64 1
    67   27   65 1
    68   28   66 1
    69   28   67 1
    70   29   68 1
    71   29   69 1
    72   30   70 1
    73   30   71 1
    74   31   72 1
    75   31   73 1
    76   33   74 1
    77   33   75 1
    78   33   76 1
@<TRIPOS>PROPERTY_DATA
  Total_Score	| 14.3448
  Crash		| -1.0646
  Polar		| 6.9524
  FragIndex	| 1
  FragRMSD	| 0.375

