@<TRIPOS>MOLECULE
BindingDB_50382332
 78 80 0 0 0
SMALL
NO_CHARGES


@<TRIPOS>ATOM
1    C        29.0697   -9.9618  -14.3338  C     
2    C        28.3956  -10.4914  -13.0233  C     
3    N        27.0288  -10.0356  -12.8064  N     
4    C        26.1374  -10.2128  -13.9479  C     
5    C        26.7185   -9.6232  -15.2580  C     
6    C        28.1181  -10.2246  -15.5378  C     
7    C        27.5231   -3.3874  -13.4245  C     
8    N        28.5785   -4.2032  -13.6609  N     
9    O        27.7826   -2.0663  -13.2762  O     
10   O        26.2473   -3.8495  -13.3390  O     
11   C        25.0510   -3.0937  -13.1011  C     
12   C        28.5192   -5.6103  -13.9081  C     
13   C        29.4783   -6.3793  -12.9696  C     
14   O        29.3490   -7.8178  -13.0504  O     
15   C        29.6367   -8.4832  -14.3044  C     
16   C        31.1097   -8.4615  -14.5903  C     
17   C        31.6063   -8.1103  -15.8691  C     
18   C        32.9864   -8.1682  -16.1388  C     
19   C        33.8854   -8.5613  -15.1367  C     
20   C        33.4122   -8.8976  -13.8537  C     
21   C        32.0307   -8.8426  -13.5865  C     
22   C        26.5770   -9.6473  -11.5929  C     
23   O        25.4408   -9.2039  -11.4750  O     
24   N        27.3256   -9.6833  -10.4823  N     
25   C        27.1393   -9.0896   -9.1860  C     
26   C        25.7015   -8.7674   -8.6988  C     
27   C        28.1256   -7.8602   -9.1110  C     
28   C        29.3992   -7.9292   -8.2081  C     
29   C        30.4041   -9.1192   -8.3992  C     
30   C        31.2935   -8.9228   -9.6584  C     
31   O        32.0222   -7.6796   -9.5663  O     
32   C        31.1667   -6.5138   -9.5056  C     
33   C        30.2038   -6.5704   -8.2828  C     
34   N        25.5163   -8.5935   -7.2347  N     
35   C        25.9728   -9.6792   -6.3389  C     
36   Cl       34.5003   -9.3877  -12.6541  Cl    
37   H        29.9077  -10.6434  -14.5096  H     
38   H        28.3362  -11.5848  -13.0862  H     
39   H        29.0799  -10.2670  -12.2034  H     
40   H        25.9871  -11.2907  -14.0850  H     
41   H        25.1371   -9.7944  -13.7943  H     
42   H        26.0530   -9.8634  -16.0877  H     
43   H        26.7870   -8.5344  -15.1836  H     
44   H        28.5297   -9.8154  -16.4601  H     
45   H        28.0085  -11.3001  -15.6868  H     
46   H        29.4530   -3.7842  -13.6967  H     
47   H        25.2511   -2.0330  -12.9281  H     
48   H        24.5252   -3.5036  -12.2370  H     
49   H        24.4097   -3.1863  -13.9755  H     
50   H        27.5039   -6.0027  -13.8045  H     
51   H        28.8449   -5.7755  -14.9341  H     
52   H        30.5100   -6.0590  -13.1655  H     
53   H        29.2346   -6.1154  -11.9393  H     
54   H        29.1152   -7.9171  -15.0809  H     
55   H        30.9648   -7.8312  -16.6145  H     
56   H        33.3396   -7.9405  -17.0686  H     
57   H        34.8862   -8.6136  -15.3441  H     
58   H        31.6956   -9.0950  -12.6534  H     
59   H        28.1897  -10.1095  -10.5865  H     
60   H        27.4431   -9.8787   -8.5135  H     
61   H        25.3728   -7.8406   -9.1907  H     
62   H        25.0455   -9.5804   -9.0316  H     
63   H        28.4408   -7.5981  -10.1268  H     
64   H        27.5655   -6.9793   -8.7780  H     
65   H        29.0316   -8.0141   -7.1765  H     
66   H        31.0542   -9.1785   -7.5236  H     
67   H        29.9171  -10.0921   -8.4549  H     
68   H        32.0258   -9.7342   -9.6871  H     
69   H        30.6951   -8.9810  -10.5794  H     
70   H        31.8199   -5.6372   -9.4177  H     
71   H        30.6101   -6.4172  -10.4470  H     
72   H        29.5249   -5.7081   -8.3481  H     
73   H        30.7956   -6.4482   -7.3726  H     
74   H        26.0106   -7.7555   -6.9345  H     
75   H        24.5133   -8.4337   -7.0719  H     
76   H        25.5671  -10.6569   -6.6355  H     
77   H        27.0718   -9.7188   -6.3390  H     
78   H        25.6407   -9.4442   -5.3203  H     
@<TRIPOS>BOND
     1    1    2 1
     2    1    6 1
     3    1   15 1
     4    2    3 1
     5    3    4 1
     6    3   22 1
     7    4    5 1
     8    5    6 1
     9    7    8 am
    10    7    9 2
    11    7   10 1
    12    8   12 1
    13   10   11 1
    14   12   13 1
    15   13   14 1
    16   15   14 1
    17   15   16 1
    18   16   17 2
    19   16   21 1
    20   17   18 1
    21   18   19 2
    22   19   20 1
    23   20   21 2
    24   20   36 1
    25   22   23 2
    26   22   24 am
    27   25   24 1
    28   25   26 1
    29   25   27 1
    30   26   34 1
    31   27   28 1
    32   28   29 1
    33   28   33 1
    34   29   30 1
    35   30   31 1
    36   31   32 1
    37   32   33 1
    38   34   35 1
    39    1   37 1
    40    2   38 1
    41    2   39 1
    42    4   40 1
    43    4   41 1
    44    5   42 1
    45    5   43 1
    46    6   44 1
    47    6   45 1
    48    8   46 1
    49   11   47 1
    50   11   48 1
    51   11   49 1
    52   12   50 1
    53   12   51 1
    54   13   52 1
    55   13   53 1
    56   15   54 1
    57   17   55 1
    58   18   56 1
    59   19   57 1
    60   21   58 1
    61   24   59 1
    62   25   60 1
    63   26   61 1
    64   26   62 1
    65   27   63 1
    66   27   64 1
    67   28   65 1
    68   29   66 1
    69   29   67 1
    70   30   68 1
    71   30   69 1
    72   32   70 1
    73   32   71 1
    74   33   72 1
    75   33   73 1
    76   34   74 1
    77   34   75 1
    78   35   76 1
    79   35   77 1
    80   35   78 1
@<TRIPOS>PROPERTY_DATA
  Total_Score	| 12.6009
  Crash		| -1.9550
  Polar		| 5.2601
  FragIndex	| 1
  FragRMSD	| 1.050

