@<TRIPOS>MOLECULE
BindingDB_50382333
 81 83 0 0 0
SMALL
NO_CHARGES


@<TRIPOS>ATOM
1    C        29.1237   -8.8011  -13.9233  C     
2    C        27.7167   -8.4086  -13.3683  C     
3    N        27.0616   -9.6000  -12.8495  N     
4    C        26.7585  -10.5871  -13.8798  C     
5    C        28.0582  -11.0601  -14.5758  C     
6    C        28.9289   -9.8637  -15.0465  C     
7    C        27.3425   -3.4022  -12.8394  C     
8    N        28.1802   -4.2970  -12.2798  N     
9    O        27.7899   -2.4059  -13.6384  O     
10   O        26.0189   -3.5326  -12.5750  O     
11   C        24.9771   -2.7043  -13.0968  C     
12   C        29.5959   -4.3350  -12.4761  C     
13   C        29.9573   -5.1854  -13.7067  C     
14   O        29.9330   -6.5747  -13.3319  O     
15   C        29.9678   -7.5664  -14.3796  C     
16   C        31.3986   -7.9303  -14.6778  C     
17   C        31.9559   -7.7783  -15.9700  C     
18   C        33.2821   -8.1718  -16.2348  C     
19   C        34.0745   -8.7191  -15.2080  C     
20   C        32.2294   -8.4494  -13.6497  C     
21   C        26.9091   -9.8507  -11.5339  C     
22   O        26.5416  -10.9730  -11.1726  O     
23   N        27.1671   -8.9411  -10.5990  N     
24   C        27.1816   -9.1206   -9.1571  C     
25   C        25.7659   -8.6773   -8.6571  C     
26   C        28.3697   -8.3126   -8.5445  C     
27   C        29.7181   -8.2622   -9.3501  C     
28   C        30.4567   -6.9042   -9.1479  C     
29   C        31.7455   -6.8165  -10.0176  C     
30   C        32.7267   -7.9797   -9.6974  C     
31   C        32.0298   -9.3627   -9.8112  C     
32   C        30.7027   -9.4355   -9.0105  C     
33   N        25.5086   -8.6050   -7.1961  N     
34   C        25.8027   -9.8131   -6.4018  C     
35   O        28.6891   -8.8286   -7.2416  O     
36   C        33.5487   -8.8562  -13.9129  C     
37   Cl       34.4783   -9.5392  -12.6765  Cl    
38   H        29.6529   -9.2859  -13.0934  H     
39   H        27.8413   -7.6285  -12.6179  H     
40   H        27.1012   -7.9580  -14.1563  H     
41   H        26.2358  -11.4705  -13.5023  H     
42   H        26.0956  -10.1363  -14.6233  H     
43   H        28.6357  -11.6637  -13.8686  H     
44   H        27.8095  -11.6911  -15.4377  H     
45   H        28.4531   -9.3982  -15.9154  H     
46   H        29.9082  -10.2500  -15.3636  H     
47   H        27.7810   -5.0154  -11.7613  H     
48   H        25.1647   -1.6549  -12.8591  H     
49   H        24.0290   -3.0043  -12.6481  H     
50   H        24.9135   -2.8267  -14.1796  H     
51   H        30.0150   -3.3309  -12.5998  H     
52   H        30.0480   -4.7801  -11.5869  H     
53   H        29.2350   -4.9676  -14.4998  H     
54   H        30.9557   -4.9157  -14.0570  H     
55   H        29.4847   -7.1593  -15.2719  H     
56   H        31.3872   -7.3927  -16.7331  H     
57   H        33.6675   -8.0729  -17.1752  H     
58   H        35.0296   -9.0233  -15.4148  H     
59   H        31.8608   -8.5409  -12.7054  H     
60   H        27.2601   -8.0396  -10.9077  H     
61   H        27.3320  -10.1763   -8.9248  H     
62   H        25.5663   -7.6745   -9.0488  H     
63   H        25.0231   -9.3380   -9.0946  H     
64   H        28.0192   -7.2795   -8.3943  H     
65   H        29.5017   -8.3333  -10.4338  H     
66   H        29.8062   -6.0777   -9.4502  H     
67   H        30.7166   -6.7593   -8.0939  H     
68   H        31.4765   -6.8718  -11.0794  H     
69   H        32.2456   -5.8520   -9.8528  H     
70   H        33.5820   -7.9457  -10.3797  H     
71   H        33.1059   -7.8503   -8.6775  H     
72   H        31.8167   -9.5724  -10.8631  H     
73   H        32.7139  -10.1324   -9.4401  H     
74   H        30.9569   -9.4207   -7.9480  H     
75   H        30.2153  -10.3930   -9.2221  H     
76   H        25.9898   -7.7784   -6.8207  H     
77   H        24.5114   -8.4128   -7.1111  H     
78   H        25.2118  -10.6600   -6.7636  H     
79   H        25.5334   -9.6176   -5.3652  H     
80   H        26.8775  -10.0602   -6.4425  H     
81   H        28.2630   -8.2444   -6.5832  H     
@<TRIPOS>BOND
     1    1    2 1
     2    1    6 1
     3    1   15 1
     4    2    3 1
     5    3    4 1
     6    3   21 1
     7    4    5 1
     8    5    6 1
     9    7    8 am
    10    7    9 2
    11    7   10 1
    12    8   12 1
    13   10   11 1
    14   12   13 1
    15   13   14 1
    16   15   14 1
    17   15   16 1
    18   16   17 2
    19   16   20 1
    20   17   18 1
    21   18   19 2
    22   19   36 1
    23   20   36 2
    24   21   22 2
    25   21   23 am
    26   24   23 1
    27   24   25 1
    28   24   26 1
    29   25   33 1
    30   26   27 1
    31   26   35 1
    32   27   28 1
    33   27   32 1
    34   28   29 1
    35   29   30 1
    36   30   31 1
    37   31   32 1
    38   33   34 1
    39   36   37 1
    40    1   38 1
    41    2   39 1
    42    2   40 1
    43    4   41 1
    44    4   42 1
    45    5   43 1
    46    5   44 1
    47    6   45 1
    48    6   46 1
    49    8   47 1
    50   11   48 1
    51   11   49 1
    52   11   50 1
    53   12   51 1
    54   12   52 1
    55   13   53 1
    56   13   54 1
    57   15   55 1
    58   17   56 1
    59   18   57 1
    60   19   58 1
    61   20   59 1
    62   23   60 1
    63   24   61 1
    64   25   62 1
    65   25   63 1
    66   26   64 1
    67   27   65 1
    68   28   66 1
    69   28   67 1
    70   29   68 1
    71   29   69 1
    72   30   70 1
    73   30   71 1
    74   31   72 1
    75   31   73 1
    76   32   74 1
    77   32   75 1
    78   33   76 1
    79   33   77 1
    80   34   78 1
    81   34   79 1
    82   34   80 1
    83   35   81 1
@<TRIPOS>PROPERTY_DATA
  Total_Score	| 17.4647
  Crash		| -1.8053
  Polar		| 8.8945
  FragIndex	| 1
  FragRMSD	| 0.344

