@<TRIPOS>MOLECULE
BindingDB_50382331
 78 80 0 0 0
SMALL
NO_CHARGES


@<TRIPOS>ATOM
1    C        29.0185   -9.6036  -15.0670  C     
2    C        28.7306  -10.6074  -13.9017  C     
3    N        27.6686  -10.0982  -13.0190  N     
4    C        26.3766   -9.9408  -13.6584  C     
5    C        26.5175   -8.9565  -14.8455  C     
6    C        27.6725   -9.3447  -15.8007  C     
7    C        27.6294   -4.2761  -13.6546  C     
8    N        28.5017   -5.2912  -13.8167  N     
9    O        26.4221   -4.4282  -14.2398  O     
10   O        27.9344   -3.1512  -12.9510  O     
11   C        27.0667   -2.0404  -12.7265  C     
12   C        29.8246   -5.3767  -13.2892  C     
13   C        30.0173   -6.7601  -12.6265  C     
14   O        29.3853   -7.8653  -13.3123  O     
15   C        29.7833   -8.2850  -14.6407  C     
16   C        31.2670   -8.4411  -14.7928  C     
17   C        31.8976   -8.0960  -16.0182  C     
18   C        33.2861   -8.2293  -16.1759  C     
19   C        34.0744   -8.6965  -15.1138  C     
20   C        32.0739   -8.9318  -13.7422  C     
21   C        27.8992   -9.7829  -11.7256  C     
22   O        29.0249   -9.9558  -11.3131  O     
23   N        27.0242   -9.2431  -10.8739  N     
24   C        27.1612   -9.0469   -9.4330  C     
25   C        25.7412   -8.6413   -8.9098  C     
26   C        28.2662   -8.0013   -9.0031  C     
27   C        29.7641   -8.3255   -9.3496  C     
28   C        30.2934   -9.7086   -8.8725  C     
29   O        31.5996   -9.9484   -9.4438  O     
30   C        32.6151   -8.9884   -9.0622  C     
31   C        32.1924   -7.5229   -9.3887  C     
32   C        30.7621   -7.2407   -8.8546  C     
33   N        25.5190   -8.5238   -7.4453  N     
34   C        25.8806   -9.6780   -6.6023  C     
35   C        33.4711   -9.0376  -13.8908  C     
36   Cl       34.4268   -9.5718  -12.5960  Cl    
37   H        29.6523  -10.1364  -15.7867  H     
38   H        28.4138  -11.5726  -14.3183  H     
39   H        29.6840  -10.8087  -13.4140  H     
40   H        26.0341  -10.9161  -14.0184  H     
41   H        25.5964   -9.5672  -12.9946  H     
42   H        25.5866   -8.9454  -15.4031  H     
43   H        26.6970   -7.9535  -14.4476  H     
44   H        27.8066   -8.5743  -16.5672  H     
45   H        27.3801  -10.2618  -16.3231  H     
46   H        28.1994   -6.0518  -14.3370  H     
47   H        26.7594   -1.5939  -13.6744  H     
48   H        27.5915   -1.2877  -12.1368  H     
49   H        26.1809   -2.3655  -12.1812  H     
50   H        30.5283   -5.2715  -14.1146  H     
51   H        30.0404   -4.5972  -12.5571  H     
52   H        31.0867   -6.9399  -12.4960  H     
53   H        29.5771   -6.7228  -11.6301  H     
54   H        29.4680   -7.4856  -15.3227  H     
55   H        31.3425   -7.7516  -16.8080  H     
56   H        33.7210   -7.9923  -17.0697  H     
57   H        35.0891   -8.7793  -15.2366  H     
58   H        31.6461   -9.1985  -12.8502  H     
59   H        26.1418   -9.0731  -11.2325  H     
60   H        27.3947  -10.0166   -8.9904  H     
61   H        25.0131   -9.3677   -9.2896  H     
62   H        25.4780   -7.6744   -9.3430  H     
63   H        27.9908   -7.0423   -9.4475  H     
64   H        28.2232   -7.8659   -7.9117  H     
65   H        29.8889   -8.4014  -10.4187  H     
66   H        29.6324  -10.4929   -9.2407  H     
67   H        30.3248   -9.7701   -7.7745  H     
68   H        32.8347   -9.0980   -7.9953  H     
69   H        33.5322   -9.2172   -9.6210  H     
70   H        32.9025   -6.8235   -8.9539  H     
71   H        32.2061   -7.3854  -10.4724  H     
72   H        30.4391   -6.2504   -9.1935  H     
73   H        30.7804   -7.2275   -7.7540  H     
74   H        26.0010   -7.7022   -7.0726  H     
75   H        24.5203   -8.3576   -7.3184  H     
76   H        26.9594   -9.8125   -6.5755  H     
77   H        25.4066  -10.5923   -6.9638  H     
78   H        25.5324   -9.4891   -5.5881  H     
@<TRIPOS>BOND
     1    1    2 1
     2    1    6 1
     3    1   15 1
     4    2    3 1
     5    3    4 1
     6    3   21 1
     7    4    5 1
     8    5    6 1
     9    7    8 am
    10    7    9 2
    11    7   10 1
    12    8   12 1
    13   10   11 1
    14   12   13 1
    15   13   14 1
    16   15   14 1
    17   15   16 1
    18   16   17 2
    19   16   20 1
    20   17   18 1
    21   18   19 2
    22   19   35 1
    23   20   35 2
    24   21   22 2
    25   21   23 am
    26   24   23 1
    27   24   25 1
    28   24   26 1
    29   25   33 1
    30   26   27 1
    31   27   28 1
    32   27   32 1
    33   28   29 1
    34   29   30 1
    35   30   31 1
    36   31   32 1
    37   33   34 1
    38   35   36 1
    39    1   37 1
    40    2   38 1
    41    2   39 1
    42    4   40 1
    43    4   41 1
    44    5   42 1
    45    5   43 1
    46    6   44 1
    47    6   45 1
    48    8   46 1
    49   11   47 1
    50   11   48 1
    51   11   49 1
    52   12   50 1
    53   12   51 1
    54   13   52 1
    55   13   53 1
    56   15   54 1
    57   17   55 1
    58   18   56 1
    59   19   57 1
    60   20   58 1
    61   23   59 1
    62   24   60 1
    63   25   61 1
    64   25   62 1
    65   26   63 1
    66   26   64 1
    67   27   65 1
    68   28   66 1
    69   28   67 1
    70   30   68 1
    71   30   69 1
    72   31   70 1
    73   31   71 1
    74   32   72 1
    75   32   73 1
    76   33   74 1
    77   33   75 1
    78   34   76 1
    79   34   77 1
    80   34   78 1
@<TRIPOS>PROPERTY_DATA
  Total_Score	| 10.9207
  Crash		| -3.0969
  Polar		| 6.3115
  FragIndex	| 1
  FragRMSD	| 1.030

