@<TRIPOS>MOLECULE
BindingDB_50305466
 80 82 0 0 0
SMALL
NO_CHARGES


@<TRIPOS>ATOM
1    C        29.5958   -4.3665  -13.2582  C     
2    N        28.3989   -4.5240  -14.0191  N     
3    C        27.2924   -3.7581  -13.9305  C     
4    O        26.2509   -4.0621  -14.7362  O     
5    O        27.2110   -2.7087  -13.0683  O     
6    C        26.0842   -1.8469  -12.9088  C     
7    C        29.8077   -5.5669  -12.3108  C     
8    O        30.5402   -6.6824  -12.8513  O     
9    C        30.2192   -7.4843  -14.0167  C     
10   C        31.9581   -7.7963  -15.8511  C     
11   C        33.1972   -8.3044  -16.2936  C     
12   C        34.0776   -8.9169  -15.3804  C     
13   C        33.7088   -9.0423  -14.0284  C     
14   C        32.4579   -8.5677  -13.5992  C     
15   C        31.5639   -7.9359  -14.4974  C     
16   C        29.2834   -8.7099  -13.6996  C     
17   C        27.8204   -8.2987  -13.3351  C     
18   N        27.1000   -9.4834  -12.8929  N     
19   C        26.8915  -10.4708  -13.9417  C     
20   C        28.2551  -10.9564  -14.4968  C     
21   C        29.1940   -9.7701  -14.8535  C     
22   C        26.8612   -9.7509  -11.5932  C     
23   O        26.5540  -10.8813  -11.2359  O     
24   N        26.9840   -8.8190  -10.6515  N     
25   C        27.0232   -8.9696   -9.2235  C     
26   C        25.6055   -8.6555   -8.6615  C     
27   C        28.1247   -8.0212   -8.6492  C     
28   C        29.5280   -8.0896   -9.3390  C     
29   C        30.3607   -6.7981   -9.0499  C     
30   C        31.7432   -6.8411   -9.7557  C     
31   C        32.5575   -8.0784   -9.3022  C     
32   C        31.7682   -9.3888   -9.5438  C     
33   C        30.3426   -9.3583   -8.9303  C     
34   N        25.4690   -8.5831   -7.1859  N     
35   C        25.9227   -9.7491   -6.4026  C     
36   F        33.5172   -8.2314  -17.5571  F     
37   Cl       34.7490   -9.7856  -12.9204  Cl    
38   H        30.4424   -4.2824  -13.9430  H     
39   H        29.5652   -3.4470  -12.6639  H     
40   H        28.3740   -5.2566  -14.6558  H     
41   H        25.8523   -1.3312  -13.8436  H     
42   H        26.3282   -1.1056  -12.1477  H     
43   H        25.2112   -2.4233  -12.5860  H     
44   H        30.4178   -5.2200  -11.4763  H     
45   H        28.8597   -5.8745  -11.8723  H     
46   H        29.7440   -6.8689  -14.7832  H     
47   H        31.3283   -7.3572  -16.5254  H     
48   H        34.9722   -9.2923  -15.7120  H     
49   H        32.1977   -8.6769  -12.6199  H     
50   H        29.7097   -9.2116  -12.8229  H     
51   H        27.8510   -7.5244  -12.5844  H     
52   H        27.3196   -7.8546  -14.2037  H     
53   H        26.3195  -11.3436  -13.6127  H     
54   H        26.3140  -10.0152  -14.7549  H     
55   H        28.7360  -11.5771  -13.7374  H     
56   H        28.0957  -11.5785  -15.3823  H     
57   H        28.8308   -9.2885  -15.7678  H     
58   H        30.1806  -10.1862  -15.0724  H     
59   H        27.0817   -7.9114  -10.9636  H     
60   H        27.2753   -9.9985   -8.9537  H     
61   H        25.2753   -7.6897   -9.0523  H     
62   H        24.9052   -9.4070   -9.0321  H     
63   H        27.7588   -6.9920   -8.7283  H     
64   H        28.2545   -8.2403   -7.5854  H     
65   H        29.3703   -8.1255  -10.4237  H     
66   H        29.8172   -5.9133   -9.4085  H     
67   H        30.5110   -6.6895   -7.9679  H     
68   H        31.6057   -6.8790  -10.8435  H     
69   H        32.3070   -5.9333   -9.5272  H     
70   H        33.4993   -8.1158   -9.8563  H     
71   H        32.7926   -7.9916   -8.2342  H     
72   H        31.6921   -9.5721  -10.6202  H     
73   H        32.3248  -10.2162   -9.0933  H     
74   H        30.4250   -9.4028   -7.8393  H     
75   H        29.8077  -10.2544   -9.2586  H     
76   H        25.9472   -7.7449   -6.8466  H     
77   H        24.4723   -8.4612   -6.9987  H     
78   H        25.4344  -10.6613   -6.7547  H     
79   H        25.6527   -9.5890   -5.3567  H     
80   H        27.0063   -9.8628   -6.4650  H     
@<TRIPOS>BOND
     1    1    2 1
     2    1    7 1
     3    2    3 am
     4    3    4 2
     5    3    5 1
     6    5    6 1
     7    7    8 1
     8    8    9 1
     9    9   15 1
    10    9   16 1
    11   10   11 2
    12   10   15 1
    13   11   12 1
    14   11   36 1
    15   12   13 2
    16   13   14 1
    17   13   37 1
    18   14   15 2
    19   16   17 1
    20   16   21 1
    21   17   18 1
    22   18   19 1
    23   18   22 1
    24   19   20 1
    25   20   21 1
    26   22   23 2
    27   22   24 am
    28   24   25 1
    29   25   26 1
    30   25   27 1
    31   26   34 1
    32   27   28 1
    33   28   29 1
    34   28   33 1
    35   29   30 1
    36   30   31 1
    37   31   32 1
    38   32   33 1
    39   34   35 1
    40    1   38 1
    41    1   39 1
    42    2   40 1
    43    6   41 1
    44    6   42 1
    45    6   43 1
    46    7   44 1
    47    7   45 1
    48    9   46 1
    49   10   47 1
    50   12   48 1
    51   14   49 1
    52   16   50 1
    53   17   51 1
    54   17   52 1
    55   19   53 1
    56   19   54 1
    57   20   55 1
    58   20   56 1
    59   21   57 1
    60   21   58 1
    61   24   59 1
    62   25   60 1
    63   26   61 1
    64   26   62 1
    65   27   63 1
    66   27   64 1
    67   28   65 1
    68   29   66 1
    69   29   67 1
    70   30   68 1
    71   30   69 1
    72   31   70 1
    73   31   71 1
    74   32   72 1
    75   32   73 1
    76   33   74 1
    77   33   75 1
    78   34   76 1
    79   34   77 1
    80   35   78 1
    81   35   79 1
    82   35   80 1
@<TRIPOS>PROPERTY_DATA
  Total_Score	| 13.7218
  Crash		| -2.7113
  Polar		| 7.2818
  FragIndex	| 1
  FragRMSD	| 0.799

