@<TRIPOS>MOLECULE
BindingDB_50305462
 80 82 0 0 0
SMALL
NO_CHARGES


@<TRIPOS>ATOM
1    C        29.5267   -4.2740  -12.6551  C     
2    N        28.1372   -4.3793  -12.3558  N     
3    C        27.1334   -3.9039  -13.1214  C     
4    O        25.8705   -4.1658  -12.7161  O     
5    O        27.3467   -3.1707  -14.2465  O     
6    C        26.3087   -2.6533  -15.0840  C     
7    C        29.9268   -5.1992  -13.8159  C     
8    O        29.8974   -6.5680  -13.3630  O     
9    C        29.9216   -7.6125  -14.3593  C     
10   C        32.2226   -8.5311  -13.6770  C     
11   C        33.5405   -8.8756  -13.9808  C     
12   C        34.0383   -8.6641  -15.2826  C     
13   C        33.1928   -8.1256  -16.2646  C     
14   C        31.8783   -7.7634  -15.9520  C     
15   C        31.3515   -7.9831  -14.6507  C     
16   C        29.0487   -8.8231  -13.8655  C     
17   C        27.6727   -8.3643  -13.3027  C     
18   N        26.9604   -9.5343  -12.8037  N     
19   C        26.6314  -10.5052  -13.8362  C     
20   C        27.9233  -11.0841  -14.4650  C     
21   C        28.8782   -9.9446  -14.9347  C     
22   C        26.8135   -9.7861  -11.4915  C     
23   O        26.5050  -10.9136  -11.1080  O     
24   N        27.0466   -8.8627  -10.5581  N     
25   C        27.0741   -8.9848   -9.1228  C     
26   C        25.6247   -8.6779   -8.6339  C     
27   C        28.1556   -7.9998   -8.5334  C     
28   C        29.5763   -8.0612   -9.2178  C     
29   C        30.3461   -6.7052   -9.1392  C     
30   C        31.6720   -6.7302   -9.9366  C     
31   C        32.5848   -7.9118   -9.5321  C     
32   C        31.8418   -9.2771   -9.4452  C     
33   C        30.5029   -9.1859   -8.6555  C     
34   N        25.4462   -8.5750   -7.1692  N     
35   Cl       34.5772   -9.5380  -12.7954  Cl    
36   C        25.8707   -9.7557   -6.3920  C     
37   F        31.8064   -8.7798  -12.4366  F     
38   H        29.7958   -3.2392  -12.8790  H     
39   H        30.0742   -4.5773  -11.7662  H     
40   H        27.8848   -4.8928  -11.5699  H     
41   H        25.7146   -3.4653  -15.5034  H     
42   H        26.7570   -2.0921  -15.9005  H     
43   H        25.6624   -1.9956  -14.5020  H     
44   H        29.2361   -5.0321  -14.6474  H     
45   H        30.9346   -4.9504  -14.1468  H     
46   H        29.4206   -7.2529  -15.2662  H     
47   H        35.0105   -8.8935  -15.5058  H     
48   H        33.5605   -7.9683  -17.2053  H     
49   H        31.3138   -7.2965  -16.6677  H     
50   H        29.5505   -9.2831  -13.0179  H     
51   H        27.8582   -7.6268  -12.5355  H     
52   H        27.0870   -7.8668  -14.0712  H     
53   H        26.0179  -11.3402  -13.4650  H     
54   H        26.0407  -10.0210  -14.6251  H     
55   H        28.4245  -11.7088  -13.7204  H     
56   H        27.6722  -11.7179  -15.3189  H     
57   H        28.4804   -9.5156  -15.8562  H     
58   H        29.8480  -10.3952  -15.1643  H     
59   H        27.2278   -7.9705  -10.8736  H     
60   H        27.3500  -10.0087   -8.8461  H     
61   H        25.3024   -7.7204   -9.0567  H     
62   H        24.9468   -9.4372   -9.0403  H     
63   H        27.7328   -6.9933   -8.5960  H     
64   H        28.2757   -8.1795   -7.4563  H     
65   H        29.4426   -8.2918  -10.2755  H     
66   H        29.7197   -5.9071   -9.5547  H     
67   H        30.5511   -6.4590   -8.0875  H     
68   H        31.4256   -6.8334  -11.0284  H     
69   H        32.2139   -5.7925   -9.8053  H     
70   H        33.4193   -8.0059  -10.2307  H     
71   H        33.0134   -7.6951   -8.5515  H     
72   H        31.6328   -9.6443  -10.4592  H     
73   H        32.4977  -10.0102   -8.9574  H     
74   H        30.7384   -8.9735   -7.6121  H     
75   H        29.9965  -10.1613   -8.6933  H     
76   H        25.9225   -7.7388   -6.8130  H     
77   H        24.4492   -8.4401   -7.0105  H     
78   H        25.4027  -10.6618   -6.7799  H     
79   H        25.5599   -9.6119   -5.3608  H     
80   H        26.9515   -9.8754   -6.4127  H     
@<TRIPOS>BOND
     1    1    2 1
     2    1    7 1
     3    2    3 am
     4    3    4 2
     5    3    5 1
     6    5    6 1
     7    7    8 1
     8    8    9 1
     9    9   15 1
    10    9   16 1
    11   10   11 2
    12   10   15 1
    13   10   37 1
    14   11   12 1
    15   11   35 1
    16   12   13 2
    17   13   14 1
    18   14   15 2
    19   16   17 1
    20   16   21 1
    21   17   18 1
    22   18   19 1
    23   18   22 1
    24   19   20 1
    25   20   21 1
    26   22   23 2
    27   22   24 am
    28   24   25 1
    29   25   26 1
    30   25   27 1
    31   26   34 1
    32   27   28 1
    33   28   29 1
    34   28   33 1
    35   29   30 1
    36   30   31 1
    37   31   32 1
    38   32   33 1
    39   34   36 1
    40    1   38 1
    41    1   39 1
    42    2   40 1
    43    6   41 1
    44    6   42 1
    45    6   43 1
    46    7   44 1
    47    7   45 1
    48    9   46 1
    49   12   47 1
    50   13   48 1
    51   14   49 1
    52   16   50 1
    53   17   51 1
    54   17   52 1
    55   19   53 1
    56   19   54 1
    57   20   55 1
    58   20   56 1
    59   21   57 1
    60   21   58 1
    61   24   59 1
    62   25   60 1
    63   26   61 1
    64   26   62 1
    65   27   63 1
    66   27   64 1
    67   28   65 1
    68   29   66 1
    69   29   67 1
    70   30   68 1
    71   30   69 1
    72   31   70 1
    73   31   71 1
    74   32   72 1
    75   32   73 1
    76   33   74 1
    77   33   75 1
    78   34   76 1
    79   34   77 1
    80   36   78 1
    81   36   79 1
    82   36   80 1
@<TRIPOS>PROPERTY_DATA
  Total_Score	| 13.9998
  Crash		| -2.9386
  Polar		| 6.2163
  FragIndex	| 1
  FragRMSD	| 0.796

