@<TRIPOS>MOLECULE
BindingDB_50382334
 78 80 0 0 0
SMALL
NO_CHARGES


@<TRIPOS>ATOM
1    C        27.5251   -2.7900  -13.0658  C     
2    N        28.7622   -3.2981  -12.8816  N     
3    O        27.4415   -1.4753  -13.3543  O     
4    O        26.4007   -3.5474  -12.9721  O     
5    C        29.0725   -4.6683  -12.6369  C     
6    C        29.9061   -5.2324  -13.8092  C     
7    O        30.3971   -6.5601  -13.5361  O     
8    C        30.1366   -7.6375  -14.4761  C     
9    N        27.0437   -9.6376  -12.9930  N     
10   C        27.8614   -8.4654  -13.3298  C     
11   C        29.2664   -8.8483  -13.9338  C     
12   C        29.0707   -9.9190  -15.0617  C     
13   C        28.1424  -11.0841  -14.6495  C     
14   C        26.8047  -10.5368  -14.1130  C     
15   C        26.5262   -9.9045  -11.7733  C     
16   N        26.3741   -8.9958  -10.8071  N     
17   O        26.1727  -11.0503  -11.5116  O     
18   C        25.7441   -9.1645   -9.5138  C     
19   C        26.4888   -8.5577   -8.2715  C     
20   C        27.8311   -9.2731   -7.8623  C     
21   C        29.7101   -7.4520   -7.6283  C     
22   C        29.1870   -8.7033   -8.3945  C     
23   C        29.1114   -8.3740   -9.9015  C     
24   C        30.3849   -7.7393  -10.4657  C     
25   C        30.8665   -6.5703   -9.5715  C     
26   O        30.9530   -6.9760   -8.1899  O     
27   N        25.5585   -8.4281   -7.1087  N     
28   C        25.2416   -9.6201   -6.2875  C     
29   C        31.5277   -8.0507  -14.8420  C     
30   C        32.3835   -8.6017  -13.8552  C     
31   C        33.6959   -8.9964  -14.1688  C     
32   C        34.1726   -8.8498  -15.4837  C     
33   C        33.3423   -8.2944  -16.4747  C     
34   C        32.0309   -7.8925  -16.1552  C     
35   Cl       34.6859   -9.6367  -12.9559  Cl    
36   C        25.0466   -3.1025  -13.1193  C     
37   H        29.5051   -2.6755  -12.9235  H     
38   H        29.6558   -4.7375  -11.7149  H     
39   H        28.1617   -5.2599  -12.5260  H     
40   H        29.3253   -5.1891  -14.7351  H     
41   H        30.7825   -4.5950  -13.9455  H     
42   H        29.6163   -7.2624  -15.3647  H     
43   H        27.3142   -7.8622  -14.0598  H     
44   H        28.0312   -7.8324  -12.4622  H     
45   H        29.8237   -9.3365  -13.1301  H     
46   H        28.6526   -9.4391  -15.9516  H     
47   H        30.0334  -10.3550  -15.3390  H     
48   H        27.9576  -11.7280  -15.5137  H     
49   H        28.6224  -11.6845  -13.8734  H     
50   H        26.1629  -11.3907  -13.8756  H     
51   H        26.2918   -9.9883  -14.9094  H     
52   H        26.6232   -8.0883  -11.0357  H     
53   H        24.7771   -8.6593   -9.5992  H     
54   H        25.5280  -10.2154   -9.3084  H     
55   H        26.7167   -7.5210   -8.5262  H     
56   H        27.9280   -9.2805   -6.7749  H     
57   H        27.7640  -10.3228   -8.1640  H     
58   H        28.9728   -6.6454   -7.6538  H     
59   H        29.8969   -7.7109   -6.5833  H     
60   H        29.9411   -9.4901   -8.2682  H     
61   H        28.8797   -9.2778  -10.4706  H     
62   H        28.3277   -7.6315  -10.0538  H     
63   H        31.1725   -8.4897  -10.5734  H     
64   H        30.0855   -7.3690  -11.4415  H     
65   H        31.8571   -6.2511   -9.8979  H     
66   H        30.1910   -5.7144   -9.6727  H     
67   H        25.9599   -7.7143   -6.4951  H     
68   H        24.6617   -8.0749   -7.4504  H     
69   H        24.8926  -10.4466   -6.9040  H     
70   H        24.4461   -9.3592   -5.5902  H     
71   H        26.1046   -9.9423   -5.7057  H     
72   H        32.0504   -8.7143  -12.8944  H     
73   H        35.1179   -9.1575  -15.7227  H     
74   H        33.6904   -8.1874  -17.4304  H     
75   H        31.4442   -7.4905  -16.8897  H     
76   H        24.9600   -2.0142  -13.1729  H     
77   H        24.4652   -3.4544  -12.2665  H     
78   H        24.6331   -3.5300  -14.0329  H     
@<TRIPOS>BOND
     1    1    2 am
     2    1    3 2
     3    1    4 1
     4    2    5 1
     5    4   36 1
     6    5    6 1
     7    6    7 1
     8    8    7 1
     9    8   11 1
    10    8   29 1
    11    9   10 1
    12    9   14 1
    13    9   15 1
    14   10   11 1
    15   11   12 1
    16   12   13 1
    17   13   14 1
    18   15   16 am
    19   15   17 2
    20   16   18 1
    21   18   19 1
    22   19   20 1
    23   19   27 1
    24   22   20 1
    25   21   22 1
    26   21   26 1
    27   22   23 1
    28   23   24 1
    29   24   25 1
    30   25   26 1
    31   27   28 1
    32   29   30 1
    33   29   34 2
    34   30   31 2
    35   31   32 1
    36   31   35 1
    37   32   33 2
    38   33   34 1
    39    2   37 1
    40    5   38 1
    41    5   39 1
    42    6   40 1
    43    6   41 1
    44    8   42 1
    45   10   43 1
    46   10   44 1
    47   11   45 1
    48   12   46 1
    49   12   47 1
    50   13   48 1
    51   13   49 1
    52   14   50 1
    53   14   51 1
    54   16   52 1
    55   18   53 1
    56   18   54 1
    57   19   55 1
    58   20   56 1
    59   20   57 1
    60   21   58 1
    61   21   59 1
    62   22   60 1
    63   23   61 1
    64   23   62 1
    65   24   63 1
    66   24   64 1
    67   25   65 1
    68   25   66 1
    69   27   67 1
    70   27   68 1
    71   28   69 1
    72   28   70 1
    73   28   71 1
    74   30   72 1
    75   32   73 1
    76   33   74 1
    77   34   75 1
    78   36   76 1
    79   36   77 1
    80   36   78 1
@<TRIPOS>PROPERTY_DATA
  Total_Score	| 13.6460
  Crash		| -2.1419
  Polar		| 6.4389
  FragIndex	| 1
  FragRMSD	| 0.591

