@<TRIPOS>MOLECULE
BindingDB_29929
 79 81 0 0 0
SMALL
NO_CHARGES


@<TRIPOS>ATOM
1    C        31.2982   -7.9705  -14.7606  C     
2    C        32.1127   -8.4332  -13.7015  C     
3    C        33.4463   -8.8127  -13.9224  C     
4    C        34.0076   -8.6881  -15.2074  C     
5    C        33.2236   -8.1791  -16.2642  C     
6    C        31.8809   -7.8308  -16.0427  C     
7    C        29.8599   -7.6247  -14.5158  C     
8    C        29.0284   -8.8522  -14.0066  C     
9    O        29.7821   -6.5691  -13.5308  O     
10   C        29.9795   -5.2073  -13.9712  C     
11   C        29.6001   -4.2510  -12.8147  C     
12   C        28.0805   -3.8952  -12.7676  C     
13   O        27.8879   -2.5219  -13.1687  O     
14   C        26.6325   -1.9071  -12.7893  C     
15   C        28.0965  -11.1942  -14.5309  C     
16   C        28.9420  -10.0054  -15.0562  C     
17   C        27.5835   -8.4711  -13.5428  C     
18   N        26.9449   -9.6612  -12.9831  N     
19   C        26.7378  -10.7260  -13.9472  C     
20   C        26.7536   -9.8357  -11.6601  C     
21   O        26.4532  -10.9412  -11.2187  O     
22   N        26.9077   -8.8521  -10.7711  N     
23   C        26.9516   -8.9302   -9.3369  C     
24   C        25.5386   -8.6118   -8.7737  C     
25   N        25.4690   -8.6199   -7.3065  N     
26   C        28.0370   -7.9393   -8.8071  C     
27   C        29.4384   -8.0084   -9.4992  C     
28   C        30.2174   -6.6706   -9.3204  C     
29   C        30.3139   -9.1928   -8.9855  C     
30   C        31.7045   -9.2445   -9.6788  C     
31   C        32.4610   -7.8929   -9.5879  C     
32   C        31.5853   -6.7045  -10.0591  C     
33   C        25.4019   -2.7430  -13.1880  C     
34   Cl       34.3632   -9.4552  -12.6505  Cl    
35   H        31.7212   -8.5200  -12.7624  H     
36   H        34.9759   -8.9540  -15.3820  H     
37   H        33.6301   -8.0872  -17.1987  H     
38   H        31.3250   -7.4777  -16.8265  H     
39   H        29.3783   -7.2745  -15.4350  H     
40   H        29.5319   -9.2533  -13.1200  H     
41   H        31.0319   -5.0485  -14.2229  H     
42   H        29.3711   -4.9879  -14.8549  H     
43   H        29.8874   -4.7220  -11.8702  H     
44   H        30.1829   -3.3274  -12.9128  H     
45   H        27.5002   -4.5566  -13.4214  H     
46   H        27.7236   -4.0399  -11.7413  H     
47   H        26.6196   -1.6785  -11.7156  H     
48   H        26.5892   -0.9549  -13.3154  H     
49   H        27.9181  -11.9110  -15.3393  H     
50   H        28.6554  -11.7148  -13.7443  H     
51   H        28.4925   -9.6326  -15.9804  H     
52   H        29.9393  -10.3777  -15.2927  H     
53   H        27.6400   -7.6406  -12.8470  H     
54   H        27.0088   -8.1037  -14.4005  H     
55   H        26.1020  -10.3623  -14.7536  H     
56   H        26.2249  -11.5993  -13.5279  H     
57   H        27.0444   -7.9696  -11.1278  H     
58   H        27.2265   -9.9399   -9.0053  H     
59   H        25.2021   -7.6322   -9.1240  H     
60   H        24.8317   -9.3590   -9.1379  H     
61   H        25.8508   -9.5016   -6.9435  H     
62   H        24.4869   -8.5382   -7.0327  H     
63   H        25.9924   -7.8287   -6.9154  H     
64   H        27.6408   -6.9277   -8.9292  H     
65   H        28.1787   -8.1000   -7.7347  H     
66   H        29.2854   -8.1429  -10.5753  H     
67   H        29.6334   -5.8438   -9.7324  H     
68   H        30.3870   -6.4678   -8.2590  H     
69   H        30.4596   -9.1084   -7.9034  H     
70   H        29.8055  -10.1418   -9.1787  H     
71   H        32.3062  -10.0201   -9.2060  H     
72   H        31.5682   -9.5142  -10.7248  H     
73   H        32.7691   -7.7278   -8.5556  H     
74   H        33.3657   -7.9451  -10.2046  H     
75   H        31.4095   -6.7879  -11.1360  H     
76   H        32.1195   -5.7618   -9.8840  H     
77   H        25.4305   -2.9379  -14.2677  H     
78   H        24.4868   -2.1697  -12.9620  H     
79   H        25.3780   -3.6932  -12.6443  H     
@<TRIPOS>BOND
     1    1    2 1
     2    1    6 2
     3    1    7 1
     4    2    3 2
     5    3    4 1
     6    3   34 1
     7    4    5 2
     8    5    6 1
     9    7    8 1
    10    7    9 1
    11    8   16 1
    12    8   17 1
    13    9   10 1
    14   10   11 1
    15   11   12 1
    16   12   13 1
    17   13   14 1
    18   14   33 1
    19   15   16 1
    20   15   19 1
    21   17   18 1
    22   18   19 1
    23   18   20 1
    24   20   21 2
    25   20   22 am
    26   22   23 1
    27   23   24 1
    28   23   26 1
    29   24   25 1
    30   26   27 1
    31   27   28 1
    32   27   29 1
    33   28   32 1
    34   29   30 1
    35   30   31 1
    36   31   32 1
    37    2   35 1
    38    4   36 1
    39    5   37 1
    40    6   38 1
    41    7   39 1
    42    8   40 1
    43   10   41 1
    44   10   42 1
    45   11   43 1
    46   11   44 1
    47   12   45 1
    48   12   46 1
    49   14   47 1
    50   14   48 1
    51   15   49 1
    52   15   50 1
    53   16   51 1
    54   16   52 1
    55   17   53 1
    56   17   54 1
    57   19   55 1
    58   19   56 1
    59   22   57 1
    60   23   58 1
    61   24   59 1
    62   24   60 1
    63   25   61 1
    64   25   62 1
    65   25   63 1
    66   26   64 1
    67   26   65 1
    68   27   66 1
    69   28   67 1
    70   28   68 1
    71   29   69 1
    72   29   70 1
    73   30   71 1
    74   30   72 1
    75   31   73 1
    76   31   74 1
    77   32   75 1
    78   32   76 1
    79   33   77 1
    80   33   78 1
    81   33   79 1
@<TRIPOS>PROPERTY_DATA
  Total_Score	| 15.4982
  Crash		| -1.7437
  Polar		| 6.4323
  FragIndex	| 1
  FragRMSD	| 0.354

