@<TRIPOS>MOLECULE
BindingDB_29033
 38 39 0 0 0
SMALL
NO_CHARGES


@<TRIPOS>ATOM
1    C        32.2864   11.8251    1.3469  C     
2    C        31.8149   10.4891    1.2117  C     
3    C        32.1257    9.4778    2.1564  C     
4    C        32.8949    9.8560    3.2849  C     
5    C        33.3103   11.1856    3.4687  C     
6    C        33.0065   12.1884    2.5242  C     
7    C        31.7050    8.1223    1.9563  C     
8    N        33.3275   13.4956    2.7580  N     
9    C        34.4938   13.9920    3.1568  C     
10   C        34.6538   15.3306    3.2148  C     
11   O        35.4544   13.2709    3.3877  O     
12   C        34.6782   15.9966    4.3928  C     
13   C        34.8134   15.9141    2.0814  C     
14   N        34.9537   16.4685    1.0833  N     
15   C        35.0016   17.4132    4.5139  C     
16   O        34.4271   15.3668    5.5460  O     
17   C        31.2646    7.3163    3.0408  C     
18   C        30.8995    5.9648    2.8469  C     
19   C        30.9425    5.4003    1.5549  C     
20   C        31.3607    6.1889    0.4655  C     
21   C        31.7326    7.5287    0.6631  C     
22   C        31.9736   12.7794    0.2314  C     
23   Cl       30.4520    4.9879    4.1604  Cl    
24   F        32.6583   13.9796    0.2292  F     
25   F        32.2545   12.2180   -1.0009  F     
26   F        30.6337   13.0867    0.2821  F     
27   H        31.2288   10.2452    0.4109  H     
28   H        33.1526    9.1663    3.9915  H     
29   H        33.8200   11.4332    4.3199  H     
30   H        32.6500   14.1460    2.4964  H     
31   H        35.9903   17.6065    4.0849  H     
32   H        35.0204   17.7432    5.5550  H     
33   H        34.2541   18.0051    3.9800  H     
34   H        33.8082   14.6272    5.3383  H     
35   H        31.2104    7.7054    3.9835  H     
36   H        30.6890    4.4144    1.4066  H     
37   H        31.4064    5.7714   -0.4663  H     
38   H        32.0597    8.0572   -0.1414  H     
@<TRIPOS>BOND
     1    1    2 1
     2    1    6 2
     3    1   22 1
     4    2    3 2
     5    3    4 1
     6    3    7 1
     7    4    5 2
     8    5    6 1
     9    6    8 1
    10    7   17 2
    11    7   21 1
    12    8    9 am
    13    9   10 1
    14    9   11 2
    15   10   12 2
    16   10   13 1
    17   12   15 1
    18   12   16 1
    19   13   14 3
    20   17   18 1
    21   18   19 2
    22   18   23 1
    23   19   20 1
    24   20   21 2
    25   22   24 1
    26   22   25 1
    27   22   26 1
    28    2   27 1
    29    4   28 1
    30    5   29 1
    31    8   30 1
    32   15   31 1
    33   15   32 1
    34   15   33 1
    35   16   34 1
    36   17   35 1
    37   19   36 1
    38   20   37 1
    39   21   38 1
@<TRIPOS>PROPERTY_DATA
  Total_Score	| 5.5502
  Crash		| -2.7868
  Polar		| 2.2294
  FragIndex	| 1
  FragRMSD	| 1.421

