@<TRIPOS>MOLECULE
BindingDB_29037
 35 36 0 0 0
SMALL
NO_CHARGES


@<TRIPOS>ATOM
1    C        33.2759   11.1653    3.3962  C     
2    C        32.8250    9.8424    3.2102  C     
3    C        31.9313    9.5195    2.1620  C     
4    C        31.4746   10.5686    1.3303  C     
5    C        31.9210   11.8870    1.5176  C     
6    C        32.8441   12.2043    2.5379  C     
7    C        31.5104    8.1681    1.9617  C     
8    N        33.2200   13.5157    2.6641  N     
9    C        34.3505   14.0337    3.1217  C     
10   C        34.5007   15.3774    3.1831  C     
11   O        35.3058   13.3389    3.4298  O     
12   C        34.5334   16.0549    4.3581  C     
13   C        34.6528   15.9783    2.0563  C     
14   N        34.7889   16.5122    1.0479  N     
15   C        34.7943   17.4850    4.4655  C     
16   O        34.3201   15.4414    5.5291  O     
17   C        31.6073    7.5025    0.7045  C     
18   C        31.2219    6.1499    0.5869  C     
19   C        30.7351    5.4436    1.6991  C     
20   C        30.6201    6.0914    2.9395  C     
21   C        30.9989    7.4378    3.0667  C     
22   Cl       32.2502    8.2342   -0.6835  Cl    
23   H        33.9039   11.3647    4.1868  H     
24   H        33.1601    9.1134    3.8448  H     
25   H        30.8068   10.3832    0.5789  H     
26   H        31.5727   12.6238    0.9045  H     
27   H        32.5779   14.1627    2.3151  H     
28   H        35.7679   17.7265    4.0319  H     
29   H        34.7988   17.8159    5.5098  H     
30   H        34.0200   18.0451    3.9345  H     
31   H        34.0941   14.5001    5.3317  H     
32   H        31.3089    5.6622   -0.3086  H     
33   H        30.4679    4.4576    1.6086  H     
34   H        30.2633    5.5786    3.7510  H     
35   H        30.8990    7.8850    3.9832  H     
@<TRIPOS>BOND
     1    1    2 1
     2    1    6 2
     3    2    3 2
     4    3    4 1
     5    3    7 1
     6    4    5 2
     7    5    6 1
     8    6    8 1
     9    7   17 2
    10    7   21 1
    11    8    9 am
    12    9   10 1
    13    9   11 2
    14   10   12 2
    15   10   13 1
    16   12   15 1
    17   12   16 1
    18   13   14 3
    19   17   18 1
    20   17   22 1
    21   18   19 2
    22   19   20 1
    23   20   21 2
    24    1   23 1
    25    2   24 1
    26    4   25 1
    27    5   26 1
    28    8   27 1
    29   15   28 1
    30   15   29 1
    31   15   30 1
    32   16   31 1
    33   18   32 1
    34   19   33 1
    35   20   34 1
    36   21   35 1
@<TRIPOS>PROPERTY_DATA
  Total_Score	| 6.1809
  Crash		| -1.1992
  Polar		| 2.4403
  FragIndex	| 1
  FragRMSD	| 1.444

