@<TRIPOS>MOLECULE
BindingDB_29036
 35 36 0 0 0
SMALL
NO_CHARGES


@<TRIPOS>ATOM
1    C        33.3297   11.1172    3.4212  C     
2    C        32.8711    9.8099    3.1750  C     
3    C        31.9134    9.5643    2.1654  C     
4    C        31.4059   10.6553    1.4276  C     
5    C        31.8346   11.9692    1.6934  C     
6    C        32.8274   12.2210    2.6695  C     
7    C        31.5048    8.2279    1.8593  C     
8    N        33.1979   13.5341    2.8025  N     
9    C        34.3549   14.0782    3.1934  C     
10   C        34.5060   15.4264    3.1772  C     
11   O        35.3385   13.4050    3.5135  O     
12   C        34.5239   16.1970    4.2963  C     
13   C        34.6968   15.9421    2.0153  C     
14   N        34.8880   16.3823    0.9760  N     
15   C        34.7421   17.6437    4.2735  C     
16   O        34.3850   15.6569    5.5198  O     
17   C        30.9750    7.3289    2.8319  C     
18   C        30.7351    5.9706    2.5006  C     
19   C        30.9751    5.5191    1.1850  C     
20   C        31.4493    6.4051    0.2071  C     
21   C        31.6966    7.7501    0.5365  C     
22   Cl       30.1247    4.8260    3.6027  Cl    
23   Cl       30.5361    7.8967    4.3746  Cl    
24   H        34.0052   11.2514    4.1688  H     
25   H        33.2617    9.0338    3.7157  H     
26   H        30.6941   10.5165    0.7097  H     
27   H        31.4389   12.7437    1.1527  H     
28   H        32.5590   14.1846    2.4821  H     
29   H        35.7214   17.8750    3.8431  H     
30   H        34.7006   18.0705    5.2784  H     
31   H        33.9776   18.1271    3.6669  H     
32   H        34.1825   14.7032    5.3990  H     
33   H        30.8012    4.5485    0.9372  H     
34   H        31.5910    6.0776   -0.7455  H     
35   H        32.0507    8.3624   -0.1979  H     
@<TRIPOS>BOND
     1    1    2 1
     2    1    6 2
     3    2    3 2
     4    3    4 1
     5    3    7 1
     6    4    5 2
     7    5    6 1
     8    6    8 1
     9    7   17 2
    10    7   21 1
    11    8    9 am
    12    9   10 1
    13    9   11 2
    14   10   12 2
    15   10   13 1
    16   12   15 1
    17   12   16 1
    18   13   14 3
    19   17   18 1
    20   17   23 1
    21   18   19 2
    22   18   22 1
    23   19   20 1
    24   20   21 2
    25    1   24 1
    26    2   25 1
    27    4   26 1
    28    5   27 1
    29    8   28 1
    30   15   29 1
    31   15   30 1
    32   15   31 1
    33   16   32 1
    34   19   33 1
    35   20   34 1
    36   21   35 1
@<TRIPOS>PROPERTY_DATA
  Total_Score	| 5.7115
  Crash		| -2.0789
  Polar		| 2.6320
  FragIndex	| 1
  FragRMSD	| 1.423

