@<TRIPOS>MOLECULE
BindingDB_29029
 39 40 0 0 0
SMALL
NO_CHARGES


@<TRIPOS>ATOM
1    C        32.1623   11.7370    1.3597  C     
2    C        31.6746   10.4223    1.2039  C     
3    C        31.9166    9.4230    2.1807  C     
4    C        32.6475    9.7950    3.3347  C     
5    C        33.1039   11.1113    3.5114  C     
6    C        32.8719   12.0993    2.5225  C     
7    C        31.4843    8.0638    1.9925  C     
8    N        33.2605   13.4044    2.6687  N     
9    C        34.4100   13.8928    3.1239  C     
10   C        34.6242   15.2298    3.1571  C     
11   O        35.3274   13.1588    3.4766  O     
12   C        34.6757   15.9295    4.3120  C     
13   C        34.7694   15.8142    2.0199  C     
14   N        34.8905   16.3495    1.0091  N     
15   C        34.9503   17.3602    4.4062  C     
16   O        34.4949   15.2926    5.4663  O     
17   C        31.0386    7.2947    3.0970  C     
18   C        30.6640    5.9506    2.9533  C     
19   C        30.7155    5.3404    1.6875  C     
20   C        31.1450    6.0797    0.5753  C     
21   C        31.5270    7.4291    0.7137  C     
22   Cl       31.9384   12.8419    0.0954  Cl    
23   O        31.9251    8.0878   -0.4209  O     
24   C        33.3496    8.2547   -0.5214  C     
25   H        31.1324   10.1930    0.3698  H     
26   H        32.8623    9.1040    4.0616  H     
27   H        33.5890   11.3460    4.3791  H     
28   H        32.6420   14.0665    2.3050  H     
29   H        35.9265   17.5973    3.9692  H     
30   H        34.9659   17.6994    5.4456  H     
31   H        34.1837   17.9363    3.8793  H     
32   H        33.5446   14.9825    5.4648  H     
33   H        30.9811    7.7193    4.0294  H     
34   H        30.3490    5.4114    3.7583  H     
35   H        30.4425    4.3556    1.5781  H     
36   H        31.1865    5.6241   -0.3427  H     
37   H        33.7455    8.7848    0.3483  H     
38   H        33.5626    8.8512   -1.4029  H     
39   H        33.8566    7.2937   -0.6230  H     
@<TRIPOS>BOND
     1    1    2 1
     2    1    6 2
     3    1   22 1
     4    2    3 2
     5    3    4 1
     6    3    7 1
     7    4    5 2
     8    5    6 1
     9    6    8 1
    10    7   17 2
    11    7   21 1
    12    8    9 am
    13    9   10 1
    14    9   11 2
    15   10   12 2
    16   10   13 1
    17   12   15 1
    18   12   16 1
    19   13   14 3
    20   17   18 1
    21   18   19 2
    22   19   20 1
    23   20   21 2
    24   21   23 1
    25   23   24 1
    26    2   25 1
    27    4   26 1
    28    5   27 1
    29    8   28 1
    30   15   29 1
    31   15   30 1
    32   15   31 1
    33   16   32 1
    34   17   33 1
    35   18   34 1
    36   19   35 1
    37   20   36 1
    38   24   37 1
    39   24   38 1
    40   24   39 1
@<TRIPOS>PROPERTY_DATA
  Total_Score	| 7.3042
  Crash		| -1.3047
  Polar		| 2.1268
  FragIndex	| 1
  FragRMSD	| 1.338

