@<TRIPOS>MOLECULE
BindingDB_29031
 35 36 0 0 0
SMALL
NO_CHARGES


@<TRIPOS>ATOM
1    C        32.0253   11.8917    1.5042  C     
2    C        31.5471   10.5887    1.2653  C     
3    C        31.8992    9.5130    2.1125  C     
4    C        32.7166    9.7873    3.2354  C     
5    C        33.1713   11.0937    3.4965  C     
6    C        32.8468   12.1647    2.6296  C     
7    C        31.5021    8.1733    1.8096  C     
8    N        33.2704   13.4591    2.8219  N     
9    C        34.4401   13.9306    3.2242  C     
10   C        34.6486   15.2729    3.2044  C     
11   O        35.3904   13.2147    3.4872  O     
12   C        34.5971   16.0460    4.3221  C     
13   C        34.8636   15.7835    2.0496  C     
14   N        35.0557   16.2563    1.0168  N     
15   C        34.7784   17.4954    4.3157  C     
16   O        34.3690   15.5188    5.5370  O     
17   C        30.8036    7.3853    2.7684  C     
18   C        30.4699    6.0452    2.4730  C     
19   C        30.7753    5.4914    1.2211  C     
20   C        31.4401    6.2679    0.2617  C     
21   C        31.8134    7.5994    0.5447  C     
22   Cl       31.6366   13.0995    0.3766  Cl    
23   Cl       30.3203    7.9726    4.2883  Cl    
24   Cl       32.6971    8.4092   -0.6649  Cl    
25   H        30.9559   10.4179    0.4466  H     
26   H        32.9917    9.0335    3.8690  H     
27   H        33.7233   11.2512    4.3420  H     
28   H        32.6458   14.1364    2.5303  H     
29   H        35.7976   17.7381    3.9861  H     
30   H        34.6351   17.9279    5.3176  H     
31   H        34.0569   17.9772    3.6371  H     
32   H        33.9226   14.6511    5.3886  H     
33   H        30.0033    5.4613    3.1732  H     
34   H        30.5172    4.5250    1.0127  H     
35   H        31.6622    5.8529   -0.6436  H     
@<TRIPOS>BOND
     1    1    2 1
     2    1    6 2
     3    1   22 1
     4    2    3 2
     5    3    4 1
     6    3    7 1
     7    4    5 2
     8    5    6 1
     9    6    8 1
    10    7   17 2
    11    7   21 1
    12    8    9 am
    13    9   10 1
    14    9   11 2
    15   10   12 2
    16   10   13 1
    17   12   15 1
    18   12   16 1
    19   13   14 3
    20   17   18 1
    21   17   23 1
    22   18   19 2
    23   19   20 1
    24   20   21 2
    25   21   24 1
    26    2   25 1
    27    4   26 1
    28    5   27 1
    29    8   28 1
    30   15   29 1
    31   15   30 1
    32   15   31 1
    33   16   32 1
    34   18   33 1
    35   19   34 1
    36   20   35 1
@<TRIPOS>PROPERTY_DATA
  Total_Score	| 5.8218
  Crash		| -2.3083
  Polar		| 2.4781
  FragIndex	| 1
  FragRMSD	| 1.376

