@<TRIPOS>MOLECULE
BindingDB_29025
 35 36 0 0 0
SMALL
NO_CHARGES


@<TRIPOS>ATOM
1    C        33.2765   11.1050    3.4267  C     
2    C        32.8586    9.7747    3.2384  C     
3    C        32.0085    9.4256    2.1600  C     
4    C        31.5919   10.4524    1.2781  C     
5    C        32.0083   11.7832    1.4713  C     
6    C        32.8723   12.1307    2.5352  C     
7    C        31.5878    8.0778    1.9621  C     
8    N        33.2312   13.4511    2.6445  N     
9    C        34.3451   13.9817    3.1435  C     
10   C        34.5152   15.3289    3.1324  C     
11   O        35.2753   13.2987    3.5544  O     
12   C        34.5051   16.0705    4.2688  C     
13   C        34.6934   15.8814    1.9868  C     
14   N        34.8494   16.3983    0.9704  N     
15   C        34.7175   17.5110    4.3100  C     
16   O        34.3018   15.4928    5.4551  O     
17   C        31.0389    7.3200    3.0265  C     
18   C        30.6358    5.9842    2.8291  C     
19   C        30.7673    5.3857    1.5630  C     
20   C        31.3088    6.1228    0.4981  C     
21   C        31.7140    7.4569    0.6945  C     
22   H        33.8685   11.3217    4.2303  H     
23   H        33.1901    9.0662    3.8932  H     
24   H        30.9698   10.2479    0.4909  H     
25   H        31.6866   12.4993    0.8195  H     
26   H        32.6124   14.0755    2.2393  H     
27   H        35.7006   17.7574    3.8973  H     
28   H        34.6702   17.9027    5.3263  H     
29   H        33.9470   18.0124    3.7176  H     
30   H        33.4962   14.9104    5.3335  H     
31   H        30.9091    7.7360    3.9523  H     
32   H        30.2393    5.4478    3.6067  H     
33   H        30.4718    4.4188    1.4199  H     
34   H        31.4161    5.6877   -0.4225  H     
35   H        32.1242    7.9632   -0.0954  H     
@<TRIPOS>BOND
     1    1    2 1
     2    1    6 2
     3    2    3 2
     4    3    4 1
     5    3    7 1
     6    4    5 2
     7    5    6 1
     8    6    8 1
     9    7   17 2
    10    7   21 1
    11    8    9 am
    12    9   10 1
    13    9   11 2
    14   10   12 2
    15   10   13 1
    16   12   15 1
    17   12   16 1
    18   13   14 3
    19   17   18 1
    20   18   19 2
    21   19   20 1
    22   20   21 2
    23    1   22 1
    24    2   23 1
    25    4   24 1
    26    5   25 1
    27    8   26 1
    28   15   27 1
    29   15   28 1
    30   15   29 1
    31   16   30 1
    32   17   31 1
    33   18   32 1
    34   19   33 1
    35   20   34 1
    36   21   35 1
@<TRIPOS>PROPERTY_DATA
  Total_Score	| 6.0037
  Crash		| -0.7755
  Polar		| 2.3608
  FragIndex	| 1
  FragRMSD	| 1.403

