@<TRIPOS>MOLECULE
BindingDB_29027
 35 36 0 0 0
SMALL
NO_CHARGES


@<TRIPOS>ATOM
1    C        32.1050   11.8583    1.4048  C     
2    C        31.6482   10.5453    1.1731  C     
3    C        31.9494    9.4975    2.0736  C     
4    C        32.7218    9.8010    3.2183  C     
5    C        33.1678   11.1125    3.4609  C     
6    C        32.8787   12.1583    2.5530  C     
7    C        31.5223    8.1617    1.8088  C     
8    N        33.2777   13.4556    2.7461  N     
9    C        34.4275   13.9272    3.2157  C     
10   C        34.6486   15.2666    3.2194  C     
11   O        35.3481   13.1943    3.5531  O     
12   C        34.6350   16.0057    4.3572  C     
13   C        34.8565   15.8002    2.0726  C     
14   N        35.0257   16.2838    1.0453  N     
15   C        34.9472   17.4330    4.4038  C     
16   O        34.3401   15.4602    5.5443  O     
17   C        30.8356    7.3647    2.7676  C     
18   C        30.4894    6.0313    2.4637  C     
19   C        30.7879    5.4852    1.2054  C     
20   C        31.4449    6.2677    0.2431  C     
21   C        31.8116    7.5915    0.5435  C     
22   Cl       31.7523   13.0431    0.2406  Cl    
23   Cl       30.3387    7.9599    4.2774  Cl    
24   H        31.0907   10.3495    0.3365  H     
25   H        32.9725    9.0653    3.8841  H     
26   H        33.6945   11.2977    4.3163  H     
27   H        32.6731   14.1301    2.3952  H     
28   H        35.9665   17.6000    4.0450  H     
29   H        34.8808   17.8359    5.4220  H     
30   H        34.2477   17.9885    3.7767  H     
31   H        33.8262   14.6408    5.3776  H     
32   H        30.0083    5.4480    3.1525  H     
33   H        30.5211    4.5221    0.9888  H     
34   H        31.6632    5.8710   -0.6724  H     
35   H        32.3102    8.1310   -0.1697  H     
@<TRIPOS>BOND
     1    1    2 1
     2    1    6 2
     3    1   22 1
     4    2    3 2
     5    3    4 1
     6    3    7 1
     7    4    5 2
     8    5    6 1
     9    6    8 1
    10    7   17 2
    11    7   21 1
    12    8    9 am
    13    9   10 1
    14    9   11 2
    15   10   12 2
    16   10   13 1
    17   12   15 1
    18   12   16 1
    19   13   14 3
    20   17   18 1
    21   17   23 1
    22   18   19 2
    23   19   20 1
    24   20   21 2
    25    2   24 1
    26    4   25 1
    27    5   26 1
    28    8   27 1
    29   15   28 1
    30   15   29 1
    31   15   30 1
    32   16   31 1
    33   18   32 1
    34   19   33 1
    35   20   34 1
    36   21   35 1
@<TRIPOS>PROPERTY_DATA
  Total_Score	| 6.1664
  Crash		| -2.0515
  Polar		| 2.4062
  FragIndex	| 1
  FragRMSD	| 1.381

