@<TRIPOS>MOLECULE
BindingDB_29035
 35 36 0 0 0
SMALL
NO_CHARGES


@<TRIPOS>ATOM
1    C        33.4654   10.9736    3.5720  C     
2    C        33.0589    9.6467    3.3287  C     
3    C        32.1132    9.3594    2.2989  C     
4    C        31.6283   10.4406    1.5143  C     
5    C        32.0320   11.7582    1.7711  C     
6    C        32.9660   12.0564    2.8067  C     
7    C        31.6612    8.0414    2.0121  C     
8    N        33.4497   13.2987    3.1361  N     
9    C        33.9871   14.2634    2.3929  C     
10   C        34.4270   15.4355    2.9491  C     
11   O        34.1250   14.1263    1.1819  O     
12   C        34.8853   16.4790    2.2054  C     
13   C        34.3257   15.5352    4.2314  C     
14   N        34.2491   15.6172    5.3743  N     
15   C        35.2695   17.7749    2.7538  C     
16   O        34.9978   16.3917    0.8677  O     
17   C        31.2082    7.1970    3.0543  C     
18   C        30.8195    5.8689    2.7795  C     
19   C        30.8500    5.3880    1.4566  C     
20   C        31.2840    6.2215    0.4119  C     
21   C        31.6851    7.5438    0.6849  C     
22   Cl       30.3598    4.8404    4.0439  Cl    
23   Cl       33.8321    8.4277    4.2315  Cl    
24   H        34.1639   11.1566    4.3108  H     
25   H        30.9478   10.2834    0.7570  H     
26   H        31.6123   12.4974    1.2031  H     
27   H        33.4009   13.5051    4.0871  H     
28   H        34.4147   18.2292    3.2575  H     
29   H        35.5999   18.4587    1.9697  H     
30   H        36.0900   17.6547    3.4617  H     
31   H        35.6013   15.6380    0.6827  H     
32   H        31.1928    7.5463    4.0226  H     
33   H        30.5782    4.4255    1.2548  H     
34   H        31.3212    5.8671   -0.5459  H     
35   H        32.0282    8.1259   -0.0872  H     
@<TRIPOS>BOND
     1    1    2 1
     2    1    6 2
     3    2    3 2
     4    2   23 1
     5    3    4 1
     6    3    7 1
     7    4    5 2
     8    5    6 1
     9    6    8 1
    10    7   17 2
    11    7   21 1
    12    8    9 am
    13    9   10 1
    14    9   11 2
    15   10   12 2
    16   10   13 1
    17   12   15 1
    18   12   16 1
    19   13   14 3
    20   17   18 1
    21   18   19 2
    22   18   22 1
    23   19   20 1
    24   20   21 2
    25    1   24 1
    26    4   25 1
    27    5   26 1
    28    8   27 1
    29   15   28 1
    30   15   29 1
    31   15   30 1
    32   16   31 1
    33   17   32 1
    34   19   33 1
    35   20   34 1
    36   21   35 1
@<TRIPOS>PROPERTY_DATA
  Total_Score	| 5.9339
  Crash		| -1.2985
  Polar		| 2.5989
  FragIndex	| 1
  FragRMSD	| 0.837

