@<TRIPOS>MOLECULE
BindingDB_29030
 35 36 0 0 0
SMALL
NO_CHARGES


@<TRIPOS>ATOM
1    C        32.1495   11.9034    1.4443  C     
2    C        31.7074   10.5795    1.2281  C     
3    C        32.0722    9.5340    2.1089  C     
4    C        32.9230    9.8439    3.2018  C     
5    C        33.3647   11.1635    3.4244  C     
6    C        32.9863   12.2099    2.5478  C     
7    C        31.6384    8.1858    1.8770  C     
8    N        33.3362   13.5208    2.7392  N     
9    C        34.4521   14.0458    3.2328  C     
10   C        34.6212   15.3924    3.2278  C     
11   O        35.3957   13.3494    3.5847  O     
12   C        34.5666   16.1381    4.3564  C     
13   C        34.8381   15.9133    2.0782  C     
14   N        35.0150   16.3835    1.0444  N     
15   C        34.8039   17.5818    4.3910  C     
16   O        34.2902   15.5944    5.5433  O     
17   C        31.0453    7.3727    2.8894  C     
18   C        30.7568    6.0075    2.6377  C     
19   C        30.9595    5.4826    1.3488  C     
20   C        31.4862    6.2844    0.3256  C     
21   C        31.8421    7.6153    0.5960  C     
22   Cl       31.6833   13.0881    0.3171  Cl    
23   Cl       30.6164    8.0444    4.3897  Cl    
24   Cl       30.2177    4.9361    3.8403  Cl    
25   H        31.1048   10.3774    0.4230  H     
26   H        33.2115    9.1071    3.8549  H     
27   H        33.9469   11.3520    4.2445  H     
28   H        32.7127   14.1716    2.3738  H     
29   H        35.8059   17.7987    4.0139  H     
30   H        34.7335   17.9809    5.4082  H     
31   H        34.0686   18.1025    3.7753  H     
32   H        33.8294   14.7485    5.3752  H     
33   H        30.7235    4.5058    1.1515  H     
34   H        31.6363    5.8834   -0.6067  H     
35   H        32.2719    8.1662   -0.1480  H     
@<TRIPOS>BOND
     1    1    2 1
     2    1    6 2
     3    1   22 1
     4    2    3 2
     5    3    4 1
     6    3    7 1
     7    4    5 2
     8    5    6 1
     9    6    8 1
    10    7   17 2
    11    7   21 1
    12    8    9 am
    13    9   10 1
    14    9   11 2
    15   10   12 2
    16   10   13 1
    17   12   15 1
    18   12   16 1
    19   13   14 3
    20   17   18 1
    21   17   23 1
    22   18   19 2
    23   18   24 1
    24   19   20 1
    25   20   21 2
    26    2   25 1
    27    4   26 1
    28    5   27 1
    29    8   28 1
    30   15   29 1
    31   15   30 1
    32   15   31 1
    33   16   32 1
    34   19   33 1
    35   20   34 1
    36   21   35 1
@<TRIPOS>PROPERTY_DATA
  Total_Score	| 5.7329
  Crash		| -2.3255
  Polar		| 2.6131
  FragIndex	| 1
  FragRMSD	| 1.392

