@<TRIPOS>MOLECULE
BindingDB_29038
 35 36 0 0 0
SMALL
NO_CHARGES


@<TRIPOS>ATOM
1    C        32.1782   11.8204    1.4073  C     
2    C        31.7260   10.4950    1.2355  C     
3    C        31.9957    9.4959    2.1996  C     
4    C        32.7413    9.8655    3.3474  C     
5    C        33.1961   11.1861    3.5231  C     
6    C        32.9160   12.1839    2.5578  C     
7    C        31.5658    8.1487    2.0014  C     
8    N        33.2697   13.4993    2.7021  N     
9    C        34.3901   14.0191    3.1904  C     
10   C        34.5559   15.3619    3.1976  C     
11   O        35.3297   13.3199    3.5532  O     
12   C        34.5496   16.1006    4.3363  C     
13   C        34.7247   15.9065    2.0414  C     
14   N        34.8762   16.3978    1.0089  N     
15   C        34.7761   17.5422    4.3615  C     
16   O        34.3631   15.5495    5.5382  O     
17   C        31.0169    7.3940    3.0689  C     
18   C        30.6327    6.0499    2.8861  C     
19   C        30.7820    5.4364    1.6282  C     
20   C        31.3115    6.1709    0.5531  C     
21   C        31.6960    7.5139    0.7389  C     
22   Cl       31.8613   12.9445    0.1685  Cl    
23   H        31.1877   10.2632    0.3999  H     
24   H        32.9744    9.1754    4.0675  H     
25   H        33.7110   11.4226    4.3716  H     
26   H        32.6513   14.1250    2.3106  H     
27   H        35.7685   17.7680    3.9523  H     
28   H        34.7310   17.9541    5.3687  H     
29   H        34.0193   18.0537    3.7557  H     
30   H        34.2909   14.5714    5.4076  H     
31   H        30.8803    7.8168    3.9871  H     
32   H        30.2483    5.5178    3.6679  H     
33   H        30.5159    4.4595    1.4990  H     
34   H        31.4283    5.7273   -0.3590  H     
35   H        32.0979    8.0169   -0.0584  H     
@<TRIPOS>BOND
     1    1    2 1
     2    1    6 2
     3    1   22 1
     4    2    3 2
     5    3    4 1
     6    3    7 1
     7    4    5 2
     8    5    6 1
     9    6    8 1
    10    7   17 2
    11    7   21 1
    12    8    9 am
    13    9   10 1
    14    9   11 2
    15   10   12 2
    16   10   13 1
    17   12   15 1
    18   12   16 1
    19   13   14 3
    20   17   18 1
    21   18   19 2
    22   19   20 1
    23   20   21 2
    24    2   23 1
    25    4   24 1
    26    5   25 1
    27    8   26 1
    28   15   27 1
    29   15   28 1
    30   15   29 1
    31   16   30 1
    32   17   31 1
    33   18   32 1
    34   19   33 1
    35   20   34 1
    36   21   35 1
@<TRIPOS>PROPERTY_DATA
  Total_Score	| 6.2461
  Crash		| -1.4093
  Polar		| 2.4877
  FragIndex	| 1
  FragRMSD	| 1.413

