@<TRIPOS>MOLECULE
BindingDB_29039
 42 43 0 0 0
SMALL
NO_CHARGES


@<TRIPOS>ATOM
1    C        33.3150   11.1209    3.5478  C     
2    C        32.8910    9.7949    3.4071  C     
3    C        32.0005    9.4114    2.3664  C     
4    C        31.5244   10.4385    1.5113  C     
5    C        31.9552   11.7721    1.6542  C     
6    C        32.8791   12.1300    2.6619  C     
7    C        31.6153    8.0388    2.1720  C     
8    N        33.2643   13.4455    2.7272  N     
9    C        34.4033   13.9779    3.1778  C     
10   C        34.5702   15.3182    3.1710  C     
11   O        35.3391   13.2909    3.5612  O     
12   C        34.5758   16.0450    4.3184  C     
13   C        34.7986   15.8550    2.0320  C     
14   N        34.9941   16.3520    1.0145  N     
15   C        34.9269   17.4582    4.3900  C     
16   O        34.2803   15.4708    5.4863  O     
17   C        31.2816    7.5526    0.8763  C     
18   C        30.9721    6.1967    0.6699  C     
19   C        31.0127    5.2864    1.7393  C     
20   C        31.3576    5.7350    3.0350  C     
21   C        31.6342    7.1009    3.2438  C     
22   O        31.5714    4.8718    4.0736  O     
23   C        30.5762    3.8656    4.3495  C     
24   C        30.9140    2.5659    3.5936  C     
25   H        33.9458   11.3306    4.3224  H     
26   H        33.2646    9.0924    4.0540  H     
27   H        30.8531   10.2398    0.7601  H     
28   H        31.5950   12.4804    1.0171  H     
29   H        32.6442   14.0719    2.3258  H     
30   H        35.9408   17.6116    4.0191  H     
31   H        34.8947   17.8316    5.4174  H     
32   H        34.2308   18.0522    3.7980  H     
33   H        33.5175   14.8622    5.3231  H     
34   H        31.2902    8.1639    0.0611  H     
35   H        30.7319    5.8535   -0.2689  H     
36   H        30.8109    4.2940    1.5753  H     
37   H        31.8727    7.4046    4.1949  H     
38   H        30.6097    3.6596    5.4206  H     
39   H        29.5587    4.1866    4.1027  H     
40   H        30.9327    2.7478    2.5135  H     
41   H        30.1484    1.8065    3.8151  H     
42   H        31.8941    2.1886    3.9199  H     
@<TRIPOS>BOND
     1    1    2 1
     2    1    6 2
     3    2    3 2
     4    3    4 1
     5    3    7 1
     6    4    5 2
     7    5    6 1
     8    6    8 1
     9    7   17 2
    10    7   21 1
    11    8    9 am
    12    9   10 1
    13    9   11 2
    14   10   12 2
    15   10   13 1
    16   12   15 1
    17   12   16 1
    18   13   14 3
    19   17   18 1
    20   18   19 2
    21   19   20 1
    22   20   21 2
    23   20   22 1
    24   22   23 1
    25   23   24 1
    26    1   25 1
    27    2   26 1
    28    4   27 1
    29    5   28 1
    30    8   29 1
    31   15   30 1
    32   15   31 1
    33   15   32 1
    34   16   33 1
    35   17   34 1
    36   18   35 1
    37   19   36 1
    38   21   37 1
    39   23   38 1
    40   23   39 1
    41   24   40 1
    42   24   41 1
    43   24   42 1
@<TRIPOS>PROPERTY_DATA
  Total_Score	| 5.7130
  Crash		| -1.6416
  Polar		| 2.3677
  FragIndex	| 1
  FragRMSD	| 1.428

