@<TRIPOS>MOLECULE
BindingDB_29032
 35 36 0 0 0
SMALL
NO_CHARGES


@<TRIPOS>ATOM
1    C        32.2214   11.7942    1.3327  C     
2    C        31.7804   10.4726    1.1489  C     
3    C        32.0655    9.4640    2.1041  C     
4    C        32.7970    9.8296    3.2639  C     
5    C        33.2306   11.1543    3.4547  C     
6    C        32.9562   12.1588    2.4921  C     
7    C        31.6476    8.1078    1.8943  C     
8    N        33.3060   13.4768    2.6505  N     
9    C        34.4227   13.9947    3.1529  C     
10   C        34.5837   15.3452    3.1869  C     
11   O        35.3628   13.2943    3.5003  O     
12   C        34.5744   16.0325    4.3552  C     
13   C        34.7529   15.9202    2.0579  C     
14   N        34.9103   16.4642    1.0615  N     
15   C        34.8515   17.4652    4.4627  C     
16   O        34.3108   15.4240    5.5148  O     
17   C        31.2038    7.2889    2.9715  C     
18   C        30.8454    5.9364    2.7663  C     
19   C        30.9045    5.3806    1.4718  C     
20   C        31.3333    6.1736    0.3894  C     
21   C        31.7009    7.5180    0.5985  C     
22   Cl       31.9036   12.9252    0.0991  Cl    
23   Cl       30.3897    4.9663    4.0739  Cl    
24   H        31.2308   10.2414    0.3178  H     
25   H        33.0347    9.1350    3.9723  H     
26   H        33.7314   11.3872    4.3159  H     
27   H        32.6810   14.1138    2.2782  H     
28   H        35.8443   17.6953    4.0605  H     
29   H        34.8290   17.8088    5.5046  H     
30   H        34.0998   18.0338    3.9054  H     
31   H        33.6607   14.7146    5.3155  H     
32   H        31.1411    7.6781    3.9217  H     
33   H        30.6561    4.4050    1.3124  H     
34   H        31.4004    5.7697   -0.5472  H     
35   H        32.0436    8.0607   -0.2081  H     
@<TRIPOS>BOND
     1    1    2 1
     2    1    6 2
     3    1   22 1
     4    2    3 2
     5    3    4 1
     6    3    7 1
     7    4    5 2
     8    5    6 1
     9    6    8 1
    10    7   17 2
    11    7   21 1
    12    8    9 am
    13    9   10 1
    14    9   11 2
    15   10   12 2
    16   10   13 1
    17   12   15 1
    18   12   16 1
    19   13   14 3
    20   17   18 1
    21   18   19 2
    22   18   23 1
    23   19   20 1
    24   20   21 2
    25    2   24 1
    26    4   25 1
    27    5   26 1
    28    8   27 1
    29   15   28 1
    30   15   29 1
    31   15   30 1
    32   16   31 1
    33   17   32 1
    34   19   33 1
    35   20   34 1
    36   21   35 1
@<TRIPOS>PROPERTY_DATA
  Total_Score	| 5.8895
  Crash		| -1.5607
  Polar		| 2.3396
  FragIndex	| 1
  FragRMSD	| 1.388

