@<TRIPOS>MOLECULE
BindingDB_16419
 17 17 0 0 0
SMALL
NO_CHARGES


@<TRIPOS>ATOM
1    C        18.6333   24.5778   63.3636  C     
2    C        17.8301   23.4161   63.4519  C     
3    C        18.2440   22.2213   62.8162  C     
4    C        19.4666   22.1866   62.1133  C     
5    C        20.2770   23.3317   62.0571  C     
6    C        19.8723   24.5143   62.6690  C     
7    C        18.2631   25.8353   64.0903  C     
8    C        16.9940   26.4650   63.7069  C     
9    O        16.7050   26.8295   62.4184  O     
10   O        16.0180   26.6706   64.6606  O     
11   H        16.9680   23.4314   63.9864  H     
12   H        17.6775   21.3928   62.8859  H     
13   H        19.7740   21.3267   61.6717  H     
14   H        21.1740   23.2941   61.5875  H     
15   H        20.4779   25.3361   62.6346  H     
16   H        18.2550   25.6143   65.1761  H     
17   H        19.0265   26.6228   63.9453  H     
@<TRIPOS>BOND
     1    1    2 2
     2    1    6 1
     3    1    7 1
     4    2    3 1
     5    3    4 2
     6    4    5 1
     7    5    6 2
     8    7    8 1
     9    8    9 2
    10    8   10 1
    11    2   11 1
    12    3   12 1
    13    4   13 1
    14    5   14 1
    15    6   15 1
    16    7   16 1
    17    7   17 1
@<TRIPOS>PROPERTY_DATA
  Total_Score	| 4.2594
  Crash		| -0.0760
  Polar		| 4.2729
  FragIndex	| 1
  FragRMSD	| 0.095

