@<TRIPOS>MOLECULE
BindingDB_16429
 17 17 0 0 0
SMALL
NO_CHARGES


@<TRIPOS>ATOM
1    C        18.6315   24.5983   63.4016  C     
2    C        17.7785   23.4518   63.3892  C     
3    C        18.1913   22.2709   62.7529  C     
4    C        19.4360   22.2016   62.1157  C     
5    C        20.2842   23.3152   62.1184  C     
6    C        19.8764   24.5243   62.7057  C     
7    C        18.2246   25.8186   64.1770  C     
8    C        16.9884   26.4664   63.6979  C     
9    O        16.8142   26.8417   62.4047  O     
10   O        16.0503   26.8354   64.6155  O     
11   Cl       16.2475   23.4048   64.1237  Cl    
12   Cl       20.9230   25.8469   62.5430  Cl    
13   H        17.5878   21.4397   62.7605  H     
14   H        19.7153   21.3412   61.6355  H     
15   H        21.1870   23.2503   61.6410  H     
16   H        18.0677   25.5332   65.2326  H     
17   H        19.0189   26.5827   64.1961  H     
@<TRIPOS>BOND
     1    1    2 2
     2    1    6 1
     3    1    7 1
     4    2    3 1
     5    2   11 1
     6    3    4 2
     7    4    5 1
     8    5    6 2
     9    6   12 1
    10    7    8 1
    11    8    9 2
    12    8   10 1
    13    3   13 1
    14    4   14 1
    15    5   15 1
    16    7   16 1
    17    7   17 1
@<TRIPOS>PROPERTY_DATA
  Total_Score	| 4.7540
  Crash		| -0.3813
  Polar		| 4.2858
  FragIndex	| 1
  FragRMSD	| 0.097

