@<TRIPOS>MOLECULE
BindingDB_16424
 17 17 0 0 0
SMALL
NO_CHARGES


@<TRIPOS>ATOM
1    C        18.7023   24.6959   63.4188  C     
2    C        19.8940   24.5461   62.6428  C     
3    C        20.1730   23.3120   62.0145  C     
4    C        19.3009   22.2226   62.1485  C     
5    C        18.1354   22.3562   62.9176  C     
6    C        17.8396   23.5776   63.5449  C     
7    C        18.3309   25.9419   64.1569  C     
8    C        17.0667   26.5241   63.6817  C     
9    O        16.0493   26.7493   64.5484  O     
10   O        16.9158   26.9138   62.3861  O     
11   Cl       21.0258   25.7934   62.4236  Cl    
12   H        21.0292   23.2008   61.4636  H     
13   H        19.5164   21.3372   61.6953  H     
14   H        17.4996   21.5565   63.0281  H     
15   H        16.9938   23.6422   64.1231  H     
16   H        18.2637   25.7031   65.2234  H     
17   H        19.0956   26.7179   64.0621  H     
@<TRIPOS>BOND
     1    1    2 2
     2    1    6 1
     3    1    7 1
     4    2    3 1
     5    2   11 1
     6    3    4 2
     7    4    5 1
     8    5    6 2
     9    7    8 1
    10    8    9 2
    11    8   10 1
    12    3   12 1
    13    4   13 1
    14    5   14 1
    15    6   15 1
    16    7   16 1
    17    7   17 1
@<TRIPOS>PROPERTY_DATA
  Total_Score	| 4.5686
  Crash		| -0.1834
  Polar		| 4.1891
  FragIndex	| 1
  FragRMSD	| 1.002

