@<TRIPOS>MOLECULE
BindingDB_16422
 17 17 0 0 0
SMALL
NO_CHARGES


@<TRIPOS>ATOM
1    C        18.6047   24.6999   63.4651  C     
2    C        17.7790   23.5456   63.6055  C     
3    C        18.1424   22.3338   62.9786  C     
4    C        19.3226   22.2500   62.2248  C     
5    C        20.1516   23.3763   62.0957  C     
6    C        19.7971   24.5924   62.7085  C     
7    C        18.2554   25.9856   64.1413  C     
8    C        16.9304   26.4937   63.7272  C     
9    O        16.6974   26.8468   62.4313  O     
10   O        16.0113   26.7834   64.6890  O     
11   F        16.6711   23.6141   64.3277  F     
12   H        17.5485   21.5112   63.0882  H     
13   H        19.5739   21.3710   61.7738  H     
14   H        21.0189   23.3111   61.5559  H     
15   H        20.4176   25.3985   62.5967  H     
16   H        18.2634   25.8092   65.2145  H     
17   H        18.9909   26.7583   63.9433  H     
@<TRIPOS>BOND
     1    1    2 2
     2    1    6 1
     3    1    7 1
     4    2    3 1
     5    2   11 1
     6    3    4 2
     7    4    5 1
     8    5    6 2
     9    7    8 1
    10    8    9 2
    11    8   10 1
    12    3   12 1
    13    4   13 1
    14    5   14 1
    15    6   15 1
    16    7   16 1
    17    7   17 1
@<TRIPOS>PROPERTY_DATA
  Total_Score	| 4.3547
  Crash		| -0.1088
  Polar		| 4.2703
  FragIndex	| 1
  FragRMSD	| 0.183

