@<TRIPOS>MOLECULE
BindingDB_34016
 42 44 0 0 0
SMALL
NO_CHARGES


@<TRIPOS>ATOM
1    C        13.9709    8.4162    2.3112  C     
2    C        14.6419    8.7236    3.5158  C     
3    C        15.6212    7.8460    4.0168  C     
4    C        15.9443    6.6755    3.2991  C     
5    C        15.3089    6.3599    2.0732  C     
6    C        14.2921    7.2395    1.6075  C     
7    C        15.7187    5.1446    1.3049  C     
8    C        14.9498    3.8449    1.6888  C     
9    C        15.4885    2.6230    0.8914  C     
10   O        16.8549    2.2774    1.2003  O     
11   P        17.1376    1.4047    2.4664  P     
12   O        16.6423    1.9957    3.6866  O     
13   O        16.5506   -0.0146    2.3325  O     
14   O        18.6562    1.2604    2.6056  O     
15   N        13.5465    3.9823    1.4144  N     
16   C        12.6137    4.4868    2.2345  C     
17   O        12.9388    4.8633    3.3674  O     
18   C        11.3331    4.7341    1.7974  C     
19   C        10.4031    5.6394    2.3440  C     
20   S        10.5572    3.9764    0.4583  S     
21   C         9.0768    4.8451    0.5637  C     
22   C         6.9808    6.6125    1.0914  C     
23   C         6.8796    5.6975    0.0232  C     
24   C         7.9259    4.7913   -0.2385  C     
25   C         9.1845    5.7349    1.6436  C     
26   C         8.1302    6.6312    1.9114  C     
27   F        13.0333    9.2259    1.8866  F     
28   F        13.6533    6.9946    0.4898  F     
29   H        14.4130    9.5750    4.0368  H     
30   H        16.1017    8.0636    4.8958  H     
31   H        16.6590    6.0545    3.6826  H     
32   H        15.5896    5.3349    0.2379  H     
33   H        16.7898    5.0004    1.4482  H     
34   H        15.0993    3.6421    2.7514  H     
35   H        14.8220    1.7572    1.0240  H     
36   H        15.4764    2.8712   -0.1799  H     
37   H        13.2492    3.7617    0.5082  H     
38   H        10.6237    6.2458    3.1358  H     
39   H         6.2233    7.2777    1.2706  H     
40   H         6.0421    5.6954   -0.5649  H     
41   H         7.8642    4.1410   -1.0199  H     
42   H         8.2024    7.3007    2.6776  H     
@<TRIPOS>BOND
     1    1    2 2
     2    1    6 1
     3    1   27 1
     4    2    3 1
     5    3    4 2
     6    4    5 1
     7    5    6 2
     8    5    7 1
     9    6   28 1
    10    7    8 1
    11    8    9 1
    12    8   15 1
    13    9   10 1
    14   10   11 1
    15   11   12 2
    16   11   13 1
    17   11   14 1
    18   15   16 am
    19   16   17 2
    20   16   18 1
    21   18   19 2
    22   18   20 1
    23   19   25 1
    24   20   21 1
    25   21   24 1
    26   21   25 2
    27   22   23 1
    28   22   26 2
    29   23   24 2
    30   25   26 1
    31    2   29 1
    32    3   30 1
    33    4   31 1
    34    7   32 1
    35    7   33 1
    36    8   34 1
    37    9   35 1
    38    9   36 1
    39   15   37 1
    40   19   38 1
    41   22   39 1
    42   23   40 1
    43   24   41 1
    44   26   42 1
@<TRIPOS>PROPERTY_DATA
  Total_Score	| 8.7069
  Crash		| -0.8222
  Polar		| 4.4378
  FragIndex	| 1
  FragRMSD	| 1.189

