@<TRIPOS>MOLECULE
BindingDB_34010
 42 44 0 0 0
SMALL
NO_CHARGES


@<TRIPOS>ATOM
1    C        15.5916    7.8019    3.9786  C     
2    C        14.6689    8.7094    3.4338  C     
3    C        14.0844    8.4491    2.1817  C     
4    C        14.4324    7.2829    1.4719  C     
5    C        15.3637    6.3610    2.0058  C     
6    C        15.9363    6.6345    3.2696  C     
7    C        15.7366    5.1239    1.2624  C     
8    C        14.9233    3.8705    1.7131  C     
9    C        15.3771    2.5810    0.9705  C     
10   O        16.7643    2.2437    1.1821  O     
11   P        17.1300    1.3839    2.4300  P     
12   O        16.6617    1.9837    3.6525  O     
13   O        16.5940   -0.0607    2.3353  O     
14   O        18.6654    1.3113    2.5366  O     
15   N        13.5289    4.0820    1.4419  N     
16   C        12.6534    4.7225    2.2079  C     
17   O        12.9985    5.2155    3.2769  O     
18   C        11.3599    4.9185    1.7637  C     
19   C        10.4047    5.8193    2.2658  C     
20   S        10.6072    4.0904    0.4496  S     
21   C         9.0958    4.8984    0.5350  C     
22   C         6.8932    6.5228    1.0748  C     
23   C         6.8309    5.5758    0.0302  C     
24   C         7.9393    4.7525   -0.2485  C     
25   C         9.1713    5.8227    1.5874  C     
26   C         8.0605    6.6474    1.8577  C     
27   H        16.0170    7.9923    4.8887  H     
28   H        14.4163    9.5542    3.9508  H     
29   H        13.4102    9.1063    1.7858  H     
30   H        13.9901    7.1075    0.5672  H     
31   H        16.6140    5.9872    3.6793  H     
32   H        15.5864    5.2681    0.1869  H     
33   H        16.8071    4.9479    1.4107  H     
34   H        15.0872    3.7097    2.7825  H     
35   H        14.7044    1.7530    1.2197  H     
36   H        15.2704    2.7513   -0.1025  H     
37   H        13.2181    3.8098    0.5619  H     
38   H        10.5944    6.4475    3.0510  H     
39   H         6.0872    7.1218    1.2641  H     
40   H         5.9792    5.4898   -0.5304  H     
41   H         7.9045    4.0650   -1.0051  H     
42   H         8.0981    7.3356    2.6126  H     
@<TRIPOS>BOND
     1    1    2 2
     2    1    6 1
     3    2    3 1
     4    3    4 2
     5    4    5 1
     6    5    6 2
     7    5    7 1
     8    7    8 1
     9    8    9 1
    10    8   15 1
    11    9   10 1
    12   10   11 1
    13   11   12 2
    14   11   13 1
    15   11   14 1
    16   15   16 am
    17   16   17 2
    18   16   18 1
    19   18   19 2
    20   18   20 1
    21   19   25 1
    22   20   21 1
    23   21   24 1
    24   21   25 2
    25   22   23 1
    26   22   26 2
    27   23   24 2
    28   25   26 1
    29    1   27 1
    30    2   28 1
    31    3   29 1
    32    4   30 1
    33    6   31 1
    34    7   32 1
    35    7   33 1
    36    8   34 1
    37    9   35 1
    38    9   36 1
    39   15   37 1
    40   19   38 1
    41   22   39 1
    42   23   40 1
    43   24   41 1
    44   26   42 1
@<TRIPOS>PROPERTY_DATA
  Total_Score	| 8.1220
  Crash		| -0.9485
  Polar		| 4.5343
  FragIndex	| 1
  FragRMSD	| 1.192

