@<TRIPOS>MOLECULE
BindingDB_34009
 45 47 0 0 0
SMALL
NO_CHARGES


@<TRIPOS>ATOM
1    C        15.5432    7.8303    4.0106  C     
2    C        14.6147    8.7347    3.4618  C     
3    C        14.0247    8.4573    2.2169  C     
4    C        14.3700    7.2802    1.5191  C     
5    C        15.3108    6.3689    2.0507  C     
6    C        15.8808    6.6548    3.3123  C     
7    C        15.7597    5.1772    1.2681  C     
8    C        14.9938    3.8669    1.6138  C     
9    C        15.5384    2.6166    0.8582  C     
10   O        16.9113    2.2955    1.1840  O     
11   P        17.1737    1.4308    2.4631  P     
12   O        16.6983    1.9894    3.7029  O     
13   O        16.6563   -0.0147    2.3233  O     
14   O        18.7020    1.3153    2.6222  O     
15   N        13.6267    4.0161    1.2192  N     
16   C        12.5672    4.1105    2.0044  C     
17   O        12.6418    4.0445    3.2345  O     
18   C        11.3207    4.2722    1.4371  C     
19   C         9.6557    3.6764   -0.2614  C     
20   C        10.9215    3.5000    0.3122  C     
21   C        10.4334    5.2387    1.9590  C     
22   C         9.1786    5.4464    1.3661  C     
23   C         8.7718    4.6462    0.2624  C     
24   C         6.6792    5.7920    0.2535  C     
25   C         7.4867    4.8467   -0.2626  C     
26   C         8.3089    6.4315    1.8410  C     
27   C         7.0944    6.5947    1.2834  C     
28   H        15.9808    8.0381    4.9127  H     
29   H        14.3739    9.5922    3.9675  H     
30   H        13.3540    9.1184    1.8152  H     
31   H        13.9355    7.1065    0.6099  H     
32   H        16.5718    6.0235    3.7217  H     
33   H        15.6522    5.3866    0.2015  H     
34   H        16.8284    5.0271    1.4377  H     
35   H        15.0810    3.6886    2.6908  H     
36   H        14.8600    1.7615    1.0081  H     
37   H        15.5221    2.8324   -0.2166  H     
38   H        13.4563    4.0702    0.2588  H     
39   H         9.3810    3.0961   -1.0537  H     
40   H        11.5477    2.7797   -0.0657  H     
41   H        10.7246    5.8105    2.7577  H     
42   H         5.7611    5.9220   -0.1248  H     
43   H         7.1551    4.2847   -1.0176  H     
44   H         8.5833    7.0276    2.5830  H     
45   H         6.4900    7.3057    1.6246  H     
@<TRIPOS>BOND
     1    1    2 2
     2    1    6 1
     3    2    3 1
     4    3    4 2
     5    4    5 1
     6    5    6 2
     7    5    7 1
     8    7    8 1
     9    8    9 1
    10    8   15 1
    11    9   10 1
    12   10   11 1
    13   11   12 2
    14   11   13 1
    15   11   14 1
    16   15   16 am
    17   16   17 2
    18   16   18 1
    19   18   20 2
    20   18   21 1
    21   19   20 1
    22   19   23 2
    23   21   22 2
    24   22   23 1
    25   22   26 1
    26   23   25 1
    27   24   25 2
    28   24   27 1
    29   26   27 2
    30    1   28 1
    31    2   29 1
    32    3   30 1
    33    4   31 1
    34    6   32 1
    35    7   33 1
    36    7   34 1
    37    8   35 1
    38    9   36 1
    39    9   37 1
    40   15   38 1
    41   19   39 1
    42   20   40 1
    43   21   41 1
    44   24   42 1
    45   25   43 1
    46   26   44 1
    47   27   45 1
@<TRIPOS>PROPERTY_DATA
  Total_Score	| 8.2876
  Crash		| -1.0582
  Polar		| 4.5139
  FragIndex	| 1
  FragRMSD	| 0.568

