@<TRIPOS>MOLECULE
BindingDB_34014
 45 47 0 0 0
SMALL
NO_CHARGES


@<TRIPOS>ATOM
1    C        15.3161    7.8147    3.3835  C     
2    C        14.2173    8.4729    2.7879  C     
3    C        13.6212    7.9545    1.6280  C     
4    C        14.0831    6.7515    1.0755  C     
5    C        15.1685    6.0620    1.6605  C     
6    C        15.7807    6.6043    2.8143  C     
7    C        15.6603    4.7860    1.0823  C     
8    C        14.8577    3.5685    1.6159  C     
9    C        15.3025    2.2451    0.9429  C     
10   O        16.7165    2.0138    1.1106  O     
11   P        17.1692    1.2614    2.4118  P     
12   O        16.5973   -0.0760    2.4501  O     
13   O        18.7135    1.0821    2.3836  O     
14   O        16.8231    2.0176    3.7242  O     
15   N        13.4599    3.7945    1.3587  N     
16   C        12.6115    4.4102    2.1665  C     
17   O        12.9769    4.8479    3.2487  O     
18   C        11.3202    4.7006    1.7502  C     
19   C        10.4235    5.6452    2.2791  C     
20   S        10.4995    3.9374    0.4375  S     
21   C         9.0368    4.8285    0.5553  C     
22   C         6.9421    6.5696    1.1570  C     
23   C         6.8048    5.6434    0.1047  C     
24   C         7.8607    4.7637   -0.2100  C     
25   C         9.1824    5.7365    1.6181  C     
26   C         8.1257    6.6243    1.9143  C     
27   C        15.9594    8.4000    4.5878  C     
28   H        13.8704    9.3501    3.1750  H     
29   H        12.8769    8.4725    1.1630  H     
30   H        13.6590    6.4007    0.2130  H     
31   H        16.5768    6.1187    3.2429  H     
32   H        15.5932    4.8181   -0.0071  H     
33   H        16.7193    4.6815    1.3275  H     
34   H        15.0510    3.4734    2.6906  H     
35   H        14.6787    1.4194    1.2954  H     
36   H        15.1502    2.3189   -0.1280  H     
37   H        13.1618    3.6379    0.4461  H     
38   H        10.6529    6.2507    3.0833  H     
39   H         6.1765    7.2079    1.3741  H     
40   H         5.9375    5.6095   -0.4356  H     
41   H         7.7759    4.1005   -0.9845  H     
42   H         8.2293    7.3062    2.6697  H     
43   H        16.1865    9.4558    4.4145  H     
44   H        16.8979    7.8974    4.8495  H     
45   H        15.2719    8.3212    5.4356  H     
@<TRIPOS>BOND
     1    1    2 2
     2    1    6 1
     3    1   27 1
     4    2    3 1
     5    3    4 2
     6    4    5 1
     7    5    6 2
     8    5    7 1
     9    7    8 1
    10    8    9 1
    11    8   15 1
    12    9   10 1
    13   10   11 1
    14   11   12 2
    15   11   13 1
    16   11   14 1
    17   15   16 am
    18   16   17 2
    19   16   18 1
    20   18   19 2
    21   18   20 1
    22   19   25 1
    23   20   21 1
    24   21   24 1
    25   21   25 2
    26   22   23 1
    27   22   26 2
    28   23   24 2
    29   25   26 1
    30    2   28 1
    31    3   29 1
    32    4   30 1
    33    6   31 1
    34    7   32 1
    35    7   33 1
    36    8   34 1
    37    9   35 1
    38    9   36 1
    39   15   37 1
    40   19   38 1
    41   22   39 1
    42   23   40 1
    43   24   41 1
    44   26   42 1
    45   27   43 1
    46   27   44 1
    47   27   45 1
@<TRIPOS>PROPERTY_DATA
  Total_Score	| 7.6173
  Crash		| -2.1045
  Polar		| 4.6555
  FragIndex	| 1
  FragRMSD	| 1.407

