@<TRIPOS>MOLECULE
BindingDB_34015
 45 47 0 0 0
SMALL
NO_CHARGES


@<TRIPOS>ATOM
1    C        13.9172    8.3848    2.3350  C     
2    C        14.5860    8.6784    3.5360  C     
3    C        15.6243    7.8450    3.9885  C     
4    C        15.9971    6.7189    3.2345  C     
5    C        15.3480    6.4103    2.0167  C     
6    C        14.2978    7.2576    1.5749  C     
7    C        15.7927    5.2190    1.2372  C     
8    C        15.0393    3.9153    1.6353  C     
9    C        15.6033    2.6667    0.8984  C     
10   O        16.9607    2.3369    1.2539  O     
11   P        17.1782    1.4067    2.4857  P     
12   O        16.6274    1.9543    3.6958  O     
13   O        16.6216   -0.0198    2.2661  O     
14   O        18.6988    1.2719    2.6938  O     
15   N        13.6636    4.0420    1.2440  N     
16   C        12.6197    4.4095    1.9839  C     
17   O        12.8188    4.6866    3.1620  O     
18   F        12.9514    9.1700    1.9342  F     
19   F        13.6535    7.0094    0.4617  F     
20   C        11.3218    4.5363    1.4522  C     
21   C         9.5801    3.8594   -0.1657  C     
22   C        10.8702    3.7295    0.3752  C     
23   C        10.4005    5.4859    1.9754  C     
24   C         9.0985    5.6360    1.4441  C     
25   C         8.6909    4.8211    0.3507  C     
26   C         6.5595    5.8836    0.3727  C     
27   C         7.4046    4.9863   -0.1704  C     
28   C         8.1743    6.5476    1.9695  C     
29   C         6.9398    6.6563    1.4354  C     
30   H        14.3246    9.5014    4.0868  H     
31   H        16.1104    8.0595    4.8614  H     
32   H        16.7585    6.1277    3.5797  H     
33   H        15.6499    5.4054    0.1717  H     
34   H        16.8678    5.0700    1.3794  H     
35   H        15.1456    3.7635    2.7135  H     
36   H        14.9212    1.8138    1.0151  H     
37   H        15.6333    2.8866   -0.1708  H     
38   H        13.5018    3.8784    0.3053  H     
39   H         9.3059    3.2603   -0.9491  H     
40   H        11.4758    3.0251   -0.0451  H     
41   H        10.6705    6.0790    2.7601  H     
42   H         5.6417    5.9792    0.0068  H     
43   H         7.0967    4.4283   -0.9326  H     
44   H         8.4122    7.1185    2.7487  H     
45   H         6.2903    7.3028    1.8232  H     
@<TRIPOS>BOND
     1    1    2 2
     2    1    6 1
     3    1   18 1
     4    2    3 1
     5    3    4 2
     6    4    5 1
     7    5    6 2
     8    5    7 1
     9    6   19 1
    10    7    8 1
    11    8    9 1
    12    8   15 1
    13    9   10 1
    14   10   11 1
    15   11   12 2
    16   11   13 1
    17   11   14 1
    18   15   16 am
    19   16   17 2
    20   16   20 1
    21   20   22 2
    22   20   23 1
    23   21   22 1
    24   21   25 2
    25   23   24 2
    26   24   25 1
    27   24   28 1
    28   25   27 1
    29   26   27 2
    30   26   29 1
    31   28   29 2
    32    2   30 1
    33    3   31 1
    34    4   32 1
    35    7   33 1
    36    7   34 1
    37    8   35 1
    38    9   36 1
    39    9   37 1
    40   15   38 1
    41   21   39 1
    42   22   40 1
    43   23   41 1
    44   26   42 1
    45   27   43 1
    46   28   44 1
    47   29   45 1
@<TRIPOS>PROPERTY_DATA
  Total_Score	| 8.4852
  Crash		| -1.1227
  Polar		| 4.4299
  FragIndex	| 1
  FragRMSD	| 0.574

