@<TRIPOS>MOLECULE
BindingDB_34008
 39 40 0 0 0
SMALL
NO_CHARGES


@<TRIPOS>ATOM
1    C        14.0254    8.4654    2.2568  C     
2    C        14.6528    8.7515    3.4869  C     
3    C        15.6320    7.8727    3.9902  C     
4    C        15.9823    6.7122    3.2726  C     
5    C        15.3559    6.4129    2.0400  C     
6    C        14.3727    7.3030    1.5420  C     
7    C        15.7385    5.1838    1.2828  C     
8    C        14.8917    3.9375    1.6905  C     
9    C        15.3405    2.6477    0.9367  C     
10   O        16.7205    2.2762    1.1595  O     
11   P        17.0718    1.4275    2.4170  P     
12   O        16.5806    1.9960    3.6471  O     
13   O        16.5519   -0.0181    2.2826  O     
14   O        18.6015    1.3387    2.5606  O     
15   N        13.5139    4.1903    1.3686  N     
16   C        12.5143    4.4285    2.2180  C     
17   O        12.7268    4.4188    3.4249  O     
18   C        11.2432    4.7709    1.7552  C     
19   C         8.6229    5.4704    0.8835  C     
20   C         9.1702    6.0812    2.0229  C     
21   C        10.4622    5.7241    2.4549  C     
22   C        10.6730    4.1748    0.5971  C     
23   C         9.3743    4.5159    0.1739  C     
24   H        13.3152    9.1045    1.8898  H     
25   H        14.3918    9.5824    4.0135  H     
26   H        16.0843    8.0783    4.8832  H     
27   H        16.7030    6.0960    3.6459  H     
28   H        13.9013    7.1114    0.6572  H     
29   H        15.6111    5.3625    0.2119  H     
30   H        16.7980    4.9740    1.4422  H     
31   H        15.0255    3.7728    2.7652  H     
32   H        14.6532    1.8233    1.1640  H     
33   H        15.2448    2.8165   -0.1385  H     
34   H        13.3206    4.3033    0.4226  H     
35   H         7.6827    5.7213    0.5713  H     
36   H         8.6403    6.7837    2.5388  H     
37   H        10.8337    6.1931    3.2898  H     
38   H        11.1849    3.4640    0.0701  H     
39   H         8.9736    4.0685   -0.6542  H     
@<TRIPOS>BOND
     1    1    2 2
     2    1    6 1
     3    2    3 1
     4    3    4 2
     5    4    5 1
     6    5    6 2
     7    5    7 1
     8    7    8 1
     9    8    9 1
    10    8   15 1
    11    9   10 1
    12   10   11 1
    13   11   12 2
    14   11   13 1
    15   11   14 1
    16   15   16 am
    17   16   17 2
    18   16   18 1
    19   18   21 2
    20   18   22 1
    21   19   20 2
    22   19   23 1
    23   20   21 1
    24   22   23 2
    25    1   24 1
    26    2   25 1
    27    3   26 1
    28    4   27 1
    29    6   28 1
    30    7   29 1
    31    7   30 1
    32    8   31 1
    33    9   32 1
    34    9   33 1
    35   15   34 1
    36   19   35 1
    37   20   36 1
    38   21   37 1
    39   22   38 1
    40   23   39 1
@<TRIPOS>PROPERTY_DATA
  Total_Score	| 7.8197
  Crash		| -0.8807
  Polar		| 4.5212
  FragIndex	| 1
  FragRMSD	| 0.472

