@<TRIPOS>MOLECULE
BindingDB_34011
 45 47 0 0 0
SMALL
NO_CHARGES


@<TRIPOS>ATOM
1    C        13.9750    8.3446    2.1887  C     
2    C        14.5656    8.6400    3.4332  C     
3    C        15.5509    7.7868    3.9627  C     
4    C        15.9523    6.6422    3.2459  C     
5    C        15.3760    6.3291    1.9890  C     
6    C        14.3822    7.1993    1.4729  C     
7    C        15.8106    5.1227    1.2282  C     
8    C        15.0170    3.8374    1.6012  C     
9    C        15.5445    2.5609    0.8730  C     
10   O        16.9144    2.2181    1.1841  O     
11   P        17.1884    1.3369    2.4346  P     
12   O        16.5673    0.0411    2.3475  O     
13   O        18.7057    1.0767    2.5055  O     
14   O        16.8039    2.0062    3.7602  O     
15   N        13.6354    4.0164    1.2314  N     
16   C        12.6503    4.5261    1.9686  C     
17   O        12.9205    4.9417    3.0954  O     
18   C        11.3571    4.6949    1.4513  C     
19   C         9.6184    4.1821   -0.2191  C     
20   C        10.9094    3.9912    0.3028  C     
21   C        10.4325    5.5535    2.0905  C     
22   C         9.1209    5.7360    1.6022  C     
23   C         8.7139    5.0571    0.4170  C     
24   C         6.5564    6.0584    0.6215  C     
25   C         7.4082    5.2634   -0.0549  C     
26   C         8.1921    6.5515    2.2568  C     
27   C         6.9416    6.6853    1.7772  C     
28   F        13.0654    9.1411    1.6891  F     
29   H        14.2804    9.4721    3.9554  H     
30   H        15.9903    8.0137    4.8609  H     
31   H        16.6786    6.0402    3.6428  H     
32   H        13.9389    6.9960    0.5723  H     
33   H        15.6952    5.3157    0.1570  H     
34   H        16.8759    4.9612    1.4103  H     
35   H        15.1199    3.6794    2.6794  H     
36   H        14.8481    1.7284    1.0504  H     
37   H        15.5276    2.7539   -0.2063  H     
38   H        13.4176    3.7718    0.3124  H     
39   H         9.3403    3.6624   -1.0565  H     
40   H        11.5081    3.3109   -0.1567  H     
41   H        10.7118    6.0649    2.9366  H     
42   H         5.6307    6.1915    0.2852  H     
43   H         7.0990    4.8256   -0.8950  H     
44   H         8.4429    7.0188    3.0991  H     
45   H         6.2875    7.2506    2.2674  H     
@<TRIPOS>BOND
     1    1    2 2
     2    1    6 1
     3    1   28 1
     4    2    3 1
     5    3    4 2
     6    4    5 1
     7    5    6 2
     8    5    7 1
     9    7    8 1
    10    8    9 1
    11    8   15 1
    12    9   10 1
    13   10   11 1
    14   11   12 2
    15   11   13 1
    16   11   14 1
    17   15   16 am
    18   16   17 2
    19   16   18 1
    20   18   20 2
    21   18   21 1
    22   19   20 1
    23   19   23 2
    24   21   22 2
    25   22   23 1
    26   22   26 1
    27   23   25 1
    28   24   25 2
    29   24   27 1
    30   26   27 2
    31    2   29 1
    32    3   30 1
    33    4   31 1
    34    6   32 1
    35    7   33 1
    36    7   34 1
    37    8   35 1
    38    9   36 1
    39    9   37 1
    40   15   38 1
    41   19   39 1
    42   20   40 1
    43   21   41 1
    44   24   42 1
    45   25   43 1
    46   26   44 1
    47   27   45 1
@<TRIPOS>PROPERTY_DATA
  Total_Score	| 8.2299
  Crash		| -1.1907
  Polar		| 4.4250
  FragIndex	| 1
  FragRMSD	| 0.904

