@<TRIPOS>MOLECULE
BindingDB_34012
 42 44 0 0 0
SMALL
NO_CHARGES


@<TRIPOS>ATOM
1    C        14.0239    8.4055    2.2245  C     
2    C        14.6497    8.6914    3.4506  C     
3    C        15.6164    7.8104    3.9671  C     
4    C        15.9591    6.6452    3.2579  C     
5    C        15.3542    6.3524    2.0110  C     
6    C        14.3759    7.2445    1.5097  C     
7    C        15.7373    5.1255    1.2560  C     
8    C        14.9446    3.8611    1.7067  C     
9    C        15.4009    2.5739    0.9613  C     
10   O        16.7844    2.2327    1.1884  O     
11   P        17.1332    1.3798    2.4455  P     
12   O        16.6806    1.9701    3.6773  O     
13   O        16.5976   -0.0633    2.3323  O     
14   O        18.6689    1.2972    2.5319  O     
15   N        13.5426    4.0462    1.4461  N     
16   C        12.6691    4.6786    2.2159  C     
17   O        13.0149    5.1574    3.2877  O     
18   C        11.3798    4.8781    1.7739  C     
19   C        10.4272    5.7700    2.2950  C     
20   S        10.6264    4.0896    0.4363  S     
21   C         9.1224    4.9108    0.5331  C     
22   C         6.9358    6.5511    1.0986  C     
23   C         6.8727    5.6385    0.0217  C     
24   C         7.9737    4.8057   -0.2705  C     
25   C         9.1990    5.8043    1.6097  C     
26   C         8.0950    6.6338    1.8990  C     
27   F        13.1094    9.2190    1.7601  F     
28   H        14.4051    9.5361    3.9725  H     
29   H        16.0711    8.0193    4.8602  H     
30   H        16.6584    6.0124    3.6503  H     
31   H        13.9204    7.0589    0.6079  H     
32   H        15.5816    5.2819    0.1863  H     
33   H        16.8094    4.9545    1.4000  H     
34   H        15.1216    3.6998    2.7728  H     
35   H        14.7257    1.7472    1.1999  H     
36   H        15.3068    2.7512   -0.1113  H     
37   H        13.2356    3.7762    0.5666  H     
38   H        10.6194    6.3766    3.0946  H     
39   H         6.1339    7.1525    1.3023  H     
40   H         6.0244    5.5827   -0.5483  H     
41   H         7.9352    4.1441   -1.0475  H     
42   H         8.1328    7.2938    2.6791  H     
@<TRIPOS>BOND
     1    1    2 2
     2    1    6 1
     3    1   27 1
     4    2    3 1
     5    3    4 2
     6    4    5 1
     7    5    6 2
     8    5    7 1
     9    7    8 1
    10    8    9 1
    11    8   15 1
    12    9   10 1
    13   10   11 1
    14   11   12 2
    15   11   13 1
    16   11   14 1
    17   15   16 am
    18   16   17 2
    19   16   18 1
    20   18   19 2
    21   18   20 1
    22   19   25 1
    23   20   21 1
    24   21   24 1
    25   21   25 2
    26   22   23 1
    27   22   26 2
    28   23   24 2
    29   25   26 1
    30    2   28 1
    31    3   29 1
    32    4   30 1
    33    6   31 1
    34    7   32 1
    35    7   33 1
    36    8   34 1
    37    9   35 1
    38    9   36 1
    39   15   37 1
    40   19   38 1
    41   22   39 1
    42   23   40 1
    43   24   41 1
    44   26   42 1
@<TRIPOS>PROPERTY_DATA
  Total_Score	| 8.3998
  Crash		| -0.9303
  Polar		| 4.5122
  FragIndex	| 1
  FragRMSD	| 1.193

