@<TRIPOS>MOLECULE
BindingDB_34013
 48 50 0 0 0
SMALL
NO_CHARGES


@<TRIPOS>ATOM
1    C        14.1774    8.3200    2.3086  C     
2    C        14.8249    8.5960    3.5335  C     
3    C        15.8357    7.7431    4.0068  C     
4    C        16.1992    6.6003    3.2727  C     
5    C        15.5621    6.2997    2.0474  C     
6    C        14.5691    7.1847    1.5670  C     
7    C        15.8784    5.0477    1.3055  C     
8    C        15.0363    3.8349    1.8033  C     
9    C        15.3672    2.5335    1.0175  C     
10   O        16.7441    2.1154    1.1538  O     
11   P        17.1562    1.3299    2.4367  P     
12   O        16.7659    1.9646    3.6670  O     
13   O        16.6266   -0.1174    2.4150  O     
14   O        18.6924    1.2473    2.4684  O     
15   N        13.6329    4.1339    1.6555  N     
16   C        12.7728    4.4413    2.6264  C     
17   O        13.1429    4.3929    3.7951  O     
18   C        11.4722    4.8807    2.3497  C     
19   C         9.4378    6.0823    3.0609  C     
20   C        10.7508    5.6463    3.3033  C     
21   C        10.8280    4.5859    1.1226  C     
22   C         9.5042    5.0094    0.8655  C     
23   C         8.7975    5.7556    1.8536  C     
24   C         6.8983    5.8191    0.4175  C     
25   C         7.4806    6.1490    1.5877  C     
26   C         8.8530    4.7185   -0.3397  C     
27   C         7.5815    5.1221   -0.5423  C     
28   C        13.0522    9.1378    1.8256  C     
29   H        14.5565    9.4084    4.0944  H     
30   H        16.3005    7.9493    4.8954  H     
31   H        16.9235    5.9812    3.6445  H     
32   H        14.0884    6.9710    0.6896  H     
33   H        15.6966    5.1958    0.2369  H     
34   H        16.9442    4.8265    1.4147  H     
35   H        15.2907    3.6586    2.8514  H     
36   H        14.6651    1.7385    1.2911  H     
37   H        15.2133    2.7322   -0.0457  H     
38   H        13.3133    4.2212    0.7416  H     
39   H         8.9522    6.6303    3.7744  H     
40   H        11.1790    5.9099    4.1913  H     
41   H        11.3144    4.0355    0.4093  H     
42   H         5.9576    6.0890    0.2481  H     
43   H         6.9608    6.6616    2.2657  H     
44   H         9.3245    4.2158   -1.0570  H     
45   H         7.1325    4.9082   -1.4013  H     
46   H        12.1734    8.5036    1.7006  H     
47   H        13.3112    9.5699    0.8593  H     
48   H        12.8078    9.9443    2.5183  H     
@<TRIPOS>BOND
     1    1    2 2
     2    1    6 1
     3    1   28 1
     4    2    3 1
     5    3    4 2
     6    4    5 1
     7    5    6 2
     8    5    7 1
     9    7    8 1
    10    8    9 1
    11    8   15 1
    12    9   10 1
    13   10   11 1
    14   11   12 2
    15   11   13 1
    16   11   14 1
    17   15   16 am
    18   16   17 2
    19   16   18 1
    20   18   20 2
    21   18   21 1
    22   19   20 1
    23   19   23 2
    24   21   22 2
    25   22   23 1
    26   22   26 1
    27   23   25 1
    28   24   25 2
    29   24   27 1
    30   26   27 2
    31    2   29 1
    32    3   30 1
    33    4   31 1
    34    6   32 1
    35    7   33 1
    36    7   34 1
    37    8   35 1
    38    9   36 1
    39    9   37 1
    40   15   38 1
    41   19   39 1
    42   20   40 1
    43   21   41 1
    44   24   42 1
    45   25   43 1
    46   26   44 1
    47   27   45 1
    48   28   46 1
    49   28   47 1
    50   28   48 1
@<TRIPOS>PROPERTY_DATA
  Total_Score	| 8.4812
  Crash		| -1.8007
  Polar		| 4.5603
  FragIndex	| 1
  FragRMSD	| 0.287

