@<TRIPOS>MOLECULE
BindingDB_26664
 28 30 0 0 0
SMALL
NO_CHARGES


@<TRIPOS>ATOM
1    C        76.5546   31.9895    0.2038  C     
2    C        76.4002   31.1596   -2.0786  C     
3    C        75.9311   32.4169   -2.5088  C     
4    C        76.0785   33.2497   -0.2194  C     
5    C        75.7626   33.4766   -1.5834  C     
6    C        75.3024   34.7564   -1.9195  C     
7    C        75.1821   35.7362   -0.9730  C     
8    C        75.4471   35.5005    0.3333  C     
9    O        75.9034   34.2633    0.7099  O     
10   O        74.9566   35.0118   -3.0645  O     
11   C        75.3016   36.4823    1.3399  C     
12   C        75.8981   37.2984    3.5908  C     
13   C        76.0059   36.3427    2.5661  C     
14   C        74.4645   37.6300    1.2017  C     
15   C        74.3771   38.6019    2.2234  C     
16   C        75.0972   38.4382    3.4152  C     
17   C        76.6998   30.9358   -0.7202  C     
18   O        77.1266   29.7057   -0.3282  O     
19   H        76.7968   31.8398    1.1888  H     
20   H        76.5151   30.4009   -2.7551  H     
21   H        75.7096   32.5491   -3.4976  H     
22   H        74.9042   36.6481   -1.2656  H     
23   H        76.4171   37.1720    4.4604  H     
24   H        76.6241   35.5424    2.7260  H     
25   H        73.8938   37.7748    0.3632  H     
26   H        73.7835   39.4254    2.0954  H     
27   H        75.0368   39.1447    4.1545  H     
28   H        76.8315   29.5890    0.6036  H     
@<TRIPOS>BOND
     1    1    4 1
     2    1   17 2
     3    2    3 2
     4    2   17 1
     5    3    5 1
     6    4    5 2
     7    4    9 1
     8    5    6 1
     9    6    7 1
    10    6   10 2
    11    7    8 2
    12    8    9 1
    13    8   11 1
    14   11   13 2
    15   11   14 1
    16   12   13 1
    17   12   16 2
    18   14   15 2
    19   15   16 1
    20   17   18 1
    21    1   19 1
    22    2   20 1
    23    3   21 1
    24    7   22 1
    25   12   23 1
    26   13   24 1
    27   14   25 1
    28   15   26 1
    29   16   27 1
    30   18   28 1
@<TRIPOS>PROPERTY_DATA
  Total_Score	| 4.5395
  Crash		| -0.5216
  Polar		| 1.1056
  FragIndex	| 1
  FragRMSD	| 0.378

