@<TRIPOS>MOLECULE
BindingDB_7461
 29 31 0 0 0
SMALL
NO_CHARGES


@<TRIPOS>ATOM
1    C        75.8511   32.4053   -2.5527  C     
2    C        76.3380   31.1572   -2.1115  C     
3    C        76.6936   30.9576   -0.7665  C     
4    C        76.5593   32.0213    0.1477  C     
5    O        77.1629   29.7451   -0.3802  O     
6    C        75.6974   33.4770   -1.6312  C     
7    C        76.0511   33.2638   -0.2762  C     
8    C        75.2223   34.7531   -1.9511  C     
9    C        75.4083   35.4917    0.2930  C     
10   C        75.1155   35.7343   -1.0069  C     
11   O        74.8490   35.0265   -3.0861  O     
12   O        75.8856   34.2654    0.6570  O     
13   C        75.2960   36.4479    1.3299  C     
14   C        76.0372   36.2955    2.5265  C     
15   C        74.4496   37.5858    1.2442  C     
16   C        74.3877   38.5402    2.2861  C     
17   C        75.1463   38.3590    3.4513  C     
18   C        75.9625   37.2246    3.5763  C     
19   O        75.5308   32.5392   -3.8637  O     
20   H        76.4293   30.3850   -2.7756  H     
21   H        76.8213   31.8922    1.1253  H     
22   H        76.8793   29.6113    0.5491  H     
23   H        74.8402   36.6477   -1.2974  H     
24   H        76.6684   35.5023    2.6550  H     
25   H        73.8483   37.7308    0.4286  H     
26   H        73.7826   39.3608    2.1996  H     
27   H        75.1006   39.0448    4.2050  H     
28   H        76.5071   37.0834    4.4293  H     
29   H        76.3501   32.3312   -4.3626  H     
@<TRIPOS>BOND
     1    1    2 1
     2    1    6 2
     3    1   19 1
     4    2    3 2
     5    3    4 1
     6    3    5 1
     7    4    7 2
     8    6    7 1
     9    6    8 1
    10    7   12 1
    11    8   10 1
    12    8   11 2
    13    9   10 2
    14    9   12 1
    15    9   13 1
    16   13   14 1
    17   13   15 2
    18   14   18 2
    19   15   16 1
    20   16   17 2
    21   17   18 1
    22    2   20 1
    23    4   21 1
    24    5   22 1
    25   10   23 1
    26   14   24 1
    27   15   25 1
    28   16   26 1
    29   17   27 1
    30   18   28 1
    31   19   29 1
@<TRIPOS>PROPERTY_DATA
  Total_Score	| 4.8729
  Crash		| -0.5926
  Polar		| 1.0900
  FragIndex	| 1
  FragRMSD	| 0.366

