@<TRIPOS>MOLECULE
BindingDB_7460
 32 34 0 0 0
SMALL
NO_CHARGES


@<TRIPOS>ATOM
1    C        75.8451   32.3697   -2.6219  C     
2    C        76.3242   31.1042   -2.2193  C     
3    C        76.6421   30.8524   -0.8731  C     
4    C        76.4840   31.8730    0.0769  C     
5    O        77.0943   29.6310   -0.5104  O     
6    C        75.6889   33.4144   -1.6674  C     
7    C        76.0062   33.1343   -0.3158  C     
8    C        75.2659   34.7244   -1.9420  C     
9    C        75.5304   35.3669    0.3155  C     
10   C        75.2498   35.6903   -0.9699  C     
11   O        74.9319   35.0299   -3.0796  O     
12   O        75.0573   36.9653   -1.2925  O     
13   O        75.8313   34.0824    0.6630  O     
14   C        75.5536   36.2670    1.3904  C     
15   C        76.4574   36.0577    2.4623  C     
16   C        74.6677   37.3753    1.4703  C     
17   C        74.7008   38.2418    2.5855  C     
18   C        75.6082   38.0096    3.6396  C     
19   C        76.4838   36.9098    3.5728  C     
20   O        75.6450   38.8455    4.7132  O     
21   O        73.8456   39.2895    2.6306  O     
22   O        75.5418   32.5322   -3.9290  O     
23   H        76.4285   30.3573   -2.9099  H     
24   H        76.7237   31.6998    1.0562  H     
25   H        76.9606   29.5646    0.4633  H     
26   H        74.2527   36.9637   -1.8762  H     
27   H        77.1129   35.2766    2.4400  H     
28   H        73.9839   37.5389    0.7263  H     
29   H        77.1470   36.7264    4.3272  H     
30   H        76.4182   38.5638    5.2501  H     
31   H        73.7025   39.4804    3.5864  H     
32   H        74.5606   32.5202   -3.9595  H     
@<TRIPOS>BOND
     1    1    2 1
     2    1    6 2
     3    1   22 1
     4    2    3 2
     5    3    4 1
     6    3    5 1
     7    4    7 2
     8    6    7 1
     9    6    8 1
    10    7   13 1
    11    8   10 1
    12    8   11 2
    13    9   10 2
    14    9   13 1
    15    9   14 1
    16   10   12 1
    17   14   15 1
    18   14   16 2
    19   15   19 2
    20   16   17 1
    21   17   18 2
    22   17   21 1
    23   18   19 1
    24   18   20 1
    25    2   23 1
    26    4   24 1
    27    5   25 1
    28   12   26 1
    29   15   27 1
    30   16   28 1
    31   19   29 1
    32   20   30 1
    33   21   31 1
    34   22   32 1
@<TRIPOS>PROPERTY_DATA
  Total_Score	| 4.5273
  Crash		| -1.4399
  Polar		| 1.9473
  FragIndex	| 1
  FragRMSD	| 0.614

