@<TRIPOS>MOLECULE
BindingDB_26665
 30 32 0 0 0
SMALL
NO_CHARGES


@<TRIPOS>ATOM
1    C        76.6849   31.9588    0.2183  C     
2    C        76.2686   31.1836   -2.0532  C     
3    C        75.7536   32.4455   -2.3983  C     
4    C        76.1818   33.2322   -0.1232  C     
5    C        75.7011   33.4810   -1.4359  C     
6    C        75.1902   34.7527   -1.6888  C     
7    C        75.1310   35.6940   -0.7028  C     
8    C        75.6143   35.4476    0.5421  C     
9    O        76.1617   34.2329    0.8271  O     
10   O        74.7523   35.0417   -2.7981  O     
11   C        75.5777   36.3782    1.5951  C     
12   C        75.5407   36.8364    4.0213  C     
13   C        75.5682   35.9318    2.9453  C     
14   C        75.5812   37.7841    1.3811  C     
15   C        75.5427   38.6913    2.4508  C     
16   C        75.5256   38.2232    3.7737  C     
17   C        76.7176   30.9281   -0.7456  C     
18   O        77.1910   29.6886   -0.4447  O     
19   O        77.1552   31.7365    1.4727  O     
20   O        75.5425   39.1072    4.7993  O     
21   H        76.3042   30.4425   -2.7555  H     
22   H        75.4076   32.5958   -3.3493  H     
23   H        74.6801   36.5577   -0.9028  H     
24   H        75.5322   36.4798    4.9832  H     
25   H        75.5624   34.9302    3.1620  H     
26   H        75.6411   38.1786    0.4440  H     
27   H        75.5494   39.6980    2.2834  H     
28   H        76.9057   29.5090    0.4788  H     
29   H        76.4526   31.2143    1.9194  H     
30   H        76.3273   38.8553    5.3379  H     
@<TRIPOS>BOND
     1    1    4 1
     2    1   17 2
     3    1   19 1
     4    2    3 2
     5    2   17 1
     6    3    5 1
     7    4    5 2
     8    4    9 1
     9    5    6 1
    10    6    7 1
    11    6   10 2
    12    7    8 2
    13    8    9 1
    14    8   11 1
    15   11   13 2
    16   11   14 1
    17   12   13 1
    18   12   16 2
    19   14   15 2
    20   15   16 1
    21   16   20 1
    22   17   18 1
    23    2   21 1
    24    3   22 1
    25    7   23 1
    26   12   24 1
    27   13   25 1
    28   14   26 1
    29   15   27 1
    30   18   28 1
    31   19   29 1
    32   20   30 1
@<TRIPOS>PROPERTY_DATA
  Total_Score	| 4.5208
  Crash		| -0.6104
  Polar		| 1.6859
  FragIndex	| 1
  FragRMSD	| 0.273

