@<TRIPOS>MOLECULE
BindingDB_7458
 30 32 0 0 0
SMALL
NO_CHARGES


@<TRIPOS>ATOM
1    C        75.8660   32.4486   -2.5553  C     
2    C        76.3635   31.2015   -2.1269  C     
3    C        76.6834   30.9727   -0.7749  C     
4    C        76.5120   32.0129    0.1565  C     
5    O        77.1628   29.7629   -0.3868  O     
6    C        75.7008   33.5088   -1.6213  C     
7    C        76.0206   33.2685   -0.2607  C     
8    C        75.2657   34.8075   -1.9317  C     
9    C        75.4422   35.5082    0.3236  C     
10   C        75.1555   35.7703   -0.9729  C     
11   O        74.9968   35.1241   -3.0847  O     
12   O        75.8742   34.2626    0.6818  O     
13   C        75.3395   36.4584    1.3543  C     
14   C        76.1450   36.3283    2.5154  C     
15   C        74.4454   37.5622    1.3089  C     
16   C        74.3770   38.4975    2.3626  C     
17   C        75.1930   38.3450    3.4967  C     
18   C        76.0692   37.2497    3.5719  C     
19   O        75.1156   39.2583    4.5004  O     
20   O        75.5756   32.5702   -3.8755  O     
21   H        76.4872   30.4391   -2.8033  H     
22   H        76.7522   31.8645    1.1405  H     
23   H        77.0573   29.7155    0.5880  H     
24   H        74.8841   36.6875   -1.2451  H     
25   H        76.8174   35.5614    2.6006  H     
26   H        73.7963   37.6848    0.5259  H     
27   H        73.7261   39.2857    2.3056  H     
28   H        76.6678   37.1236    4.3919  H     
29   H        75.7890   39.0004    5.1662  H     
30   H        74.7274   33.0603   -3.9162  H     
@<TRIPOS>BOND
     1    1    2 1
     2    1    6 2
     3    1   20 1
     4    2    3 2
     5    3    4 1
     6    3    5 1
     7    4    7 2
     8    6    7 1
     9    6    8 1
    10    7   12 1
    11    8   10 1
    12    8   11 2
    13    9   10 2
    14    9   12 1
    15    9   13 1
    16   13   14 1
    17   13   15 2
    18   14   18 2
    19   15   16 1
    20   16   17 2
    21   17   18 1
    22   17   19 1
    23    2   21 1
    24    4   22 1
    25    5   23 1
    26   10   24 1
    27   14   25 1
    28   15   26 1
    29   16   27 1
    30   18   28 1
    31   19   29 1
    32   20   30 1
@<TRIPOS>PROPERTY_DATA
  Total_Score	| 4.5052
  Crash		| -0.7905
  Polar		| 1.0850
  FragIndex	| 1
  FragRMSD	| 0.394

