@<TRIPOS>MOLECULE
BindingDB_26656
 32 34 0 0 0
SMALL
NO_CHARGES


@<TRIPOS>ATOM
1    C        76.6039   32.0134    0.2428  C     
2    C        76.3809   31.1989   -2.0403  C     
3    C        75.8795   32.4480   -2.4442  C     
4    C        76.1162   33.2742   -0.1518  C     
5    C        75.7444   33.5042   -1.5010  C     
6    C        75.2733   34.7818   -1.8026  C     
7    C        75.1544   35.7431   -0.8414  C     
8    C        75.5330   35.5216    0.4390  C     
9    O        76.0075   34.2827    0.7877  O     
10   O        74.9825   35.0884   -2.9530  O     
11   C        75.4586   36.4983    1.4653  C     
12   C        75.4531   37.0647    3.8761  C     
13   C        75.5328   36.1214    2.8344  C     
14   C        75.3234   37.8899    1.2002  C     
15   C        75.2164   38.8413    2.2353  C     
16   C        75.2945   38.4267    3.5769  C     
17   C        76.7312   30.9725   -0.6980  C     
18   O        75.2531   39.3306    4.5889  O     
19   O        75.5555   36.6493    5.1633  O     
20   O        77.1887   29.7486   -0.3340  O     
21   O        75.5229   32.5740   -3.7490  O     
22   O        75.0521   40.1524    1.9242  O     
23   H        76.8748   31.8524    1.2180  H     
24   H        76.4738   30.4420   -2.7230  H     
25   H        74.7570   36.6159   -1.1094  H     
26   H        75.6522   35.1419    3.0932  H     
27   H        75.3190   38.2406    0.2414  H     
28   H        75.7898   40.0975    4.2857  H     
29   H        76.4535   36.9229    5.4520  H     
30   H        76.8566   29.5952    0.5772  H     
31   H        74.5697   32.8056   -3.7368  H     
32   H        74.1199   40.3534    2.1622  H     
@<TRIPOS>BOND
     1    1    4 1
     2    1   17 2
     3    2    3 2
     4    2   17 1
     5    3    5 1
     6    3   21 1
     7    4    5 2
     8    4    9 1
     9    5    6 1
    10    6    7 1
    11    6   10 2
    12    7    8 2
    13    8    9 1
    14    8   11 1
    15   11   13 2
    16   11   14 1
    17   12   13 1
    18   12   16 2
    19   12   19 1
    20   14   15 2
    21   15   16 1
    22   15   22 1
    23   16   18 1
    24   17   20 1
    25    1   23 1
    26    2   24 1
    27    7   25 1
    28   13   26 1
    29   14   27 1
    30   18   28 1
    31   19   29 1
    32   20   30 1
    33   21   31 1
    34   22   32 1
@<TRIPOS>PROPERTY_DATA
  Total_Score	| 4.6296
  Crash		| -0.5424
  Polar		| 2.2292
  FragIndex	| 1
  FragRMSD	| 0.145

