@<TRIPOS>MOLECULE
BindingDB_7457
 31 33 0 0 0
SMALL
NO_CHARGES


@<TRIPOS>ATOM
1    C        75.8905   32.3855   -2.6822  C     
2    C        76.3070   31.0930   -2.3031  C     
3    C        76.6139   30.8104   -0.9606  C     
4    C        76.5197   31.8333    0.0039  C     
5    O        77.0195   29.5658   -0.6088  O     
6    C        75.7792   33.4180   -1.7174  C     
7    C        76.0992   33.1240   -0.3697  C     
8    C        75.3723   34.7266   -1.9957  C     
9    C        75.6039   35.3575    0.2784  C     
10   C        75.3072   35.6773   -1.0097  C     
11   O        75.0704   35.0279   -3.1453  O     
12   O        75.0854   36.9398   -1.3928  O     
13   O        75.9914   34.0951    0.5982  O     
14   C        75.5832   36.2616    1.3536  C     
15   C        76.5146   36.0909    2.4129  C     
16   C        74.6520   37.3250    1.4807  C     
17   C        74.6757   38.2009    2.5721  C     
18   C        75.6117   38.0128    3.6084  C     
19   C        76.5277   36.9473    3.5239  C     
20   O        75.6395   38.8623    4.6697  O     
21   O        73.7984   39.2279    2.6187  O     
22   H        75.6640   32.5622   -3.6645  H     
23   H        76.3755   30.3563   -3.0086  H     
24   H        76.7609   31.6363    0.9777  H     
25   H        76.8619   29.4728    0.3585  H     
26   H        74.0819   36.9937   -1.4091  H     
27   H        77.2234   35.3507    2.3795  H     
28   H        73.9113   37.4473    0.7931  H     
29   H        77.2169   36.8017    4.2650  H     
30   H        76.3556   38.5239    5.2682  H     
31   H        73.0562   38.9019    3.1864  H     
@<TRIPOS>BOND
     1    1    2 1
     2    1    6 2
     3    2    3 2
     4    3    4 1
     5    3    5 1
     6    4    7 2
     7    6    7 1
     8    6    8 1
     9    7   13 1
    10    8   10 1
    11    8   11 2
    12    9   10 2
    13    9   13 1
    14    9   14 1
    15   10   12 1
    16   14   15 1
    17   14   16 2
    18   15   19 2
    19   16   17 1
    20   17   18 2
    21   17   21 1
    22   18   19 1
    23   18   20 1
    24    1   22 1
    25    2   23 1
    26    4   24 1
    27    5   25 1
    28   12   26 1
    29   15   27 1
    30   16   28 1
    31   19   29 1
    32   20   30 1
    33   21   31 1
@<TRIPOS>PROPERTY_DATA
  Total_Score	| 4.7396
  Crash		| -1.3878
  Polar		| 1.8021
  FragIndex	| 1
  FragRMSD	| 0.668

