@<TRIPOS>MOLECULE
BindingDB_26655
 33 35 0 0 0
SMALL
NO_CHARGES


@<TRIPOS>ATOM
1    C        76.4546   32.0694    0.2349  C     
2    C        76.3917   31.2010   -2.0381  C     
3    C        75.8670   32.4204   -2.5063  C     
4    C        75.9342   33.2955   -0.2317  C     
5    C        75.6482   33.4946   -1.6025  C     
6    C        75.1858   34.7663   -1.9521  C     
7    C        75.1384   35.7960   -1.0414  C     
8    C        75.3847   35.5776    0.2805  C     
9    O        75.6654   34.2993    0.6683  O     
10   O        74.8288   34.9841   -3.1038  O     
11   C        75.3865   36.5333    1.3432  C     
12   C        75.5149   36.9753    3.7922  C     
13   C        75.4981   36.0911    2.6965  C     
14   C        75.2722   37.9435    1.1765  C     
15   C        75.2965   38.8387    2.2616  C     
16   C        75.4238   38.3604    3.5758  C     
17   O        74.9148   37.0031   -1.5491  O     
18   C        76.6883   31.0200   -0.6761  C     
19   O        75.4443   39.2147    4.6325  O     
20   O        75.6032   36.4681    5.0484  O     
21   O        77.2039   29.8280   -0.2792  O     
22   O        75.6018   32.5049   -3.8357  O     
23   O        76.7430   31.8804    1.5498  O     
24   H        76.5505   30.4340   -2.6948  H     
25   H        75.5769   35.0962    2.9191  H     
26   H        75.1610   38.3728    0.2656  H     
27   H        75.2122   39.8446    2.0908  H     
28   H        73.9638   37.1772   -1.3788  H     
29   H        75.7813   40.0700    4.2909  H     
30   H        76.4487   36.8012    5.4138  H     
31   H        76.8649   29.6640    0.6264  H     
32   H        74.6317   32.6279   -3.9043  H     
33   H        76.6872   32.7600    1.9783  H     
@<TRIPOS>BOND
     1    1    4 1
     2    1   18 2
     3    1   23 1
     4    2    3 2
     5    2   18 1
     6    3    5 1
     7    3   22 1
     8    4    5 2
     9    4    9 1
    10    5    6 1
    11    6    7 1
    12    6   10 2
    13    7    8 2
    14    7   17 1
    15    8    9 1
    16    8   11 1
    17   11   13 2
    18   11   14 1
    19   12   13 1
    20   12   16 2
    21   12   20 1
    22   14   15 2
    23   15   16 1
    24   16   19 1
    25   18   21 1
    26    2   24 1
    27   13   25 1
    28   14   26 1
    29   15   27 1
    30   17   28 1
    31   19   29 1
    32   20   30 1
    33   21   31 1
    34   22   32 1
    35   23   33 1
@<TRIPOS>PROPERTY_DATA
  Total_Score	| 4.3958
  Crash		| -0.9237
  Polar		| 2.1746
  FragIndex	| 1
  FragRMSD	| 0.143

