@<TRIPOS>MOLECULE
BindingDB_15236
 33 35 0 0 0
SMALL
NO_CHARGES


@<TRIPOS>ATOM
1    C        75.8986   32.4717   -2.5127  C     
2    C        76.3530   31.2015   -2.1111  C     
3    C        76.6911   30.9525   -0.7677  C     
4    C        76.6132   32.0011    0.1707  C     
5    O        77.1230   29.7139   -0.4120  O     
6    C        75.7810   33.5207   -1.5604  C     
7    C        76.1734   33.2782   -0.2209  C     
8    C        75.3092   34.8099   -1.8397  C     
9    C        75.5926   35.5060    0.4101  C     
10   C        75.1369   35.7357   -0.8515  C     
11   O        75.0110   35.1221   -2.9881  O     
12   O        74.3686   36.7804   -1.1664  O     
13   O        76.1678   34.3009    0.6929  O     
14   C        75.5279   36.4144    1.4960  C     
15   C        75.5661   35.9139    2.8280  C     
16   C        75.4795   37.8285    1.3553  C     
17   C        75.4112   38.6839    2.4663  C     
18   C        75.5131   38.1570    3.7681  C     
19   O        75.5317   38.9972    4.8447  O     
20   O        75.2984   40.0284    2.2968  O     
21   O        75.5598   32.6484   -3.8181  O     
22   C        75.6056   36.7641    3.9460  C     
23   O        75.7407   36.2327    5.1883  O     
24   H        76.4259   30.4496   -2.7995  H     
25   H        76.8817   31.8296    1.1416  H     
26   H        76.8569   29.5890    0.5275  H     
27   H        75.0140   37.4189   -1.6174  H     
28   H        75.5889   34.9051    3.0054  H     
29   H        75.5258   38.2718    0.4515  H     
30   H        76.3496   38.7506    5.3422  H     
31   H        74.3490   40.1761    2.0764  H     
32   H        76.3707   32.4132   -4.3272  H     
33   H        76.5932   36.5962    5.5240  H     
@<TRIPOS>BOND
     1    1    2 1
     2    1    6 2
     3    1   21 1
     4    2    3 2
     5    3    4 1
     6    3    5 1
     7    4    7 2
     8    6    7 1
     9    6    8 1
    10    7   13 1
    11    8   10 1
    12    8   11 2
    13    9   10 2
    14    9   13 1
    15    9   14 1
    16   10   12 1
    17   14   15 1
    18   14   16 2
    19   15   22 2
    20   16   17 1
    21   17   18 2
    22   17   20 1
    23   18   19 1
    24   18   22 1
    25   22   23 1
    26    2   24 1
    27    4   25 1
    28    5   26 1
    29   12   27 1
    30   15   28 1
    31   16   29 1
    32   19   30 1
    33   20   31 1
    34   21   32 1
    35   23   33 1
@<TRIPOS>PROPERTY_DATA
  Total_Score	| 5.2130
  Crash		| -0.7205
  Polar		| 2.9387
  FragIndex	| 1
  FragRMSD	| 0.275

