@<TRIPOS>MOLECULE
BindingDB_7462
 31 33 0 0 0
SMALL
NO_CHARGES


@<TRIPOS>ATOM
1    C        75.8843   32.4743   -2.5060  C     
2    C        76.3795   31.2146   -2.1258  C     
3    C        76.6890   30.9435   -0.7815  C     
4    C        76.5440   31.9583    0.1816  C     
5    O        77.1374   29.7118   -0.4398  O     
6    C        75.7020   33.4983   -1.5347  C     
7    C        76.0626   33.2277   -0.1894  C     
8    C        75.1871   34.7741   -1.7840  C     
9    C        75.4874   35.4485    0.4782  C     
10   C        75.0664   35.7110   -0.7835  C     
11   O        74.8343   35.0703   -2.9178  O     
12   O        75.9465   34.1999    0.7813  O     
13   C        75.5000   36.3732    1.5501  C     
14   C        75.5014   35.9110    2.8947  C     
15   C        75.5761   37.7824    1.3682  C     
16   C        75.5779   38.6760    2.4612  C     
17   C        75.5806   38.1827    3.7764  C     
18   C        75.5539   36.7949    3.9923  C     
19   O        75.6758   39.0380    4.8235  O     
20   O        75.5892   32.6457   -3.8159  O     
21   O        74.4615   36.8625   -1.0855  O     
22   H        76.4988   30.4801   -2.8311  H     
23   H        76.7926   31.7753    1.1572  H     
24   H        76.8691   29.5676    0.4928  H     
25   H        75.4739   34.9145    3.0987  H     
26   H        75.6773   38.1792    0.4313  H     
27   H        75.6233   39.6866    2.3070  H     
28   H        75.5873   36.4296    4.9459  H     
29   H        76.4507   38.7273    5.3405  H     
30   H        74.6155   32.5449   -3.8713  H     
31   H        75.1224   37.3623   -1.5999  H     
@<TRIPOS>BOND
     1    1    2 1
     2    1    6 2
     3    1   20 1
     4    2    3 2
     5    3    4 1
     6    3    5 1
     7    4    7 2
     8    6    7 1
     9    6    8 1
    10    7   12 1
    11    8   10 1
    12    8   11 2
    13    9   10 2
    14    9   12 1
    15    9   13 1
    16   10   21 1
    17   13   14 1
    18   13   15 2
    19   14   18 2
    20   15   16 1
    21   16   17 2
    22   17   18 1
    23   17   19 1
    24    2   22 1
    25    4   23 1
    26    5   24 1
    27   14   25 1
    28   15   26 1
    29   16   27 1
    30   18   28 1
    31   19   29 1
    32   20   30 1
    33   21   31 1
@<TRIPOS>PROPERTY_DATA
  Total_Score	| 4.7116
  Crash		| -0.7745
  Polar		| 2.0041
  FragIndex	| 1
  FragRMSD	| 0.269

