@<TRIPOS>MOLECULE
BindingDB_26659
 29 31 0 0 0
SMALL
NO_CHARGES


@<TRIPOS>ATOM
1    C        75.6347   36.7313    3.1288  C     
2    C        74.7378   38.9783    2.8657  C     
3    C        74.5089   38.7279    1.5019  C     
4    C        75.3897   36.4627    1.7623  C     
5    C        74.8365   37.4705    0.9358  C     
6    C        74.6452   37.1560   -0.4091  C     
7    C        74.9730   35.9341   -0.9015  C     
8    C        75.4634   34.9445   -0.1109  C     
9    O        75.6869   35.2227    1.2141  O     
10   O        74.1659   37.9765   -1.1812  O     
11   C        75.7821   33.6375   -0.5775  C     
12   C        75.8712   31.8586   -2.3055  C     
13   C        75.5296   33.1555   -1.8960  C     
14   C        76.3881   32.7033    0.3106  C     
15   C        76.7064   31.3893   -0.0790  C     
16   C        76.4372   30.9628   -1.3868  C     
17   C        75.3156   37.9903    3.6825  C     
18   O        75.5432   38.2793    4.9882  O     
19   O        75.5897   31.4320   -3.5607  O     
20   H        76.0473   36.0098    3.7252  H     
21   H        74.4929   39.8896    3.2645  H     
22   H        74.1022   39.4695    0.9301  H     
23   H        74.8521   35.8076   -1.8738  H     
24   H        75.0557   33.7190   -2.6027  H     
25   H        76.6115   32.9613    1.2791  H     
26   H        77.1331   30.7424    0.5868  H     
27   H        76.6435   30.0020   -1.6615  H     
28   H        76.4629   37.9932    5.1767  H     
29   H        76.1695   31.9582   -4.1616  H     
@<TRIPOS>BOND
     1    1    4 1
     2    1   17 2
     3    2    3 2
     4    2   17 1
     5    3    5 1
     6    4    5 2
     7    4    9 1
     8    5    6 1
     9    6    7 1
    10    6   10 2
    11    7    8 2
    12    8    9 1
    13    8   11 1
    14   11   13 2
    15   11   14 1
    16   12   13 1
    17   12   16 2
    18   12   19 1
    19   14   15 2
    20   15   16 1
    21   17   18 1
    22    1   20 1
    23    2   21 1
    24    3   22 1
    25    7   23 1
    26   13   24 1
    27   14   25 1
    28   15   26 1
    29   16   27 1
    30   18   28 1
    31   19   29 1
@<TRIPOS>PROPERTY_DATA
  Total_Score	| 3.9609
  Crash		| -0.5616
  Polar		| 1.8823
  FragIndex	| 1
  FragRMSD	| 1.079

