@<TRIPOS>MOLECULE
BindingDB_7459
 31 33 0 0 0
SMALL
NO_CHARGES


@<TRIPOS>ATOM
1    C        75.9170   32.4528   -2.4885  C     
2    C        76.3982   31.2049   -2.0461  C     
3    C        76.7103   30.9985   -0.6915  C     
4    C        76.5809   32.0604    0.2223  C     
5    O        77.1563   29.7798   -0.2972  O     
6    C        75.7573   33.5286   -1.5723  C     
7    C        76.1220   33.3194   -0.2160  C     
8    C        75.2562   34.8018   -1.8865  C     
9    C        75.4991   35.5468    0.3493  C     
10   C        75.0913   35.7602   -0.9223  C     
11   O        74.9337   35.0841   -3.0360  O     
12   O        76.0447   34.3492    0.6929  O     
13   C        75.4090   36.5118    1.3803  C     
14   C        75.3251   37.9112    1.1297  C     
15   C        75.4363   36.1005    2.7401  C     
16   C        75.3909   37.0232    3.7990  C     
17   C        75.2791   38.3987    3.5226  C     
18   C        75.2592   38.8423    2.1864  C     
19   O        75.1958   39.3049    4.5324  O     
20   O        75.6145   32.5616   -3.8075  O     
21   O        75.4792   36.5732    5.0756  O     
22   H        76.5062   30.4393   -2.7088  H     
23   H        76.8212   31.9209    1.2057  H     
24   H        76.8344   29.6485    0.6233  H     
25   H        74.6293   36.6099   -1.1652  H     
26   H        75.3436   38.2734    0.1781  H     
27   H        75.4955   35.1087    2.9840  H     
28   H        75.2061   39.8411    1.9817  H     
29   H        74.3112   39.1507    4.9373  H     
30   H        74.6400   32.6863   -3.8311  H     
31   H        76.3425   36.9048    5.4058  H     
@<TRIPOS>BOND
     1    1    2 1
     2    1    6 2
     3    1   20 1
     4    2    3 2
     5    3    4 1
     6    3    5 1
     7    4    7 2
     8    6    7 1
     9    6    8 1
    10    7   12 1
    11    8   10 1
    12    8   11 2
    13    9   10 2
    14    9   12 1
    15    9   13 1
    16   13   14 1
    17   13   15 2
    18   14   18 2
    19   15   16 1
    20   16   17 2
    21   16   21 1
    22   17   18 1
    23   17   19 1
    24    2   22 1
    25    4   23 1
    26    5   24 1
    27   10   25 1
    28   14   26 1
    29   15   27 1
    30   18   28 1
    31   19   29 1
    32   20   30 1
    33   21   31 1
@<TRIPOS>PROPERTY_DATA
  Total_Score	| 4.6164
  Crash		| -0.4232
  Polar		| 2.1668
  FragIndex	| 1
  FragRMSD	| 0.098

