@<TRIPOS>MOLECULE
BindingDB_23408
 33 35 0 0 0
SMALL
NO_CHARGES


@<TRIPOS>ATOM
1    C        76.6050   32.0376    0.1154  C     
2    C        76.6879   31.0619   -0.9004  C     
3    C        76.3190   31.3929   -2.2190  C     
4    C        75.8162   32.6794   -2.5047  C     
5    C        76.1227   33.3288   -0.1679  C     
6    C        75.7077   33.6613   -1.4835  C     
7    C        75.2231   34.9584   -1.6727  C     
8    C        75.1039   35.8265   -0.6221  C     
9    C        75.5410   35.4894    0.6162  C     
10   O        74.8754   35.3343   -2.7874  O     
11   O        76.0655   34.2590    0.8471  O     
12   O        74.4820   36.9900   -0.8216  O     
13   O        75.4405   32.9430   -3.7868  O     
14   O        77.1417   29.8092   -0.6180  O     
15   O        76.4852   30.4825   -3.2037  O     
16   C        75.4662   36.3281    1.7465  C     
17   C        75.1310   36.5918    4.1773  C     
18   C        75.1722   35.7833    3.0252  C     
19   C        75.7525   37.7175    1.6806  C     
20   C        75.7125   38.5312    2.8299  C     
21   C        75.4011   37.9671    4.0791  C     
22   O        74.8466   36.0642    5.3998  O     
23   O        75.3883   38.7456    5.1888  O     
24   H        76.9048   31.8051    1.0659  H     
25   H        75.1611   37.5628   -1.2560  H     
26   H        74.4840   32.7007   -3.8130  H     
27   H        76.7984   29.5813    0.2748  H     
28   H        75.8151   30.6983   -3.8931  H     
29   H        74.9673   34.7830    3.1251  H     
30   H        76.0233   38.1556    0.7937  H     
31   H        75.9058   39.5285    2.7622  H     
32   H        73.9539   35.6380    5.3172  H     
33   H        76.2803   38.6177    5.5934  H     
@<TRIPOS>BOND
     1    1    2 2
     2    1    5 1
     3    2    3 1
     4    2   14 1
     5    3    4 2
     6    3   15 1
     7    4    6 1
     8    4   13 1
     9    5    6 2
    10    5   11 1
    11    6    7 1
    12    7    8 1
    13    7   10 2
    14    8    9 2
    15    8   12 1
    16    9   11 1
    17    9   16 1
    18   16   18 2
    19   16   19 1
    20   17   18 1
    21   17   21 2
    22   17   22 1
    23   19   20 2
    24   20   21 1
    25   21   23 1
    26    1   24 1
    27   12   25 1
    28   13   26 1
    29   14   27 1
    30   15   28 1
    31   18   29 1
    32   19   30 1
    33   20   31 1
    34   22   32 1
    35   23   33 1
@<TRIPOS>PROPERTY_DATA
  Total_Score	| 3.9024
  Crash		| -0.8347
  Polar		| 2.9869
  FragIndex	| 1
  FragRMSD	| 0.361

