@<TRIPOS>MOLECULE
BindingDB_26657
 30 32 0 0 0
SMALL
NO_CHARGES


@<TRIPOS>ATOM
1    C        76.5476   31.8869    0.0983  C     
2    C        76.3399   31.0821   -2.1908  C     
3    C        75.8633   32.3440   -2.5915  C     
4    C        76.0923   33.1536   -0.3037  C     
5    C        75.7438   33.3991   -1.6539  C     
6    C        75.3185   34.6924   -1.9731  C     
7    C        75.3338   35.6943   -1.0350  C     
8    C        75.6452   35.4121    0.2548  C     
9    O        75.9877   34.1525    0.6339  O     
10   O        74.9238   34.9403   -3.1076  O     
11   C        75.6288   36.3435    1.3023  C     
12   C        74.4971   38.0308    2.6888  C     
13   C        74.5288   37.2022    1.5553  C     
14   C        76.7061   36.3635    2.2233  C     
15   C        76.6714   37.1845    3.3601  C     
16   C        75.5686   38.0213    3.6035  C     
17   C        76.6761   30.8474   -0.8454  C     
18   O        75.5129   38.8088    4.7155  O     
19   O        77.1340   29.6215   -0.4836  O     
20   O        75.0853   36.9472   -1.4604  O     
21   H        76.7971   31.7194    1.0771  H     
22   H        76.4431   30.3421   -2.8813  H     
23   H        75.6161   32.4910   -3.5792  H     
24   H        73.6832   38.6317    2.8564  H     
25   H        73.7162   37.1967    0.9335  H     
26   H        77.5212   35.7569    2.0883  H     
27   H        77.4463   37.1536    4.0203  H     
28   H        76.3073   38.5702    5.2576  H     
29   H        76.9058   29.5114    0.4661  H     
30   H        75.8439   37.5040   -1.1565  H     
@<TRIPOS>BOND
     1    1    4 1
     2    1   17 2
     3    2    3 2
     4    2   17 1
     5    3    5 1
     6    4    5 2
     7    4    9 1
     8    5    6 1
     9    6    7 1
    10    6   10 2
    11    7    8 2
    12    7   20 1
    13    8    9 1
    14    8   11 1
    15   11   13 2
    16   11   14 1
    17   12   13 1
    18   12   16 2
    19   14   15 2
    20   15   16 1
    21   16   18 1
    22   17   19 1
    23    1   21 1
    24    2   22 1
    25    3   23 1
    26   12   24 1
    27   13   25 1
    28   14   26 1
    29   15   27 1
    30   18   28 1
    31   19   29 1
    32   20   30 1
@<TRIPOS>PROPERTY_DATA
  Total_Score	| 4.7343
  Crash		| -1.4778
  Polar		| 1.8272
  FragIndex	| 1
  FragRMSD	| 0.623

