@<TRIPOS>MOLECULE
BindingDB_50329032
 61 65 0 0 0
SMALL
NO_CHARGES


@<TRIPOS>ATOM
1    C        -7.9354  -26.2879   -3.8207  C     
2    C        -9.1327  -25.6755   -4.2815  C     
3    C        -9.5674  -24.4353   -3.7773  C     
4    C        -7.1230  -25.5416   -2.8916  C     
5    N        -9.0425  -22.7017   -2.0283  N     
6    C        -8.0235  -22.5602   -1.1734  C     
7    C        -7.1137  -23.5367   -1.3566  C     
8    C        -7.5857  -24.3484   -2.3574  C     
9    C        -8.8172  -23.8034   -2.7665  C     
10   C       -10.1420  -21.8715   -2.1040  C     
11   C       -11.4474  -22.4075   -2.1610  C     
12   C       -12.5647  -21.5494   -2.2830  C     
13   C       -12.3812  -20.1582   -2.3128  C     
14   C       -11.0909  -19.6138   -2.2066  C     
15   C        -9.9715  -20.4721   -2.1141  C     
16   C        -5.9601  -23.6853   -0.6526  C     
17   N        -5.6474  -24.7338    0.1411  N     
18   O        -5.1723  -22.7548   -0.7983  O     
19   C        -4.3984  -24.7881    0.8886  C     
20   C        -4.6871  -25.0255    2.3920  C     
21   N        -5.4970  -26.2514    2.5775  N     
22   C        -6.7450  -26.2644    1.7899  C     
23   C        -6.4972  -25.9122    0.2979  C     
24   O        -7.9727  -21.5439   -0.3012  O     
25   C        -7.8613  -21.7621    1.0545  C     
26   C        -8.5020  -22.8298    1.7245  C     
27   C        -8.3936  -22.9605    3.1256  C     
28   C        -7.6500  -22.0243    3.8597  C     
29   C        -7.0312  -20.9479    3.2033  C     
30   C        -7.1412  -20.7973    1.7995  C     
31   C        -6.5436  -19.6215    1.1205  C     
32   F        -8.9987  -23.9437    3.7356  F     
33   C        -7.5999  -27.5950   -4.1584  C     
34   O        -8.4084  -28.3307   -4.7360  O     
35   N        -6.4391  -28.1482   -3.9075  N     
36   H        -9.7372  -26.1575   -4.9543  H     
37   H       -10.4467  -24.0328   -4.0977  H     
38   H        -6.2465  -25.9285   -2.5621  H     
39   H       -11.6051  -23.4138   -2.1205  H     
40   H       -13.5052  -21.9408   -2.3534  H     
41   H       -13.1875  -19.5352   -2.4190  H     
42   H       -10.9606  -18.6010   -2.2103  H     
43   H        -9.0414  -20.0557   -2.0760  H     
44   H        -3.7882  -25.6112    0.5061  H     
45   H        -3.7910  -23.8865    0.8038  H     
46   H        -3.7490  -25.1397    2.9390  H     
47   H        -5.2141  -24.1627    2.8102  H     
48   H        -5.7555  -26.3325    3.5620  H     
49   H        -4.9416  -27.0668    2.3141  H     
50   H        -7.1889  -27.2571    1.8566  H     
51   H        -7.4524  -25.5538    2.2239  H     
52   H        -5.9997  -26.7617   -0.1710  H     
53   H        -7.4830  -25.8075   -0.1786  H     
54   H        -9.0514  -23.5117    1.2023  H     
55   H        -7.5714  -22.1067    4.8777  H     
56   H        -6.5240  -20.2569    3.7586  H     
57   H        -7.3335  -19.0497    0.6280  H     
58   H        -6.0292  -18.9542    1.8116  H     
59   H        -5.8262  -19.9563    0.3687  H     
60   H        -6.2701  -29.0724   -4.1526  H     
61   H        -5.7396  -27.6428   -3.4597  H     
@<TRIPOS>BOND
     1    8    4 2
     2   16   17 1
     3    5    6 1
     4   16   18 2
     5   17   19 1
     6    7    8 1
     7    9    5 1
     8    4    1 1
     9    8    9 1
    10   10   11 2
    11   17   23 1
    12   19   20 1
    13   20   21 1
    14   21   22 1
    15   22   23 1
    16    6   24 1
    17   24   25 1
    18   11   12 1
    19    2    3 1
    20   25   26 2
    21   12   13 2
    22   26   27 1
    23    6    7 2
    24   27   28 2
    25   13   14 1
    26   28   29 1
    27    3    9 2
    28   29   30 2
    29   30   25 1
    30   14   15 2
    31   30   31 1
    32   15   10 1
    33   27   32 1
    34    5   10 1
    35    1   33 1
    36    1    2 2
    37   33   34 2
    38    7   16 1
    39   33   35 am
    40    2   36 1
    41    3   37 1
    42    4   38 1
    43   11   39 1
    44   12   40 1
    45   13   41 1
    46   14   42 1
    47   15   43 1
    48   19   44 1
    49   19   45 1
    50   20   46 1
    51   20   47 1
    52   21   48 1
    53   21   49 1
    54   22   50 1
    55   22   51 1
    56   23   52 1
    57   23   53 1
    58   26   54 1
    59   28   55 1
    60   29   56 1
    61   31   57 1
    62   31   58 1
    63   31   59 1
    64   35   60 1
    65   35   61 1
@<TRIPOS>PROPERTY_DATA
  Total_Score	| 15.7753
  Crash		| -0.8763
  Polar		| 6.8886
  FragIndex	| 1
  FragRMSD	| 1.454

