@<TRIPOS>MOLECULE
BindingDB_50352908
 60 64 0 0 0
SMALL
NO_CHARGES


@<TRIPOS>ATOM
1    N        -6.8929  -25.7293   -4.3567  N     
2    C        -8.0785  -25.3141   -4.8829  C     
3    C        -8.8493  -24.3416   -4.2133  C     
4    C        -6.3795  -25.2219   -3.1967  C     
5    C        -7.1094  -24.2353   -2.5088  C     
6    C        -8.3335  -23.7995   -3.0152  C     
7    N        -8.7978  -22.8388   -2.1831  N     
8    C        -7.9126  -22.6797   -1.1941  C     
9    C        -6.8880  -23.5343   -1.3509  C     
10   C        -5.7778  -23.6460   -0.5865  C     
11   N        -5.4803  -24.6948    0.2081  N     
12   O        -5.0389  -22.6491   -0.6233  O     
13   C        -4.2816  -24.7256    1.0406  C     
14   C        -4.6521  -25.0157    2.5201  C     
15   N        -5.4363  -26.2716    2.6085  N     
16   C        -6.6347  -26.2934    1.7396  C     
17   C        -6.2912  -25.9185    0.2720  C     
18   C        -9.9573  -22.1155   -2.3321  C     
19   C       -11.1932  -22.7761   -2.5275  C     
20   C       -12.3912  -22.0397   -2.6296  C     
21   C       -12.3671  -20.6354   -2.5402  C     
22   C       -11.1449  -19.9646   -2.3501  C     
23   C        -9.9468  -20.7026   -2.2590  C     
24   O        -8.0539  -21.7041   -0.2770  O     
25   C        -7.8505  -21.9784    1.0517  C     
26   C        -8.5011  -23.0761    1.6711  C     
27   C        -8.3369  -23.3187    3.0471  C     
28   C        -7.5316  -22.4591    3.8177  C     
29   C        -6.9447  -21.3236    3.2221  C     
30   C        -7.1013  -21.0645    1.8395  C     
31   O        -8.5435  -25.9021   -6.0199  O     
32   C        -7.9832  -25.3309   -7.2195  C     
33   C        -6.5117  -19.8534    1.2198  C     
34   F        -8.9186  -24.3466    3.6152  F     
35   H        -9.7462  -24.0259   -4.5911  H     
36   H        -5.4810  -25.5536   -2.8505  H     
37   H        -3.6048  -25.5074    0.6672  H     
38   H        -3.7193  -23.7816    1.0290  H     
39   H        -3.7422  -25.1067    3.1103  H     
40   H        -5.2532  -24.1755    2.9158  H     
41   H        -4.8302  -27.0662    2.3500  H     
42   H        -5.7327  -26.3782    3.5866  H     
43   H        -7.0500  -27.3100    1.7712  H     
44   H        -7.3804  -25.6052    2.1425  H     
45   H        -7.2415  -25.8555   -0.2615  H     
46   H        -5.7151  -26.7415   -0.1702  H     
47   H       -11.2362  -23.7909   -2.5716  H     
48   H       -13.2831  -22.5205   -2.7768  H     
49   H       -13.2384  -20.0967   -2.6112  H     
50   H       -11.1242  -18.9441   -2.2910  H     
51   H        -9.0631  -20.1989   -2.1324  H     
52   H        -9.0797  -23.7176    1.1103  H     
53   H        -7.4122  -22.6290    4.8246  H     
54   H        -6.3978  -20.6944    3.8085  H     
55   H        -8.2986  -24.2871   -7.3454  H     
56   H        -8.3531  -25.9052   -8.0748  H     
57   H        -6.8858  -25.3819   -7.2264  H     
58   H        -5.8433  -20.1600    0.3992  H     
59   H        -5.9365  -19.2596    1.9355  H     
60   H        -7.3210  -19.2299    0.8203  H     
@<TRIPOS>BOND
     1    1    2 2
     2    1    4 1
     3    2    3 1
     4    2   31 1
     5    3    6 2
     6    4    5 2
     7    5    6 1
     8    5    9 1
     9    6    7 1
    10    7    8 1
    11    7   18 1
    12    8    9 2
    13    8   24 1
    14    9   10 1
    15   10   11 am
    16   10   12 2
    17   11   13 1
    18   11   17 1
    19   13   14 1
    20   14   15 1
    21   15   16 1
    22   16   17 1
    23   18   19 2
    24   18   23 1
    25   19   20 1
    26   20   21 2
    27   21   22 1
    28   22   23 2
    29   24   25 1
    30   25   26 2
    31   25   30 1
    32   26   27 1
    33   27   28 2
    34   27   34 1
    35   28   29 1
    36   29   30 2
    37   30   33 1
    38   31   32 1
    39    3   35 1
    40    4   36 1
    41   13   37 1
    42   13   38 1
    43   14   39 1
    44   14   40 1
    45   15   41 1
    46   15   42 1
    47   16   43 1
    48   16   44 1
    49   17   45 1
    50   17   46 1
    51   19   47 1
    52   20   48 1
    53   21   49 1
    54   22   50 1
    55   23   51 1
    56   26   52 1
    57   28   53 1
    58   29   54 1
    59   32   55 1
    60   32   56 1
    61   32   57 1
    62   33   58 1
    63   33   59 1
    64   33   60 1
@<TRIPOS>PROPERTY_DATA
  Total_Score	| 14.5053
  Crash		| -0.7464
  Polar		| 6.0445
  FragIndex	| 1
  FragRMSD	| 0.433

