@<TRIPOS>MOLECULE
BindingDB_50352998
 56 60 0 0 0
SMALL
NO_CHARGES


@<TRIPOS>ATOM
1    C        -6.7599  -25.6526   -4.3898  C     
2    N        -7.9305  -25.1916   -4.9041  N     
3    C        -8.7074  -24.2607   -4.2872  C     
4    C        -6.2862  -25.1494   -3.1641  C     
5    N        -8.7730  -22.8095   -2.1858  N     
6    C        -7.9108  -22.6710   -1.1753  C     
7    C        -6.8823  -23.5184   -1.3270  C     
8    C        -7.0836  -24.1943   -2.4990  C     
9    C        -8.2877  -23.7389   -3.0406  C     
10   C        -5.7910  -23.6358   -0.5315  C     
11   O        -8.0351  -21.6817   -0.2702  O     
12   C        -9.9499  -22.1181   -2.2764  C     
13   C       -11.1806  -22.8107   -2.2488  C     
14   C       -12.3999  -22.0995   -2.2596  C     
15   C       -12.3987  -20.6960   -2.3199  C     
16   C       -11.1765  -19.9972   -2.3648  C     
17   C        -9.9582  -20.7064   -2.3365  C     
18   O        -5.0059  -22.7026   -0.6528  O     
19   N        -5.5072  -24.6997    0.2502  N     
20   C        -4.2843  -24.7691    1.0409  C     
21   C        -4.6031  -25.0824    2.5254  C     
22   N        -5.4423  -26.2958    2.6422  N     
23   C        -6.6618  -26.2605    1.8131  C     
24   C        -6.3509  -25.8869    0.3398  C     
25   C        -7.8680  -21.9375    1.0688  C     
26   C        -7.1126  -21.0206    1.8447  C     
27   C        -6.9684  -21.2332    3.2341  C     
28   C        -7.6127  -22.3203    3.8589  C     
29   C        -8.3990  -23.2026    3.0969  C     
30   C        -8.5279  -23.0100    1.7097  C     
31   C        -6.5192  -19.8256    1.1961  C     
32   Cl      -10.1008  -23.7473   -5.0967  Cl    
33   F        -9.0155  -24.1960    3.6791  F     
34   H        -6.2237  -26.3532   -4.9000  H     
35   H        -5.3899  -25.4629   -2.7795  H     
36   H       -11.2014  -23.8290   -2.1857  H     
37   H       -13.2883  -22.6050   -2.2273  H     
38   H       -13.2800  -20.1789   -2.3234  H     
39   H       -11.1745  -18.9774   -2.4106  H     
40   H        -9.0777  -20.1855   -2.3509  H     
41   H        -3.6541  -25.5658    0.6345  H     
42   H        -3.6907  -23.8527    1.0126  H     
43   H        -3.6738  -25.2461    3.0731  H     
44   H        -5.1229  -24.2331    2.9815  H     
45   H        -4.8844  -27.1136    2.3749  H     
46   H        -5.7293  -26.4006    3.6181  H     
47   H        -7.1259  -27.2486    1.8466  H     
48   H        -7.3637  -25.5427    2.2444  H     
49   H        -7.3085  -25.7875   -0.1743  H     
50   H        -5.8173  -26.7203   -0.1279  H     
51   H        -6.4128  -20.5930    3.8074  H     
52   H        -7.5212  -22.4523    4.8692  H     
53   H        -9.1053  -23.6484    1.1632  H     
54   H        -5.8205  -20.1419    0.4203  H     
55   H        -5.9844  -19.1872    1.9006  H     
56   H        -7.3115  -19.2287    0.7352  H     
@<TRIPOS>BOND
     1    1    2 2
     2    1    4 1
     3    2    3 1
     4    3    9 2
     5    3   32 1
     6    4    8 2
     7    5    6 1
     8    5    9 1
     9    5   12 1
    10    6    7 2
    11    6   11 1
    12    7    8 1
    13    7   10 1
    14    8    9 1
    15   10   18 2
    16   10   19 am
    17   11   25 1
    18   12   13 2
    19   12   17 1
    20   13   14 1
    21   14   15 2
    22   15   16 1
    23   16   17 2
    24   19   20 1
    25   19   24 1
    26   20   21 1
    27   21   22 1
    28   22   23 1
    29   23   24 1
    30   25   26 2
    31   25   30 1
    32   26   27 1
    33   26   31 1
    34   27   28 2
    35   28   29 1
    36   29   30 2
    37   29   33 1
    38    1   34 1
    39    4   35 1
    40   13   36 1
    41   14   37 1
    42   15   38 1
    43   16   39 1
    44   17   40 1
    45   20   41 1
    46   20   42 1
    47   21   43 1
    48   21   44 1
    49   22   45 1
    50   22   46 1
    51   23   47 1
    52   23   48 1
    53   24   49 1
    54   24   50 1
    55   27   51 1
    56   28   52 1
    57   30   53 1
    58   31   54 1
    59   31   55 1
    60   31   56 1
@<TRIPOS>PROPERTY_DATA
  Total_Score	| 14.7990
  Crash		| -0.7965
  Polar		| 6.1720
  FragIndex	| 1
  FragRMSD	| 0.157

