@<TRIPOS>MOLECULE
BindingDB_50352993
 56 60 0 0 0
SMALL
NO_CHARGES


@<TRIPOS>ATOM
1    C        -6.8095  -25.6582   -4.3779  C     
2    N        -8.0092  -25.2253   -4.8536  N     
3    C        -8.7677  -24.2957   -4.2116  C     
4    C        -6.3011  -25.1427   -3.1699  C     
5    N        -8.7828  -22.8106   -2.1638  N     
6    C        -7.8997  -22.6469   -1.1710  C     
7    C        -6.8652  -23.4909   -1.3272  C     
8    C        -7.0751  -24.1831   -2.4871  C     
9    C        -8.2988  -23.7542   -2.9982  C     
10   C        -5.7770  -23.6179   -0.5258  C     
11   O        -8.0372  -21.6639   -0.2603  O     
12   C        -9.9763  -22.1427   -2.2885  C     
13   C       -11.1965  -22.8576   -2.3156  C     
14   C       -12.4271  -22.1748   -2.3782  C     
15   C       -12.4517  -20.7687   -2.4164  C     
16   C       -11.2469  -20.0449   -2.3968  C     
17   C       -10.0164  -20.7281   -2.3356  C     
18   O        -4.9883  -22.6842   -0.6221  O     
19   N        -5.5042  -24.6933    0.2489  N     
20   C        -6.3675  -25.8659    0.3479  C     
21   C        -6.6645  -26.2425    1.8221  C     
22   N        -5.4342  -26.2936    2.6370  N     
23   C        -4.5941  -25.0814    2.5143  C     
24   C        -4.2772  -24.7870    1.0265  C     
25   C        -7.8778  -21.9164    1.0794  C     
26   C        -7.1183  -20.9970    1.8498  C     
27   C        -6.9800  -21.2143    3.2416  C     
28   C        -7.6188  -22.3019    3.8654  C     
29   C        -8.4159  -23.1786    3.1086  C     
30   C        -8.5454  -22.9850    1.7204  C     
31   C        -6.5178  -19.7979    1.2094  C     
32   F        -9.0288  -24.1730    3.6924  F     
33   H        -6.2806  -26.3554   -4.9036  H     
34   H        -9.6526  -23.9935   -4.6184  H     
35   H        -5.3971  -25.4529   -2.8076  H     
36   H       -11.1973  -23.8798   -2.2676  H     
37   H       -13.3039  -22.6991   -2.3852  H     
38   H       -13.3468  -20.2732   -2.4590  H     
39   H       -11.2645  -19.0227   -2.4242  H     
40   H        -9.1488  -20.1864   -2.3259  H     
41   H        -7.3307  -25.7470   -0.1495  H     
42   H        -5.8644  -26.7081   -0.1326  H     
43   H        -7.3495  -25.5160    2.2584  H     
44   H        -7.1455  -27.2230    1.8601  H     
45   H        -5.7107  -26.4060    3.6149  H     
46   H        -4.8886  -27.1105    2.3472  H     
47   H        -5.1128  -24.2260    2.9602  H     
48   H        -3.6646  -25.2419    3.0668  H     
49   H        -3.6664  -25.6004    0.6256  H     
50   H        -3.6647  -23.8842    0.9930  H     
51   H        -6.4293  -20.5718    3.8177  H     
52   H        -7.5162  -22.4418    4.8736  H     
53   H        -9.1317  -23.6198    1.1739  H     
54   H        -5.8138  -20.1016    0.4369  H     
55   H        -5.9870  -19.1718    1.9229  H     
56   H        -7.3021  -19.1908    0.7523  H     
@<TRIPOS>BOND
     1    1    2 2
     2    1    4 1
     3    2    3 1
     4    3    9 2
     5    4    8 2
     6    5    6 1
     7    5    9 1
     8    5   12 1
     9    6    7 2
    10    6   11 1
    11    7    8 1
    12    7   10 1
    13    8    9 1
    14   10   18 2
    15   10   19 am
    16   11   25 1
    17   12   13 2
    18   12   17 1
    19   13   14 1
    20   14   15 2
    21   15   16 1
    22   16   17 2
    23   19   20 1
    24   19   24 1
    25   20   21 1
    26   21   22 1
    27   22   23 1
    28   23   24 1
    29   25   26 2
    30   25   30 1
    31   26   27 1
    32   26   31 1
    33   27   28 2
    34   28   29 1
    35   29   30 2
    36   29   32 1
    37    1   33 1
    38    3   34 1
    39    4   35 1
    40   13   36 1
    41   14   37 1
    42   15   38 1
    43   16   39 1
    44   17   40 1
    45   20   41 1
    46   20   42 1
    47   21   43 1
    48   21   44 1
    49   22   45 1
    50   22   46 1
    51   23   47 1
    52   23   48 1
    53   24   49 1
    54   24   50 1
    55   27   51 1
    56   28   52 1
    57   30   53 1
    58   31   54 1
    59   31   55 1
    60   31   56 1
@<TRIPOS>PROPERTY_DATA
  Total_Score	| 14.6288
  Crash		| -0.7105
  Polar		| 6.1585
  FragIndex	| 1
  FragRMSD	| 0.162

