@<TRIPOS>MOLECULE
BindingDB_50352992
 56 60 0 0 0
SMALL
NO_CHARGES


@<TRIPOS>ATOM
1    C        -6.9540  -25.6743   -4.3168  C     
2    N        -8.1433  -25.1899   -4.7743  N     
3    C        -8.8417  -24.2148   -4.1334  C     
4    C        -6.3922  -25.1601   -3.1313  C     
5    N        -8.7655  -22.7205   -2.0893  N     
6    C        -7.8736  -22.6190   -1.0960  C     
7    C        -6.8607  -23.4799   -1.2778  C     
8    C        -7.1093  -24.1610   -2.4419  C     
9    C        -8.3270  -23.6827   -2.9317  C     
10   C        -5.7578  -23.6137   -0.4923  C     
11   O        -8.0032  -21.7350   -0.0877  O     
12   C        -9.9077  -21.9661   -2.2201  C     
13   C       -11.1688  -22.5913   -2.3665  C     
14   C       -12.3431  -21.8246   -2.4890  C     
15   C       -12.2748  -20.4201   -2.4548  C     
16   C       -11.0324  -19.7819   -2.2907  C     
17   C        -9.8569  -20.5498   -2.1785  C     
18   O        -4.9922  -22.6610   -0.5735  O     
19   N        -5.4619  -24.6890    0.2696  N     
20   C        -4.2306  -24.7686    1.0452  C     
21   C        -4.5473  -25.0485    2.5367  C     
22   N        -5.3923  -26.2545    2.6782  N     
23   C        -6.6148  -26.2288    1.8523  C     
24   C        -6.3134  -25.8686    0.3722  C     
25   C        -8.1852  -22.1962    1.1993  C     
26   C        -7.5921  -21.4627    2.2657  C     
27   C        -7.7589  -21.9197    3.5965  C     
28   C        -8.5357  -23.0568    3.8737  C     
29   C        -9.1789  -23.7384    2.8250  C     
30   C        -8.9989  -23.3172    1.4983  C     
31   C        -6.8334  -20.2139    1.9998  C     
32   H        -6.4822  -26.4175   -4.8356  H     
33   H        -9.7236  -23.8841   -4.5205  H     
34   H        -5.4971  -25.5089   -2.7872  H     
35   H       -11.2375  -23.6098   -2.3709  H     
36   H       -13.2462  -22.2890   -2.5995  H     
37   H       -13.1274  -19.8634   -2.5493  H     
38   H       -10.9851  -18.7621   -2.2583  H     
39   H        -8.9606  -20.0667   -2.0760  H     
40   H        -3.6128  -25.5827    0.6533  H     
41   H        -3.6201  -23.8655    1.0027  H     
42   H        -3.6208  -25.1999    3.0938  H     
43   H        -5.0672  -24.1888    2.9706  H     
44   H        -4.8444  -27.0756    2.4108  H     
45   H        -5.6723  -26.3468    3.6584  H     
46   H        -7.0988  -27.2047    1.9009  H     
47   H        -7.3072  -25.4929    2.2706  H     
48   H        -7.2760  -25.7582   -0.1317  H     
49   H        -5.8031  -26.7105   -0.0946  H     
50   H        -7.3252  -21.4206    4.3742  H     
51   H        -8.6583  -23.3728    4.8370  H     
52   H        -9.7647  -24.5542    3.0257  H     
53   H        -9.4714  -23.8224    0.7520  H     
54   H        -5.9718  -20.4419    1.3795  H     
55   H        -6.4853  -19.7414    2.9200  H     
56   H        -7.4714  -19.4916    1.4802  H     
@<TRIPOS>BOND
     1    1    2 2
     2    1    4 1
     3    2    3 1
     4    3    9 2
     5    4    8 2
     6    5    6 1
     7    5    9 1
     8    5   12 1
     9    6    7 2
    10    6   11 1
    11    7    8 1
    12    7   10 1
    13    8    9 1
    14   10   18 2
    15   10   19 am
    16   11   25 1
    17   12   13 2
    18   12   17 1
    19   13   14 1
    20   14   15 2
    21   15   16 1
    22   16   17 2
    23   19   20 1
    24   19   24 1
    25   20   21 1
    26   21   22 1
    27   22   23 1
    28   23   24 1
    29   25   26 2
    30   25   30 1
    31   26   27 1
    32   26   31 1
    33   27   28 2
    34   28   29 1
    35   29   30 2
    36    1   32 1
    37    3   33 1
    38    4   34 1
    39   13   35 1
    40   14   36 1
    41   15   37 1
    42   16   38 1
    43   17   39 1
    44   20   40 1
    45   20   41 1
    46   21   42 1
    47   21   43 1
    48   22   44 1
    49   22   45 1
    50   23   46 1
    51   23   47 1
    52   24   48 1
    53   24   49 1
    54   27   50 1
    55   28   51 1
    56   29   52 1
    57   30   53 1
    58   31   54 1
    59   31   55 1
    60   31   56 1
@<TRIPOS>PROPERTY_DATA
  Total_Score	| 14.4766
  Crash		| -0.7176
  Polar		| 6.1036
  FragIndex	| 1
  FragRMSD	| 0.538

