@<TRIPOS>MOLECULE
BindingDB_50329030
 61 65 0 0 0
SMALL
NO_CHARGES


@<TRIPOS>ATOM
1    C        -7.4765  -26.4825   -3.7245  C     
2    C        -8.7152  -26.0045   -4.2118  C     
3    C        -9.2560  -24.7773   -3.7788  C     
4    C        -6.7279  -25.6679   -2.8337  C     
5    N        -8.8457  -22.9167   -2.1185  N     
6    C        -7.8611  -22.6825   -1.2464  C     
7    C        -6.9031  -23.6124   -1.3658  C     
8    C        -7.3016  -24.4719   -2.3516  C     
9    C        -8.5510  -24.0386   -2.8035  C     
10   C       -10.0079  -22.2060   -2.1941  C     
11   C        -9.9806  -20.7936   -2.2661  C     
12   C       -11.1773  -20.0506   -2.2900  C     
13   C       -12.4175  -20.7142   -2.2176  C     
14   C       -12.4555  -22.1187   -2.1386  C     
15   C       -11.2562  -22.8602   -2.1289  C     
16   C        -5.7808  -23.7082   -0.6057  C     
17   N        -5.4677  -24.7535    0.1926  N     
18   O        -5.0318  -22.7424   -0.7124  O     
19   C        -4.2637  -24.7608    1.0123  C     
20   C        -4.6166  -25.0322    2.4965  C     
21   N        -5.4454  -26.2517    2.6349  N     
22   C        -6.6545  -26.2515    1.7862  C     
23   C        -6.2806  -25.9610    0.3076  C     
24   O        -7.8662  -21.6365   -0.4083  O     
25   C        -7.7931  -21.8360    0.9526  C     
26   C        -8.4409  -22.9064    1.6067  C     
27   C        -8.3647  -23.0434    3.0091  C     
28   C        -7.6646  -22.0908    3.7693  C     
29   C        -7.0389  -21.0042    3.1293  C     
30   C        -7.1059  -20.8597    1.7252  C     
31   C        -6.4910  -19.6875    1.0594  C     
32   F        -8.9430  -24.0543    3.6050  F     
33   O        -7.1763  -27.7811   -4.0565  O     
34   C        -5.8780  -28.3103   -3.6885  C     
35   H        -9.2637  -26.5775   -4.8627  H     
36   H       -10.1695  -24.4673   -4.1049  H     
37   H        -5.8177  -25.9959   -2.4901  H     
38   H        -9.0902  -20.2905   -2.3080  H     
39   H       -11.1495  -19.0236   -2.3534  H     
40   H       -13.2924  -20.1759   -2.2220  H     
41   H       -13.3608  -22.6010   -2.0858  H     
42   H       -11.3052  -23.8790   -2.0673  H     
43   H        -3.6939  -23.8374    0.9671  H     
44   H        -3.6023  -25.5531    0.6582  H     
45   H        -3.7046  -25.1797    3.0738  H     
46   H        -5.1493  -24.1782    2.9107  H     
47   H        -5.7455  -26.3441    3.6048  H     
48   H        -4.8896  -27.0715    2.3824  H     
49   H        -7.3589  -25.4960    2.1463  H     
50   H        -7.1377  -27.2271    1.8597  H     
51   H        -5.6998  -26.8061   -0.0625  H     
52   H        -7.2033  -25.9397   -0.2806  H     
53   H        -8.9732  -23.5889    1.0661  H     
54   H        -7.6214  -22.1617    4.7898  H     
55   H        -6.5439  -20.3095    3.6967  H     
56   H        -7.2641  -19.1097    0.5476  H     
57   H        -5.7601  -20.0299    0.3263  H     
58   H        -5.9861  -19.0268    1.7647  H     
59   H        -5.0795  -27.8719   -4.3072  H     
60   H        -5.6602  -28.1411   -2.6247  H     
61   H        -5.8978  -29.3825   -3.8687  H     
@<TRIPOS>BOND
     1    7   16 1
     2    8    4 2
     3   16   17 1
     4    5    6 1
     5   16   18 2
     6   17   19 1
     7    7    8 1
     8    9    5 1
     9    4    1 1
    10    8    9 1
    11   10   11 2
    12   17   23 1
    13   19   20 1
    14   20   21 1
    15   21   22 1
    16   22   23 1
    17    6   24 1
    18   24   25 1
    19   11   12 1
    20    2    3 1
    21   25   26 2
    22   12   13 2
    23   26   27 1
    24    6    7 2
    25   27   28 2
    26   13   14 1
    27   28   29 1
    28    3    9 2
    29   29   30 2
    30   30   25 1
    31   14   15 2
    32   30   31 1
    33   15   10 1
    34   27   32 1
    35    5   10 1
    36    1   33 1
    37    1    2 2
    38   33   34 1
    39    2   35 1
    40    3   36 1
    41    4   37 1
    42   11   38 1
    43   12   39 1
    44   13   40 1
    45   14   41 1
    46   15   42 1
    47   19   43 1
    48   19   44 1
    49   20   45 1
    50   20   46 1
    51   21   47 1
    52   21   48 1
    53   22   49 1
    54   22   50 1
    55   23   51 1
    56   23   52 1
    57   26   53 1
    58   28   54 1
    59   29   55 1
    60   31   56 1
    61   31   57 1
    62   31   58 1
    63   34   59 1
    64   34   60 1
    65   34   61 1
@<TRIPOS>PROPERTY_DATA
  Total_Score	| 14.9890
  Crash		| -0.9829
  Polar		| 6.1651
  FragIndex	| 1
  FragRMSD	| 0.338

