@<TRIPOS>MOLECULE
BindingDB_50352915
 56 60 0 0 0
SMALL
NO_CHARGES


@<TRIPOS>ATOM
1    N        -6.9389  -25.5980   -4.4145  N     
2    C        -8.1415  -25.1801   -4.9042  C     
3    C        -8.9007  -24.2203   -4.2019  C     
4    C        -6.4170  -25.1277   -3.2472  C     
5    C        -7.1484  -24.1735   -2.5129  C     
6    C        -8.3801  -23.7225   -2.9872  C     
7    N        -8.8308  -22.7867   -2.1232  N     
8    C        -7.9275  -22.6617   -1.1433  C     
9    C        -6.9049  -23.5156   -1.3408  C     
10   C        -5.7891  -23.6452   -0.5809  C     
11   N        -5.4903  -24.7056    0.1985  N     
12   O        -5.0208  -22.6926   -0.6768  O     
13   C        -6.2996  -25.9187    0.2847  C     
14   C        -6.6528  -26.2641    1.7560  C     
15   N        -5.4593  -26.2427    2.6292  N     
16   C        -4.6673  -24.9993    2.5106  C     
17   C        -4.2900  -24.7336    1.0282  C     
18   C       -10.0011  -22.0755   -2.2268  C     
19   C       -11.2463  -22.7516   -2.2481  C     
20   C       -12.4544  -22.0271   -2.2921  C     
21   C       -12.4331  -20.6195   -2.3182  C     
22   C       -11.2035  -19.9341   -2.3022  C     
23   C        -9.9940  -20.6570   -2.2597  C     
24   O        -8.0434  -21.6836   -0.2227  O     
25   C        -7.8513  -21.9346    1.1077  C     
26   C        -8.5063  -23.0091    1.7572  C     
27   C        -8.3611  -23.1998    3.1434  C     
28   C        -7.5713  -22.3120    3.8914  C     
29   C        -6.9508  -21.2198    3.2575  C     
30   C        -7.0906  -21.0095    1.8647  C     
31   C        -6.4869  -19.8184    1.2104  C     
32   F        -8.9605  -24.1982    3.7383  F     
33   H        -8.4851  -25.5692   -5.7839  H     
34   H        -9.7935  -23.8834   -4.5738  H     
35   H        -5.5086  -25.4619   -2.9243  H     
36   H        -7.2400  -25.8678   -0.2701  H     
37   H        -5.7233  -26.7507   -0.1355  H     
38   H        -7.3915  -25.5547    2.1327  H     
39   H        -7.0992  -27.2606    1.7995  H     
40   H        -5.7719  -26.3328    3.5996  H     
41   H        -4.8732  -27.0423    2.3743  H     
42   H        -5.2485  -24.1570    2.8998  H     
43   H        -3.7596  -25.0980    3.1100  H     
44   H        -3.6221  -25.5201    0.6720  H     
45   H        -3.7111  -23.8059    1.0074  H     
46   H       -11.2807  -23.7753   -2.2035  H     
47   H       -13.3511  -22.5241   -2.3007  H     
48   H       -13.3120  -20.0910   -2.3406  H     
49   H       -11.1879  -18.9103   -2.3257  H     
50   H        -9.1037  -20.1444   -2.2544  H     
51   H        -9.0887  -23.6536    1.2166  H     
52   H        -7.4705  -22.4399    4.9005  H     
53   H        -6.4144  -20.5654    3.8313  H     
54   H        -5.7921  -20.1292    0.4279  H     
55   H        -5.9476  -19.1890    1.9175  H     
56   H        -7.2737  -19.2071    0.7537  H     
@<TRIPOS>BOND
     1    1    2 2
     2    1    4 1
     3    2    3 1
     4    3    6 2
     5    4    5 2
     6    5    6 1
     7    5    9 1
     8    6    7 1
     9    7    8 1
    10    7   18 1
    11    8    9 2
    12    8   24 1
    13    9   10 1
    14   10   11 am
    15   10   12 2
    16   11   13 1
    17   11   17 1
    18   13   14 1
    19   14   15 1
    20   15   16 1
    21   16   17 1
    22   18   19 2
    23   18   23 1
    24   19   20 1
    25   20   21 2
    26   21   22 1
    27   22   23 2
    28   24   25 1
    29   25   26 2
    30   25   30 1
    31   26   27 1
    32   27   28 2
    33   27   32 1
    34   28   29 1
    35   29   30 2
    36   30   31 1
    37    2   33 1
    38    3   34 1
    39    4   35 1
    40   13   36 1
    41   13   37 1
    42   14   38 1
    43   14   39 1
    44   15   40 1
    45   15   41 1
    46   16   42 1
    47   16   43 1
    48   17   44 1
    49   17   45 1
    50   19   46 1
    51   20   47 1
    52   21   48 1
    53   22   49 1
    54   23   50 1
    55   26   51 1
    56   28   52 1
    57   29   53 1
    58   31   54 1
    59   31   55 1
    60   31   56 1
@<TRIPOS>PROPERTY_DATA
  Total_Score	| 14.4980
  Crash		| -0.7374
  Polar		| 6.1338
  FragIndex	| 1
  FragRMSD	| 0.453

