@<TRIPOS>MOLECULE
BindingDB_50353000
 69 74 0 0 0
SMALL
NO_CHARGES


@<TRIPOS>ATOM
1    C        -6.8061  -25.7581   -4.3239  C     
2    N        -7.9652  -25.2849   -4.8510  N     
3    C        -8.7374  -24.3158   -4.2728  C     
4    C        -6.3291  -25.2327   -3.1135  C     
5    N        -8.7560  -22.8120   -2.1888  N     
6    C        -7.9111  -22.7034   -1.1589  C     
7    C        -6.8878  -23.5550   -1.3188  C     
8    C        -7.1058  -24.2420   -2.4790  C     
9    C        -8.3026  -23.7745   -3.0319  C     
10   C        -5.7987  -23.6612   -0.5197  C     
11   O        -8.0371  -21.7410   -0.2193  O     
12   C        -9.8868  -22.0542   -2.2887  C     
13   C       -11.1627  -22.6554   -2.1866  C     
14   C       -12.3237  -21.8592   -2.1665  C     
15   C       -12.2201  -20.4583   -2.2157  C     
16   C       -10.9542  -19.8506   -2.3132  C     
17   C        -9.7933  -20.6432   -2.3512  C     
18   O        -5.0435  -22.6972   -0.5997  O     
19   N        -5.5013  -24.7273    0.2530  N     
20   C        -4.3046  -24.7529    1.0821  C     
21   C        -4.6740  -25.0585    2.5552  C     
22   N        -5.4651  -26.3047    2.6513  N     
23   C        -6.6626  -26.3169    1.7854  C     
24   C        -6.3078  -25.9420    0.3241  C     
25   C        -8.0357  -22.0859    1.1150  C     
26   C        -7.3279  -21.2537    2.0226  C     
27   C        -7.3319  -21.5649    3.4028  C     
28   C        -8.0697  -22.6587    3.8898  C     
29   C        -8.8156  -23.4519    2.9993  C     
30   C        -8.8012  -23.1647    1.6218  C     
31   C        -6.6207  -20.0466    1.5342  C     
32   F        -9.5105  -24.4609    3.4519  F     
33   C        -9.9289  -23.8620   -5.0380  C     
34   C        -9.8643  -22.4524   -5.5215  C     
35   C        -8.6654  -21.9082   -6.0427  C     
36   C        -8.6030  -20.5645   -6.4607  C     
37   C        -9.7487  -19.7550   -6.3949  C     
38   C       -10.9630  -20.2959   -5.9376  C     
39   C       -11.0204  -21.6367   -5.5108  C     
40   H        -6.2793  -26.4817   -4.8186  H     
41   H        -5.4499  -25.5594   -2.7109  H     
42   H       -11.2508  -23.6726   -2.1259  H     
43   H       -13.2448  -22.3022   -2.1149  H     
44   H       -13.0607  -19.8798   -2.1837  H     
45   H       -10.8785  -18.8313   -2.3504  H     
46   H        -8.8773  -20.1892   -2.4141  H     
47   H        -3.6309  -25.5325    0.7146  H     
48   H        -3.7406  -23.8181    1.0769  H     
49   H        -3.7668  -25.1752    3.1523  H     
50   H        -5.2513  -24.2291    2.9724  H     
51   H        -4.8735  -27.0972    2.3874  H     
52   H        -5.7658  -26.4253    3.6204  H     
53   H        -7.1005  -27.3160    1.8063  H     
54   H        -7.4023  -25.6199    2.1786  H     
55   H        -7.2438  -25.8795   -0.2318  H     
56   H        -5.7327  -26.7621   -0.1163  H     
57   H        -6.8082  -20.9868    4.0693  H     
58   H        -8.0785  -22.8614    4.8943  H     
59   H        -9.3517  -23.7458    0.9860  H     
60   H        -5.8426  -20.3341    0.8272  H     
61   H        -6.1550  -19.4799    2.3417  H     
62   H        -7.3296  -19.3867    1.0301  H     
63   H       -10.0606  -24.4903   -5.9241  H     
64   H       -10.8069  -24.0253   -4.4088  H     
65   H        -7.8194  -22.4764   -6.1056  H     
66   H        -7.7218  -20.1763   -6.8009  H     
67   H        -9.6949  -18.7751   -6.6847  H     
68   H       -11.8012  -19.7119   -5.8971  H     
69   H       -11.9158  -22.0075   -5.1835  H     
@<TRIPOS>BOND
     1    1    2 2
     2    1    4 1
     3    2    3 1
     4    3    9 2
     5    3   33 1
     6    4    8 2
     7    5    6 1
     8    5    9 1
     9    5   12 1
    10    6    7 2
    11    6   11 1
    12    7    8 1
    13    7   10 1
    14    8    9 1
    15   10   18 2
    16   10   19 am
    17   11   25 1
    18   12   13 2
    19   12   17 1
    20   13   14 1
    21   14   15 2
    22   15   16 1
    23   16   17 2
    24   19   20 1
    25   19   24 1
    26   20   21 1
    27   21   22 1
    28   22   23 1
    29   23   24 1
    30   25   26 2
    31   25   30 1
    32   26   27 1
    33   26   31 1
    34   27   28 2
    35   28   29 1
    36   29   30 2
    37   29   32 1
    38   33   34 1
    39   34   35 2
    40   34   39 1
    41   35   36 1
    42   36   37 2
    43   37   38 1
    44   38   39 2
    45    1   40 1
    46    4   41 1
    47   13   42 1
    48   14   43 1
    49   15   44 1
    50   16   45 1
    51   17   46 1
    52   20   47 1
    53   20   48 1
    54   21   49 1
    55   21   50 1
    56   22   51 1
    57   22   52 1
    58   23   53 1
    59   23   54 1
    60   24   55 1
    61   24   56 1
    62   27   57 1
    63   28   58 1
    64   30   59 1
    65   31   60 1
    66   31   61 1
    67   31   62 1
    68   33   63 1
    69   33   64 1
    70   35   65 1
    71   36   66 1
    72   37   67 1
    73   38   68 1
    74   39   69 1
@<TRIPOS>PROPERTY_DATA
  Total_Score	| 15.3106
  Crash		| -1.2582
  Polar		| 6.0509
  FragIndex	| 1
  FragRMSD	| 0.324

