@<TRIPOS>MOLECULE
BindingDB_50352907
 57 61 0 0 0
SMALL
NO_CHARGES


@<TRIPOS>ATOM
1    N        -7.2369  -25.7511   -4.1702  N     
2    C        -8.4364  -25.3019   -4.6373  C     
3    C        -9.1024  -24.2534   -3.9710  C     
4    C        -6.6242  -25.2301   -3.0758  C     
5    C        -7.2616  -24.1825   -2.3807  C     
6    C        -8.4949  -23.7026   -2.8222  C     
7    N        -8.8656  -22.7025   -1.9907  N     
8    C        -7.9253  -22.5927   -1.0431  C     
9    C        -6.9277  -23.4690   -1.2629  C     
10   C        -5.8073  -23.6216   -0.5069  C     
11   N        -5.5010  -24.6977    0.2530  N     
12   O        -5.0412  -22.6679   -0.5885  O     
13   C        -4.2555  -24.7740    1.0078  C     
14   C        -4.5379  -25.0690    2.5040  C     
15   N        -5.3652  -26.2863    2.6591  N     
16   C        -6.6062  -26.2497    1.8621  C     
17   C        -6.3459  -25.8810    0.3764  C     
18   C       -10.0083  -21.9371   -2.0839  C     
19   C       -11.2921  -22.5314   -2.1375  C     
20   C       -12.4542  -21.7432   -2.2690  C     
21   C       -12.3486  -20.3415   -2.3306  C     
22   C       -11.0850  -19.7310   -2.2477  C     
23   C        -9.9243  -20.5240   -2.1392  C     
24   O        -7.9927  -21.6890   -0.0451  O     
25   C        -8.1823  -22.1217    1.2543  C     
26   C        -9.0225  -23.2122    1.5994  C     
27   C        -9.1879  -23.5990    2.9436  C     
28   C        -8.5153  -22.9040    3.9626  C     
29   C        -7.7117  -21.7978    3.6419  C     
30   C        -7.5707  -21.3723    2.2968  C     
31   O        -8.9664  -25.8458   -5.7581  O     
32   C        -6.7761  -20.1609    1.9934  C     
33   F        -9.9451  -24.6162    3.2526  F     
34   H       -10.0003  -23.9073   -4.3143  H     
35   H        -5.7291  -25.6054   -2.7705  H     
36   H        -3.6398  -25.5795    0.5938  H     
37   H        -3.6552  -23.8631    0.9647  H     
38   H        -3.5943  -25.2093    3.0366  H     
39   H        -5.0616  -24.2179    2.9532  H     
40   H        -4.8192  -27.1107    2.3831  H     
41   H        -5.6354  -26.3773    3.6423  H     
42   H        -7.0873  -27.2280    1.9269  H     
43   H        -7.2771  -25.5172    2.3115  H     
44   H        -7.3197  -25.7796   -0.1047  H     
45   H        -5.8403  -26.7247   -0.1041  H     
46   H       -11.3925  -23.5468   -2.0772  H     
47   H       -13.3756  -22.1855   -2.3267  H     
48   H       -13.1879  -19.7672   -2.4448  H     
49   H       -11.0108  -18.7104   -2.2837  H     
50   H        -9.0147  -20.0599   -2.1201  H     
51   H        -9.4971  -23.7442    0.8694  H     
52   H        -8.6024  -23.1992    4.9389  H     
53   H        -7.2312  -21.3028    4.3967  H     
54   H        -8.2236  -26.3292   -6.1785  H     
55   H        -5.9199  -20.4294    1.3726  H     
56   H        -6.4068  -19.6757    2.8986  H     
57   H        -7.3953  -19.4376    1.4604  H     
@<TRIPOS>BOND
     1    1    2 2
     2    1    4 1
     3    2    3 1
     4    2   31 1
     5    3    6 2
     6    4    5 2
     7    5    6 1
     8    5    9 1
     9    6    7 1
    10    7    8 1
    11    7   18 1
    12    8    9 2
    13    8   24 1
    14    9   10 1
    15   10   11 am
    16   10   12 2
    17   11   13 1
    18   11   17 1
    19   13   14 1
    20   14   15 1
    21   15   16 1
    22   16   17 1
    23   18   19 2
    24   18   23 1
    25   19   20 1
    26   20   21 2
    27   21   22 1
    28   22   23 2
    29   24   25 1
    30   25   26 2
    31   25   30 1
    32   26   27 1
    33   27   28 2
    34   27   33 1
    35   28   29 1
    36   29   30 2
    37   30   32 1
    38    3   34 1
    39    4   35 1
    40   13   36 1
    41   13   37 1
    42   14   38 1
    43   14   39 1
    44   15   40 1
    45   15   41 1
    46   16   42 1
    47   16   43 1
    48   17   44 1
    49   17   45 1
    50   19   46 1
    51   20   47 1
    52   21   48 1
    53   22   49 1
    54   23   50 1
    55   26   51 1
    56   28   52 1
    57   29   53 1
    58   31   54 1
    59   32   55 1
    60   32   56 1
    61   32   57 1
@<TRIPOS>PROPERTY_DATA
  Total_Score	| 14.5264
  Crash		| -0.8167
  Polar		| 6.0636
  FragIndex	| 1
  FragRMSD	| 0.683

