@<TRIPOS>MOLECULE
BindingDB_50352994
 59 63 0 0 0
SMALL
NO_CHARGES


@<TRIPOS>ATOM
1    C        -6.8977  -25.6218   -4.2708  C     
2    N        -8.0530  -25.1318   -4.8013  N     
3    C        -8.7888  -24.1555   -4.2007  C     
4    C        -6.4141  -25.1156   -3.0486  C     
5    N        -8.8134  -22.6432   -2.1737  N     
6    C        -7.9671  -22.5220   -1.1380  C     
7    C        -6.9619  -23.4123   -1.2496  C     
8    C        -7.1709  -24.1125   -2.4054  C     
9    C        -8.3467  -23.6271   -2.9730  C     
10   C        -5.8678  -23.5508   -0.4510  C     
11   O        -8.1608  -21.5564   -0.2137  O     
12   C        -9.9494  -21.8912   -2.3777  C     
13   C       -11.1767  -22.5111   -2.7210  C     
14   C       -12.3540  -21.7513   -2.8646  C     
15   C       -12.3242  -20.3563   -2.6804  C     
16   C       -11.1094  -19.7229   -2.3548  C     
17   C        -9.9344  -20.4837   -2.2060  C     
18   O        -5.0630  -22.6332   -0.5813  O     
19   N        -5.5729  -24.6317    0.3027  N     
20   C        -4.3177  -24.7337    1.0413  C     
21   C        -4.5769  -25.0710    2.5305  C     
22   N        -5.4286  -26.2727    2.6646  N     
23   C        -6.6825  -26.2098    1.8836  C     
24   C        -6.4262  -25.8109    0.4071  C     
25   C        -7.9959  -21.8119    1.1224  C     
26   C        -8.7837  -22.7657    1.8241  C     
27   C        -8.5541  -22.9651    3.2053  C     
28   C        -7.6245  -22.1764    3.8985  C     
29   C        -6.9310  -21.1613    3.2241  C     
30   C        -7.1187  -20.9552    1.8374  C     
31   C        -9.8853  -23.4923    1.1484  C     
32   C        -6.4578  -19.8100    1.1576  C     
33   H        -6.3787  -26.3493   -4.7683  H     
34   H        -9.6354  -23.8032   -4.6470  H     
35   H        -5.5372  -25.4639   -2.6525  H     
36   H       -11.2204  -23.5237   -2.8462  H     
37   H       -13.2385  -22.2082   -3.1090  H     
38   H       -13.1784  -19.8008   -2.7902  H     
39   H       -11.0853  -18.7072   -2.2403  H     
40   H        -9.0616  -20.0066   -1.9802  H     
41   H        -3.7163  -25.5299    0.5952  H     
42   H        -3.7127  -23.8235    1.0139  H     
43   H        -3.6248  -25.2583    3.0329  H     
44   H        -5.0618  -24.2217    3.0237  H     
45   H        -4.8960  -27.0939    2.3613  H     
46   H        -5.6715  -26.3881    3.6502  H     
47   H        -7.1501  -27.1949    1.9248  H     
48   H        -7.3623  -25.4965    2.3553  H     
49   H        -7.3959  -25.6906   -0.0750  H     
50   H        -5.9240  -26.6428   -0.0900  H     
51   H        -9.0804  -23.6738    3.7256  H     
52   H        -7.4796  -22.3178    4.9010  H     
53   H        -6.3053  -20.5556    3.7629  H     
54   H       -10.5676  -22.7725    0.6963  H     
55   H       -10.4662  -24.1098    1.8367  H     
56   H        -9.4891  -24.1436    0.3728  H     
57   H        -5.7749  -20.1708    0.3870  H     
58   H        -5.8892  -19.1829    1.8477  H     
59   H        -7.2151  -19.1781    0.6847  H     
@<TRIPOS>BOND
     1    1    2 2
     2    1    4 1
     3    2    3 1
     4    3    9 2
     5    4    8 2
     6    5    6 1
     7    5    9 1
     8    5   12 1
     9    6    7 2
    10    6   11 1
    11    7    8 1
    12    7   10 1
    13    8    9 1
    14   10   18 2
    15   10   19 am
    16   11   25 1
    17   12   13 2
    18   12   17 1
    19   13   14 1
    20   14   15 2
    21   15   16 1
    22   16   17 2
    23   19   20 1
    24   19   24 1
    25   20   21 1
    26   21   22 1
    27   22   23 1
    28   23   24 1
    29   25   26 2
    30   25   30 1
    31   26   27 1
    32   26   31 1
    33   27   28 2
    34   28   29 1
    35   29   30 2
    36   30   32 1
    37    1   33 1
    38    3   34 1
    39    4   35 1
    40   13   36 1
    41   14   37 1
    42   15   38 1
    43   16   39 1
    44   17   40 1
    45   20   41 1
    46   20   42 1
    47   21   43 1
    48   21   44 1
    49   22   45 1
    50   22   46 1
    51   23   47 1
    52   23   48 1
    53   24   49 1
    54   24   50 1
    55   27   51 1
    56   28   52 1
    57   29   53 1
    58   31   54 1
    59   31   55 1
    60   31   56 1
    61   32   57 1
    62   32   58 1
    63   32   59 1
@<TRIPOS>PROPERTY_DATA
  Total_Score	| 14.9514
  Crash		| -0.9196
  Polar		| 6.0515
  FragIndex	| 1
  FragRMSD	| 0.297

