@<TRIPOS>MOLECULE
BindingDB_50329031
 58 62 0 0 0
SMALL
NO_CHARGES


@<TRIPOS>ATOM
1    C        -7.4752  -26.5144   -3.6292  C     
2    C        -8.6818  -26.0401   -4.2020  C     
3    C        -9.2336  -24.7996   -3.7963  C     
4    C        -6.7955  -25.7292   -2.6728  C     
5    N        -8.8651  -22.8714   -2.2339  N     
6    C        -7.8906  -22.6041   -1.3473  C     
7    C        -6.9664  -23.5755   -1.3333  C     
8    C        -7.3558  -24.5014   -2.2695  C     
9    C        -8.5583  -24.0455   -2.8195  C     
10   C       -10.0261  -22.1454   -2.3642  C     
11   C       -11.2865  -22.8086   -2.3539  C     
12   C       -12.4798  -22.0550   -2.3380  C     
13   C       -12.4385  -20.6486   -2.3337  C     
14   C       -11.1945  -19.9838   -2.3501  C     
15   C        -9.9970  -20.7266   -2.3790  C     
16   C        -5.8938  -23.6275   -0.4895  C     
17   N        -5.6688  -24.5853    0.4380  N     
18   O        -5.1367  -22.6687   -0.5947  O     
19   C        -4.4649  -24.5174    1.2506  C     
20   C        -4.1690  -25.7920    2.0825  C     
21   N        -5.3606  -26.2835    2.8124  N     
22   C        -6.6756  -26.0954    2.1540  C     
23   C        -6.5737  -25.7044    0.6517  C     
24   O        -7.8934  -21.5274   -0.5419  O     
25   C        -7.8388  -21.7028    0.8241  C     
26   C        -8.5254  -22.7432    1.5005  C     
27   C        -8.4219  -22.8766    2.8963  C     
28   C        -7.7088  -21.9275    3.6376  C     
29   C        -7.0678  -20.8500    2.9845  C     
30   C        -7.1042  -20.7404    1.5755  C     
31   C        -6.3527  -19.6591    0.8869  C     
32   F        -8.9794  -23.9014    3.4891  F     
33   O        -6.9876  -27.7420   -3.9345  O     
34   H        -9.1661  -26.6098   -4.9051  H     
35   H       -10.1329  -24.4753   -4.1683  H     
36   H        -5.9360  -26.0776   -2.2406  H     
37   H       -11.3240  -23.8354   -2.3253  H     
38   H       -13.3784  -22.5296   -2.2715  H     
39   H       -13.3122  -20.0924   -2.2909  H     
40   H       -11.1614  -18.9665   -2.3219  H     
41   H        -9.0943  -20.2248   -2.3678  H     
42   H        -3.5876  -24.3539    0.6115  H     
43   H        -4.5391  -23.6718    1.9379  H     
44   H        -3.3624  -25.6082    2.7941  H     
45   H        -3.8349  -26.5865    1.3996  H     
46   H        -5.3938  -25.8189    3.7274  H     
47   H        -5.2290  -27.2869    2.9746  H     
48   H        -7.2150  -25.3110    2.6933  H     
49   H        -7.2425  -27.0212    2.2569  H     
50   H        -7.5923  -25.5134    0.3014  H     
51   H        -6.1890  -26.5640    0.1068  H     
52   H        -9.0863  -23.4204    0.9895  H     
53   H        -7.6333  -22.0243    4.6514  H     
54   H        -6.5659  -20.1591    3.5474  H     
55   H        -5.8210  -19.0151    1.5875  H     
56   H        -7.0331  -19.0349    0.3042  H     
57   H        -5.6202  -20.1043    0.2171  H     
58   H        -6.7822  -27.6959   -4.8903  H     
@<TRIPOS>BOND
     1    1    2 2
     2    7   16 1
     3    8    4 2
     4   16   17 1
     5    5    6 1
     6   16   18 2
     7   17   19 1
     8    7    8 1
     9    9    5 1
    10    4    1 1
    11    8    9 1
    12   10   11 2
    13   17   23 1
    14   19   20 1
    15   20   21 1
    16   21   22 1
    17   22   23 1
    18    6   24 1
    19   24   25 1
    20   11   12 1
    21    2    3 1
    22   25   26 2
    23   12   13 2
    24   26   27 1
    25    6    7 2
    26   27   28 2
    27   13   14 1
    28   28   29 1
    29    3    9 2
    30   29   30 2
    31   30   25 1
    32   14   15 2
    33   30   31 1
    34   15   10 1
    35   27   32 1
    36    5   10 1
    37    1   33 1
    38    2   34 1
    39    3   35 1
    40    4   36 1
    41   11   37 1
    42   12   38 1
    43   13   39 1
    44   14   40 1
    45   15   41 1
    46   19   42 1
    47   19   43 1
    48   20   44 1
    49   20   45 1
    50   21   46 1
    51   21   47 1
    52   22   48 1
    53   22   49 1
    54   23   50 1
    55   23   51 1
    56   26   52 1
    57   28   53 1
    58   29   54 1
    59   31   55 1
    60   31   56 1
    61   31   57 1
    62   33   58 1
@<TRIPOS>PROPERTY_DATA
  Total_Score	| 14.0447
  Crash		| -0.6915
  Polar		| 6.7190
  FragIndex	| 1
  FragRMSD	| 0.435

