@<TRIPOS>MOLECULE
BindingDB_50352999
 62 66 0 0 0
SMALL
NO_CHARGES


@<TRIPOS>ATOM
1    C        -6.7397  -25.6156   -4.3821  C     
2    N        -7.8618  -25.0952   -4.9423  N     
3    C        -8.6319  -24.1260   -4.3675  C     
4    C        -6.2963  -25.1339   -3.1402  C     
5    N        -8.7313  -22.7255   -2.2198  N     
6    C        -7.8934  -22.6192   -1.1854  C     
7    C        -6.8782  -23.4856   -1.3239  C     
8    C        -7.0724  -24.1451   -2.5055  C     
9    C        -8.2421  -23.6439   -3.0876  C     
10   C        -5.7942  -23.6113   -0.5150  C     
11   O        -8.0262  -21.6374   -0.2723  O     
12   C        -9.9262  -22.0644   -2.2738  C     
13   C       -11.1380  -22.7843   -2.1800  C     
14   C       -12.3709  -22.1066   -2.1777  C     
15   C       -12.4032  -20.7027   -2.2502  C     
16   C       -11.2018  -19.9755   -2.3284  C     
17   C        -9.9679  -20.6529   -2.3397  C     
18   O        -5.0143  -22.6689   -0.6005  O     
19   N        -5.5148  -24.6868    0.2523  N     
20   C        -4.2952  -24.7675    1.0432  C     
21   C        -4.6290  -25.0581    2.5278  C     
22   N        -5.4607  -26.2744    2.6454  N     
23   C        -6.6819  -26.2347    1.8151  C     
24   C        -6.3650  -25.8690    0.3419  C     
25   C        -7.8803  -21.9012    1.0665  C     
26   C        -7.1180  -20.9931    1.8455  C     
27   C        -6.9787  -21.2246    3.2342  C     
28   C        -7.6210  -22.3157    3.8474  C     
29   C        -8.4188  -23.1838    3.0819  C     
30   C        -8.5493  -22.9755    1.6966  C     
31   C        -6.5080  -19.7961    1.2140  C     
32   F        -9.0335  -24.1826    3.6559  F     
33   C        -9.7486  -23.6001   -5.1899  C     
34   C       -10.9915  -24.5128   -5.1529  C     
35   H        -6.2128  -26.3366   -4.8759  H     
36   H        -5.4367  -25.4924   -2.7190  H     
37   H       -11.1261  -23.8038   -2.1000  H     
38   H       -13.2440  -22.6335   -2.1120  H     
39   H       -13.2990  -20.2104   -2.2426  H     
40   H       -11.2267  -18.9544   -2.3716  H     
41   H        -9.0990  -20.1146   -2.3889  H     
42   H        -3.6728  -25.5782    0.6526  H     
43   H        -3.6868  -23.8612    1.0134  H     
44   H        -3.7062  -25.2102    3.0911  H     
45   H        -5.1588  -24.2066    2.9636  H     
46   H        -4.9069  -27.0877    2.3661  H     
47   H        -5.7458  -26.3829    3.6213  H     
48   H        -7.1608  -27.2155    1.8573  H     
49   H        -7.3740  -25.5050    2.2357  H     
50   H        -7.3204  -25.7654   -0.1769  H     
51   H        -5.8413  -26.7108   -0.1207  H     
52   H        -6.4228  -20.5908    3.8145  H     
53   H        -7.5191  -22.4668    4.8542  H     
54   H        -9.1356  -23.6057    1.1445  H     
55   H        -5.8042  -20.1024    0.4388  H     
56   H        -5.9765  -19.1749    1.9330  H     
57   H        -7.2885  -19.1831    0.7587  H     
58   H       -10.0390  -22.5984   -4.8806  H     
59   H        -9.4092  -23.5128   -6.2256  H     
60   H       -10.7438  -25.5166   -5.5017  H     
61   H       -11.7711  -24.1033   -5.7979  H     
62   H       -11.3821  -24.5801   -4.1381  H     
@<TRIPOS>BOND
     1    1    2 2
     2    1    4 1
     3    2    3 1
     4    3    9 2
     5    3   33 1
     6    4    8 2
     7    5    6 1
     8    5    9 1
     9    5   12 1
    10    6    7 2
    11    6   11 1
    12    7    8 1
    13    7   10 1
    14    8    9 1
    15   10   18 2
    16   10   19 am
    17   11   25 1
    18   12   13 2
    19   12   17 1
    20   13   14 1
    21   14   15 2
    22   15   16 1
    23   16   17 2
    24   19   20 1
    25   19   24 1
    26   20   21 1
    27   21   22 1
    28   22   23 1
    29   23   24 1
    30   25   26 2
    31   25   30 1
    32   26   27 1
    33   26   31 1
    34   27   28 2
    35   28   29 1
    36   29   30 2
    37   29   32 1
    38   33   34 1
    39    1   35 1
    40    4   36 1
    41   13   37 1
    42   14   38 1
    43   15   39 1
    44   16   40 1
    45   17   41 1
    46   20   42 1
    47   20   43 1
    48   21   44 1
    49   21   45 1
    50   22   46 1
    51   22   47 1
    52   23   48 1
    53   23   49 1
    54   24   50 1
    55   24   51 1
    56   27   52 1
    57   28   53 1
    58   30   54 1
    59   31   55 1
    60   31   56 1
    61   31   57 1
    62   33   58 1
    63   33   59 1
    64   34   60 1
    65   34   61 1
    66   34   62 1
@<TRIPOS>PROPERTY_DATA
  Total_Score	| 15.1894
  Crash		| -0.9288
  Polar		| 6.1449
  FragIndex	| 1
  FragRMSD	| 0.464

