@<TRIPOS>MOLECULE
BindingDB_50329045
 57 61 0 0 0
SMALL
NO_CHARGES


@<TRIPOS>ATOM
1    C        -6.7839  -25.6024   -4.3317  C     
2    C        -8.0322  -25.1810   -4.8358  C     
3    C        -8.7881  -24.2081   -4.1504  C     
4    C        -6.2879  -25.0606   -3.1253  C     
5    N        -8.7658  -22.7325   -2.1043  N     
6    C        -7.8950  -22.5833   -1.0908  C     
7    C        -6.8470  -23.4131   -1.2724  C     
8    C        -7.0588  -24.0953   -2.4435  C     
9    C        -8.2853  -23.6645   -2.9516  C     
10   C        -9.9539  -22.0655   -2.2269  C     
11   C        -9.9913  -20.6507   -2.3047  C     
12   C       -11.2192  -19.9640   -2.3793  C     
13   C       -12.4306  -20.6827   -2.3875  C     
14   C       -12.4036  -22.0930   -2.3214  C     
15   C       -11.1771  -22.7758   -2.2304  C     
16   C        -5.7541  -23.5780   -0.4808  C     
17   N        -5.5227  -24.6658    0.2863  N     
18   O        -4.9016  -22.7115   -0.6271  O     
19   C        -6.4368  -25.8014    0.3856  C     
20   C        -6.7067  -26.1857    1.8642  C     
21   N        -5.4522  -26.3277    2.6319  N     
22   C        -4.5449  -25.1640    2.5167  C     
23   C        -4.2737  -24.8247    1.0293  C     
24   O        -8.0720  -21.6198   -0.1569  O     
25   C        -7.9825  -21.9016    1.1817  C     
26   C        -7.0927  -21.0854    1.9122  C     
27   C        -6.9737  -21.2236    3.3031  C     
28   C        -7.7286  -22.1908    3.9800  C     
29   C        -8.6408  -22.9938    3.2712  C     
30   C        -8.8099  -22.8326    1.8654  C     
31   C        -9.8425  -23.5973    1.1278  C     
32   F        -9.3312  -23.8648    3.9614  F     
33   H        -6.2382  -26.3012   -4.8411  H     
34   H        -8.3868  -25.5791   -5.7080  H     
35   H        -9.6804  -23.8933   -4.5316  H     
36   H        -5.3821  -25.3660   -2.7613  H     
37   H        -9.1212  -20.1147   -2.3174  H     
38   H       -11.2362  -18.9375   -2.4229  H     
39   H       -13.3216  -20.1789   -2.4335  H     
40   H       -13.2838  -22.6168   -2.3308  H     
41   H       -11.1769  -23.7986   -2.1603  H     
42   H        -5.9837  -26.6600   -0.1153  H     
43   H        -7.4092  -25.6400   -0.0846  H     
44   H        -7.2338  -27.1419    1.9015  H     
45   H        -7.3469  -25.4361    2.3416  H     
46   H        -4.9704  -27.1743    2.3077  H     
47   H        -5.7028  -26.4475    3.6139  H     
48   H        -3.6040  -25.4001    3.0177  H     
49   H        -4.9956  -24.3046    3.0235  H     
50   H        -3.7056  -25.6408    0.5799  H     
51   H        -3.6294  -23.9437    1.0111  H     
52   H        -6.5340  -20.3726    1.4309  H     
53   H        -6.3451  -20.6080    3.8272  H     
54   H        -7.6273  -22.2887    4.9957  H     
55   H        -9.3467  -24.3146    0.4765  H     
56   H       -10.5164  -24.1416    1.8016  H     
57   H       -10.4517  -22.9177    0.5261  H     
@<TRIPOS>BOND
     1    5   10 1
     2    1    2 2
     3    7   16 1
     4    8    4 2
     5   16   17 1
     6    5    6 1
     7   16   18 2
     8   17   19 1
     9    7    8 1
    10    9    5 1
    11    4    1 1
    12    8    9 1
    13   10   11 2
    14   17   23 1
    15   19   20 1
    16   20   21 1
    17   21   22 1
    18   22   23 1
    19    6   24 1
    20   24   25 1
    21   11   12 1
    22    2    3 1
    23   25   26 2
    24   12   13 2
    25   26   27 1
    26    6    7 2
    27   27   28 2
    28   13   14 1
    29   28   29 1
    30    3    9 2
    31   29   30 2
    32   30   25 1
    33   14   15 2
    34   30   31 1
    35   15   10 1
    36   29   32 1
    37    1   33 1
    38    2   34 1
    39    3   35 1
    40    4   36 1
    41   11   37 1
    42   12   38 1
    43   13   39 1
    44   14   40 1
    45   15   41 1
    46   19   42 1
    47   19   43 1
    48   20   44 1
    49   20   45 1
    50   21   46 1
    51   21   47 1
    52   22   48 1
    53   22   49 1
    54   23   50 1
    55   23   51 1
    56   26   52 1
    57   27   53 1
    58   28   54 1
    59   31   55 1
    60   31   56 1
    61   31   57 1
@<TRIPOS>PROPERTY_DATA
  Total_Score	| 13.8118
  Crash		| -1.0862
  Polar		| 6.1964
  FragIndex	| 1
  FragRMSD	| 0.260

