@<TRIPOS>MOLECULE
BindingDB_50294104
 82 81 0 0 0
SMALL
NO_CHARGES


@<TRIPOS>ATOM
1    N       120.1517   62.7510  -10.2963  N     
2    C       121.0596   62.3752   -9.3822  C     
3    N       121.1938   61.0561   -9.1247  N     
4    C       122.1332   60.4930   -8.2114  C     
5    C       121.6845   59.0977   -7.7040  C     
6    C       122.6307   58.4545   -6.6541  C     
7    C       124.1366   58.4478   -7.0349  C     
8    C       125.0085   57.6854   -5.9964  C     
9    C       126.5051   57.5888   -6.4143  C     
10   C       127.4110   57.1099   -5.2403  C     
11   C       128.9259   57.1029   -5.5568  C     
12   N       129.3541   58.4079   -6.1200  N     
13   C       130.7837   58.7592   -5.9083  C     
14   C       131.0383   60.2962   -5.9904  C     
15   C       132.2323   60.7300   -6.8938  C     
16   C       132.5955   62.2437   -6.7724  C     
17   C       131.6764   63.2172   -7.5743  C     
18   C       131.2533   64.5218   -6.8399  C     
19   C       132.3912   65.5593   -6.5742  C     
20   C       131.9296   67.0390   -6.7305  C     
21   N       131.8749   67.3935   -8.1176  N     
22   C       131.3704   68.5311   -8.6527  C     
23   N       131.3433   68.5290  -10.0084  N     
24   C       130.8319   69.4398  -10.9960  C     
25   C       129.8990   70.4906  -10.6038  C     
26   C       129.6645   71.6708  -11.2176  C     
27   N       121.7694   63.3377   -8.7717  N     
28   N       130.9481   69.5331   -7.8611  N     
29   C       128.6887   72.5886  -10.6282  C     
30   C       130.3569   72.0621  -12.4428  C     
31   H       120.0315   63.6909  -10.5047  H     
32   H       119.6322   62.0823  -10.7686  H     
33   H       120.6241   60.4487   -9.6221  H     
34   H       123.0926   60.4158   -8.7160  H     
35   H       122.2384   61.1500   -7.3480  H     
36   H       120.6945   59.2004   -7.2542  H     
37   H       121.5783   58.4216   -8.5483  H     
38   H       122.5021   58.9888   -5.7098  H     
39   H       122.3083   57.4220   -6.5005  H     
40   H       124.2590   57.9803   -8.0208  H     
41   H       124.4960   59.4823   -7.0858  H     
42   H       124.9301   58.2125   -5.0318  H     
43   H       124.6068   56.6694   -5.8668  H     
44   H       126.6026   56.8857   -7.2502  H     
45   H       126.8567   58.5780   -6.7438  H     
46   H       127.2389   57.7677   -4.3735  H     
47   H       127.1130   56.0912   -4.9565  H     
48   H       129.4544   56.8884   -4.6250  H     
49   H       129.1548   56.3027   -6.2745  H     
50   H       129.1529   58.4024   -7.1277  H     
51   H       128.7897   59.1565   -5.6942  H     
52   H       131.0582   58.4281   -4.8892  H     
53   H       131.4207   58.1982   -6.6178  H     
54   H       130.1327   60.8053   -6.3277  H     
55   H       131.2574   60.6642   -4.9818  H     
56   H       133.1129   60.1412   -6.6091  H     
57   H       132.0028   60.4831   -7.9389  H     
58   H       132.6105   62.5052   -5.7073  H     
59   H       133.6262   62.3510   -7.1383  H     
60   H       132.1590   63.4936   -8.5143  H     
61   H       130.7555   62.7018   -7.8443  H     
62   H       130.4816   65.0025   -7.4531  H     
63   H       130.7812   64.2434   -5.8893  H     
64   H       132.7492   65.4190   -5.5537  H     
65   H       133.2301   65.3843   -7.2524  H     
66   H       130.9332   67.1661   -6.2929  H     
67   H       132.6380   67.6972   -6.2029  H     
68   H       132.2145   66.7447   -8.7424  H     
69   H       131.7206   67.7171  -10.3937  H     
70   H       131.7194   69.8567  -11.4585  H     
71   H       130.3331   68.8292  -11.7524  H     
72   H       129.3121   70.2608   -9.8441  H     
73   H       122.4403   63.1025   -8.1104  H     
74   H       130.5919   70.3694   -8.2132  H     
75   H       127.7230   72.0990  -10.4961  H     
76   H       128.5199   73.4947  -11.2259  H     
77   H       129.0700   72.9155   -9.6601  H     
78   H       131.4353   72.1017  -12.2514  H     
79   H       130.0598   73.0424  -12.8086  H     
80   H       130.1274   71.3394  -13.2354  H     
81   H       121.6170   64.2679   -8.9940  H     
82   H       131.0198   69.4298   -6.9027  H     
@<TRIPOS>BOND
     1    1    2 1
     2    2    3 1
     3    2   27 2
     4    3    4 1
     5    4    5 1
     6    5    6 1
     7    6    7 1
     8    7    8 1
     9    8    9 1
    10    9   10 1
    11   10   11 1
    12   11   12 1
    13   12   13 1
    14   13   14 1
    15   14   15 1
    16   15   16 1
    17   16   17 1
    18   17   18 1
    19   18   19 1
    20   19   20 1
    21   20   21 1
    22   21   22 1
    23   22   23 1
    24   22   28 2
    25   23   24 1
    26   24   25 1
    27   25   26 2
    28   26   29 1
    29   26   30 1
    30    1   31 1
    31    1   32 1
    32    3   33 1
    33    4   34 1
    34    4   35 1
    35    5   36 1
    36    5   37 1
    37    6   38 1
    38    6   39 1
    39    7   40 1
    40    7   41 1
    41    8   42 1
    42    8   43 1
    43    9   44 1
    44    9   45 1
    45   10   46 1
    46   10   47 1
    47   11   48 1
    48   11   49 1
    49   12   50 1
    50   12   51 1
    51   13   52 1
    52   13   53 1
    53   14   54 1
    54   14   55 1
    55   15   56 1
    56   15   57 1
    57   16   58 1
    58   16   59 1
    59   17   60 1
    60   17   61 1
    61   18   62 1
    62   18   63 1
    63   19   64 1
    64   19   65 1
    65   20   66 1
    66   20   67 1
    67   21   68 1
    68   23   69 1
    69   24   70 1
    70   24   71 1
    71   25   72 1
    72   27   73 1
    73   28   74 1
    74   29   75 1
    75   29   76 1
    76   29   77 1
    77   30   78 1
    78   30   79 1
    79   30   80 1
    80   27   81 1
    81   28   82 1
@<TRIPOS>PROPERTY_DATA
  Total_Score	| 13.5922
  Crash		| -2.7028
  Polar		| 5.7840
  FragIndex	| 1
  FragRMSD	| 1.000

