@<TRIPOS>MOLECULE
BindingDB_50032500
 69 68 0 0 0
SMALL
NO_CHARGES


@<TRIPOS>ATOM
1    C       121.2038   62.3233   -9.2875  C     
2    C       131.1862   68.7900   -8.9707  C     
3    N       120.3287   62.6968  -10.2452  N     
4    N       131.6732   68.1193  -10.0276  N     
5    N       131.1547   68.3256   -7.7045  N     
6    N       121.3702   61.0098   -9.0185  N     
7    N       130.6418   70.0011   -9.1869  N     
8    N       121.8786   63.3093   -8.6601  N     
9    N       129.4533   57.9082   -6.1802  N     
10   C       122.3402   60.4250   -8.1205  C     
11   C       131.6240   67.1211   -7.1087  C     
12   C       130.4025   59.0177   -5.8868  C     
13   C       128.5182   57.4571   -5.1095  C     
14   C       131.0377   65.7911   -7.6694  C     
15   C       127.0183   57.9136   -5.2646  C     
16   C       121.9627   58.9932   -7.6525  C     
17   C       131.1312   59.5077   -7.1776  C     
18   C       124.4132   58.0020   -7.3802  C     
19   C       125.2007   56.7564   -6.8631  C     
20   C       125.9388   56.7996   -5.4803  C     
21   C       123.0062   58.2372   -6.7667  C     
22   C       132.1192   60.6966   -6.9770  C     
23   C       131.4733   62.0312   -6.4754  C     
24   C       131.8334   63.3103   -7.2764  C     
25   C       131.1760   64.5860   -6.6794  C     
26   H       120.1782   63.6396  -10.4517  H     
27   H       131.6150   68.5229  -10.9126  H     
28   H       130.7170   68.9297   -7.0807  H     
29   H       120.8034   60.4071   -9.5189  H     
30   H       130.3181   70.5362   -8.4411  H     
31   H       130.6127   70.3716  -10.0773  H     
32   H       122.5011   63.0904   -7.9489  H     
33   H       121.6874   64.2462   -8.8579  H     
34   H       128.9099   58.1714   -7.0137  H     
35   H       130.0362   57.1061   -6.4440  H     
36   H       123.3146   60.3714   -8.6014  H     
37   H       122.4079   61.0770   -7.2497  H     
38   H       132.7170   67.0876   -7.1886  H     
39   H       131.3562   67.1816   -6.0484  H     
40   H       129.8474   59.8457   -5.4474  H     
41   H       131.1510   58.6876   -5.1509  H     
42   H       128.5657   56.3772   -5.0763  H     
43   H       128.8769   57.7915   -4.1538  H     
44   H       129.9797   65.9442   -7.8970  H     
45   H       131.5321   65.5558   -8.6129  H     
46   H       126.7413   58.4566   -4.3623  H     
47   H       126.9414   58.6286   -6.0729  H     
48   H       121.0406   59.0694   -7.0630  H     
49   H       121.7146   58.3840   -8.5248  H     
50   H       131.6841   58.6614   -7.5916  H     
51   H       130.3835   59.8020   -7.9218  H     
52   H       125.0607   58.8937   -7.2555  H     
53   H       124.2877   57.9112   -8.4703  H     
54   H       124.5042   55.9060   -6.8561  H     
55   H       125.9954   56.5261   -7.5939  H     
56   H       126.4071   55.7970   -5.3589  H     
57   H       125.1723   56.8508   -4.6657  H     
58   H       123.1230   58.7398   -5.8200  H     
59   H       122.5901   57.2373   -6.5735  H     
60   H       132.8849   60.3748   -6.2642  H     
61   H       132.6403   60.8712   -7.9256  H     
62   H       130.3920   61.9381   -6.4782  H     
63   H       131.7795   62.1792   -5.4394  H     
64   H       132.9167   63.4451   -7.2559  H     
65   H       131.5250   63.1856   -8.3181  H     
66   H       131.7670   64.8919   -5.8060  H     
67   H       130.1811   64.3284   -6.3096  H     
68   H       119.8309   62.0243  -10.7363  H     
69   H       132.0662   67.2462   -9.9294  H     
@<TRIPOS>BOND
     1    1    3 2
     2    1    6 1
     3    1    8 1
     4    2    4 2
     5    2    5 1
     6    2    7 1
     7    5   11 1
     8    6   10 1
     9    9   12 1
    10    9   13 1
    11   10   16 1
    12   11   14 1
    13   12   17 1
    14   13   15 1
    15   14   25 1
    16   15   20 1
    17   16   21 1
    18   17   22 1
    19   18   19 1
    20   18   21 1
    21   19   20 1
    22   22   23 1
    23   23   24 1
    24   24   25 1
    25    3   26 1
    26    4   27 1
    27    5   28 1
    28    6   29 1
    29    7   30 1
    30    7   31 1
    31    8   32 1
    32    8   33 1
    33    9   34 1
    34    9   35 1
    35   10   36 1
    36   10   37 1
    37   11   38 1
    38   11   39 1
    39   12   40 1
    40   12   41 1
    41   13   42 1
    42   13   43 1
    43   14   44 1
    44   14   45 1
    45   15   46 1
    46   15   47 1
    47   16   48 1
    48   16   49 1
    49   17   50 1
    50   17   51 1
    51   18   52 1
    52   18   53 1
    53   19   54 1
    54   19   55 1
    55   20   56 1
    56   20   57 1
    57   21   58 1
    58   21   59 1
    59   22   60 1
    60   22   61 1
    61   23   62 1
    62   23   63 1
    63   24   64 1
    64   24   65 1
    65   25   66 1
    66   25   67 1
    67    3   68 1
    68    4   69 1
@<TRIPOS>PROPERTY_DATA
  Total_Score	| 13.4998
  Crash		| -1.5559
  Polar		| 5.4427
  FragIndex	| 1
  FragRMSD	| 1.033

