@<TRIPOS>MOLECULE
BindingDB_50294109
 74 73 0 0 0
SMALL
NO_CHARGES


@<TRIPOS>ATOM
1    C       121.0863   62.0332   -9.2096  C     
2    N       121.8170   62.8175   -8.4030  N     
3    N       120.9367   60.6884   -9.1280  N     
4    N       120.4551   62.6358  -10.2281  N     
5    C       121.4446   59.7594   -8.1467  C     
6    C       122.8695   60.0164   -7.5735  C     
7    C       123.7811   58.7517   -7.2306  C     
8    C       123.2545   57.6583   -6.2722  C     
9    C       124.2721   57.0820   -5.2126  C     
10   C       125.7262   56.7835   -5.7214  C     
11   C       126.8116   57.4794   -4.8423  C     
12   C       128.2773   57.3829   -5.3676  C     
13   N       129.0323   58.5558   -4.8319  N     
14   C       130.5053   58.5491   -4.9195  C     
15   C       131.0906   59.1635   -6.2433  C     
16   C       131.7497   60.5711   -6.1304  C     
17   C       131.2456   61.6144   -7.1728  C     
18   C       132.2346   62.7885   -7.4903  C     
19   C       132.0719   64.1233   -6.7099  C     
20   C       131.3395   65.2726   -7.4920  C     
21   C       131.8595   66.7092   -7.2343  C     
22   N       131.6446   67.5376   -8.3894  N     
23   C       131.1041   68.7761   -8.4828  C     
24   N       130.9981   69.4552   -9.6544  N     
25   N       130.6915   69.4558   -7.4021  N     
26   C       131.3066   68.9849  -10.9657  C     
27   C       130.3616   68.1164  -11.4197  C     
28   C       129.5135   67.3482  -11.8022  C     
29   H       121.8820   63.7786   -8.6137  H     
30   H       122.3058   62.4658   -7.6410  H     
31   H       120.3397   60.3125   -9.8013  H     
32   H       119.9093   62.1121  -10.8357  H     
33   H       120.7310   59.7712   -7.3052  H     
34   H       121.3963   58.7798   -8.6005  H     
35   H       123.4442   60.6033   -8.2936  H     
36   H       122.7865   60.6153   -6.6671  H     
37   H       124.0349   58.2886   -8.1785  H     
38   H       124.7194   59.1582   -6.8358  H     
39   H       122.3696   57.9981   -5.7282  H     
40   H       122.9294   56.7896   -6.8722  H     
41   H       124.2897   57.7792   -4.3660  H     
42   H       123.8441   56.1477   -4.8312  H     
43   H       125.9062   55.6987   -5.6856  H     
44   H       125.8284   57.1158   -6.7723  H     
45   H       126.5606   58.5481   -4.7602  H     
46   H       126.7670   57.0371   -3.8364  H     
47   H       128.7260   56.4413   -5.0423  H     
48   H       128.2961   57.4437   -6.4572  H     
49   H       128.6935   59.3828   -5.3336  H     
50   H       128.7662   58.6694   -3.8499  H     
51   H       130.8764   59.1177   -4.0610  H     
52   H       130.8779   57.5272   -4.7902  H     
53   H       131.8558   58.4666   -6.6177  H     
54   H       130.3020   59.1732   -7.0004  H     
55   H       131.6030   61.0052   -5.1352  H     
56   H       132.8406   60.4412   -6.2475  H     
57   H       131.0587   61.0903   -8.1174  H     
58   H       130.2896   62.0245   -6.8375  H     
59   H       133.2566   62.4233   -7.3490  H     
60   H       132.1576   62.9878   -8.5673  H     
61   H       131.5724   63.9630   -5.7490  H     
62   H       133.0883   64.4793   -6.4679  H     
63   H       131.4425   65.0808   -8.5677  H     
64   H       130.2699   65.2386   -7.2683  H     
65   H       131.4104   67.1105   -6.3142  H     
66   H       132.9438   66.6930   -7.0915  H     
67   H       132.0246   67.1827   -9.2154  H     
68   H       130.6885   70.3777   -9.5893  H     
69   H       130.3767   70.3710   -7.5088  H     
70   H       131.3402   69.8466  -11.6428  H     
71   H       132.2872   68.5052  -10.9857  H     
72   H       128.8663   66.7613  -12.0763  H     
73   H       120.5766   63.5931  -10.3710  H     
74   H       130.7650   69.0600   -6.5207  H     
@<TRIPOS>BOND
     1    1    2 1
     2    1    3 1
     3    1    4 2
     4    3    5 1
     5    5    6 1
     6    6    7 1
     7    7    8 1
     8    8    9 1
     9    9   10 1
    10   10   11 1
    11   11   12 1
    12   12   13 1
    13   13   14 1
    14   14   15 1
    15   15   16 1
    16   16   17 1
    17   17   18 1
    18   18   19 1
    19   19   20 1
    20   20   21 1
    21   21   22 1
    22   22   23 1
    23   23   24 1
    24   23   25 2
    25   24   26 1
    26   26   27 1
    27   27   28 3
    28    2   29 1
    29    2   30 1
    30    3   31 1
    31    4   32 1
    32    5   33 1
    33    5   34 1
    34    6   35 1
    35    6   36 1
    36    7   37 1
    37    7   38 1
    38    8   39 1
    39    8   40 1
    40    9   41 1
    41    9   42 1
    42   10   43 1
    43   10   44 1
    44   11   45 1
    45   11   46 1
    46   12   47 1
    47   12   48 1
    48   13   49 1
    49   13   50 1
    50   14   51 1
    51   14   52 1
    52   15   53 1
    53   15   54 1
    54   16   55 1
    55   16   56 1
    56   17   57 1
    57   17   58 1
    58   18   59 1
    59   18   60 1
    60   19   61 1
    61   19   62 1
    62   20   63 1
    63   20   64 1
    64   21   65 1
    65   21   66 1
    66   22   67 1
    67   24   68 1
    68   25   69 1
    69   26   70 1
    70   26   71 1
    71   28   72 1
    72    4   73 1
    73   25   74 1
@<TRIPOS>PROPERTY_DATA
  Total_Score	| 13.5867
  Crash		| -2.9096
  Polar		| 5.5803
  FragIndex	| 1
  FragRMSD	| 0.989

