@<TRIPOS>MOLECULE
BindingDB_50294106
 79 78 0 0 0
SMALL
NO_CHARGES


@<TRIPOS>ATOM
1    C       121.0815   62.1402   -9.2743  C     
2    N       120.2757   62.7177  -10.1818  N     
3    N       121.0168   60.7905   -9.1729  N     
4    N       121.8977   62.9329   -8.5587  N     
5    C       121.8428   59.9642   -8.3581  C     
6    C       121.4586   59.9343   -6.8492  C     
7    C       121.9669   58.6661   -6.1174  C     
8    C       123.3631   58.7882   -5.4152  C     
9    C       124.2390   57.5073   -5.5222  C     
10   C       125.6413   57.7030   -4.8958  C     
11   C       126.7797   56.8716   -5.5605  C     
12   C       128.1947   57.3179   -5.1017  C     
13   N       128.6270   58.5160   -5.8534  N     
14   C       129.9573   59.0662   -5.5200  C     
15   C       130.4278   60.0640   -6.5997  C     
16   C       131.7981   60.7267   -6.2651  C     
17   C       132.1828   61.9288   -7.1749  C     
18   C       132.6447   63.2350   -6.4316  C     
19   C       131.9388   64.5412   -6.8875  C     
20   C       132.7232   65.8173   -6.4568  C     
21   C       131.9950   67.1501   -6.7260  C     
22   N       131.7535   67.4192   -8.1041  N     
23   C       131.1489   68.5368   -8.5750  C     
24   N       131.0736   68.6728   -9.9266  N     
25   N       130.6335   69.4626   -7.7387  N     
26   C       130.3658   69.6621  -10.6869  C     
27   C       131.0702   70.8605  -11.1519  C     
28   C       131.6421   71.7899  -10.3686  C     
29   C       132.1881   73.0257  -10.9174  C     
30   H       120.2979   63.6766  -10.3213  H     
31   H       119.6935   62.1569  -10.7227  H     
32   H       120.3987   60.3517   -9.7834  H     
33   H       122.4935   62.5426   -7.8960  H     
34   H       121.7198   58.9433   -8.7286  H     
35   H       122.8939   60.2495   -8.4841  H     
36   H       121.8423   60.8314   -6.3423  H     
37   H       120.3656   59.9566   -6.7759  H     
38   H       121.2321   58.3987   -5.3471  H     
39   H       121.9739   57.8307   -6.8245  H     
40   H       123.9365   59.6156   -5.8406  H     
41   H       123.2107   59.0179   -4.3551  H     
42   H       123.7444   56.6591   -5.0337  H     
43   H       124.3622   57.2743   -6.5902  H     
44   H       125.8927   58.7628   -4.9661  H     
45   H       125.6016   57.4360   -3.8310  H     
46   H       126.6434   55.8177   -5.3163  H     
47   H       126.7193   56.9688   -6.6502  H     
48   H       128.2081   57.5211   -4.0251  H     
49   H       128.8936   56.4935   -5.2939  H     
50   H       128.6173   58.2904   -6.8490  H     
51   H       127.9396   59.2547   -5.7029  H     
52   H       129.8953   59.5499   -4.5450  H     
53   H       130.6850   58.2549   -5.4534  H     
54   H       130.4977   59.5381   -7.5596  H     
55   H       129.6806   60.8634   -6.7071  H     
56   H       131.7390   61.0378   -5.2138  H     
57   H       132.5827   59.9621   -6.3339  H     
58   H       133.0109   61.5955   -7.8229  H     
59   H       131.3567   62.1650   -7.8591  H     
60   H       132.5018   63.1256   -5.3530  H     
61   H       133.7303   63.3292   -6.5625  H     
62   H       131.8419   64.5420   -7.9783  H     
63   H       130.9399   64.5520   -6.4555  H     
64   H       132.9221   65.7447   -5.3791  H     
65   H       133.6894   65.8223   -6.9649  H     
66   H       131.0491   67.1562   -6.1716  H     
67   H       132.6183   67.9516   -6.3173  H     
68   H       132.1027   66.7934   -8.7560  H     
69   H       131.4783   67.9607  -10.4440  H     
70   H       130.3038   70.3163   -8.0743  H     
71   H       129.9995   69.1522  -11.5782  H     
72   H       129.4746   69.9958  -10.1419  H     
73   H       131.0331   71.0234  -12.1393  H     
74   H       131.6899   71.6237   -9.3904  H     
75   H       133.0826   72.7873  -11.5115  H     
76   H       132.4722   73.7084  -10.1090  H     
77   H       131.4361   73.5417  -11.5428  H     
78   H       121.9095   63.8855   -8.7132  H     
79   H       130.6632   69.3099   -6.7898  H     
@<TRIPOS>BOND
     1    1    2 1
     2    1    3 1
     3    1    4 2
     4    3    5 1
     5    5    6 1
     6    6    7 1
     7    7    8 1
     8    8    9 1
     9    9   10 1
    10   10   11 1
    11   11   12 1
    12   12   13 1
    13   13   14 1
    14   14   15 1
    15   15   16 1
    16   16   17 1
    17   17   18 1
    18   18   19 1
    19   19   20 1
    20   20   21 1
    21   21   22 1
    22   22   23 1
    23   23   24 1
    24   23   25 2
    25   24   26 1
    26   26   27 1
    27   27   28 2
    28   28   29 1
    29    2   30 1
    30    2   31 1
    31    3   32 1
    32    4   33 1
    33    5   34 1
    34    5   35 1
    35    6   36 1
    36    6   37 1
    37    7   38 1
    38    7   39 1
    39    8   40 1
    40    8   41 1
    41    9   42 1
    42    9   43 1
    43   10   44 1
    44   10   45 1
    45   11   46 1
    46   11   47 1
    47   12   48 1
    48   12   49 1
    49   13   50 1
    50   13   51 1
    51   14   52 1
    52   14   53 1
    53   15   54 1
    54   15   55 1
    55   16   56 1
    56   16   57 1
    57   17   58 1
    58   17   59 1
    59   18   60 1
    60   18   61 1
    61   19   62 1
    62   19   63 1
    63   20   64 1
    64   20   65 1
    65   21   66 1
    66   21   67 1
    67   22   68 1
    68   24   69 1
    69   25   70 1
    70   26   71 1
    71   26   72 1
    72   27   73 1
    73   28   74 1
    74   29   75 1
    75   29   76 1
    76   29   77 1
    77    4   78 1
    78   25   79 1
@<TRIPOS>PROPERTY_DATA
  Total_Score	| 13.8917
  Crash		| -2.3661
  Polar		| 5.8182
  FragIndex	| 1
  FragRMSD	| 1.182

