@<TRIPOS>MOLECULE
BindingDB_50294105
 79 79 0 0 0
SMALL
NO_CHARGES


@<TRIPOS>ATOM
1    N       120.2890   62.6613  -10.2005  N     
2    C       121.2171   62.3440   -9.2849  C     
3    N       121.3894   61.0399   -8.9688  N     
4    C       122.3371   60.5232   -8.0331  C     
5    C       121.9007   59.1105   -7.5632  C     
6    C       122.8247   58.4596   -6.5031  C     
7    C       124.2785   58.1421   -6.9587  C     
8    C       124.9347   57.0576   -6.0536  C     
9    C       126.4781   56.9248   -6.1448  C     
10   C       127.2493   58.1762   -5.6346  C     
11   C       128.7550   57.9197   -5.3394  C     
12   N       129.6816   58.3636   -6.4099  N     
13   C       130.1095   59.7903   -6.4172  C     
14   C       131.4661   59.9508   -7.1593  C     
15   C       131.9175   61.4126   -7.4253  C     
16   C       131.5484   62.3982   -6.2804  C     
17   C       132.3337   63.7337   -6.2531  C     
18   C       131.5910   64.9330   -6.9054  C     
19   C       132.2297   66.2895   -6.5053  C     
20   C       131.6242   67.5197   -7.2243  C     
21   N       131.6671   67.3642   -8.6391  N     
22   C       131.1779   68.2159   -9.5663  C     
23   N       130.5275   69.3611   -9.2399  N     
24   C       130.0387   70.3587  -10.1424  C     
25   C       131.1725   71.0994  -10.8972  C     
26   C       131.3364   72.6214  -10.7444  C     
27   N       121.9220   63.3444   -8.7238  N     
28   N       131.3987   67.8435  -10.8380  N     
29   C       132.3319   71.6824  -10.0608  C     
30   H       120.1511   63.5859  -10.4486  H     
31   H       119.7718   61.9593  -10.6193  H     
32   H       120.8027   60.4019   -9.4201  H     
33   H       123.3182   60.4694   -8.5083  H     
34   H       122.3929   61.1838   -7.1625  H     
35   H       120.8957   59.1860   -7.1320  H     
36   H       121.8265   58.4475   -8.4254  H     
37   H       122.8461   59.0926   -5.6128  H     
38   H       122.3514   57.5160   -6.2186  H     
39   H       124.2604   57.7738   -7.9915  H     
40   H       124.8771   59.0607   -6.9360  H     
41   H       124.6451   57.2406   -5.0166  H     
42   H       124.5034   56.0921   -6.3374  H     
43   H       126.7534   56.0692   -5.5256  H     
44   H       126.7781   56.7000   -7.1710  H     
45   H       127.1550   58.9772   -6.3724  H     
46   H       126.7853   58.5171   -4.7038  H     
47   H       129.0366   58.3940   -4.4049  H     
48   H       128.9378   56.8638   -5.1861  H     
49   H       130.5297   57.7909   -6.3288  H     
50   H       129.2597   58.1594   -7.3221  H     
51   H       129.3410   60.3929   -6.9234  H     
52   H       130.2199   60.1785   -5.4011  H     
53   H       132.2408   59.4424   -6.5786  H     
54   H       131.3874   59.4336   -8.1183  H     
55   H       133.0058   61.4031   -7.5543  H     
56   H       131.4831   61.7653   -8.3716  H     
57   H       130.4764   62.6181   -6.3385  H     
58   H       131.7235   61.8843   -5.3310  H     
59   H       132.5158   63.9687   -5.2012  H     
60   H       133.3099   63.5962   -6.7270  H     
61   H       131.6114   64.8185   -7.9891  H     
62   H       130.5465   64.9198   -6.5801  H     
63   H       132.1036   66.4375   -5.4280  H     
64   H       133.3019   66.2502   -6.7148  H     
65   H       130.5899   67.6715   -6.8985  H     
66   H       132.2066   68.4053   -6.9545  H     
67   H       132.1212   66.5821   -8.9796  H     
68   H       130.3846   69.5319   -8.2959  H     
69   H       129.3636   69.9067  -10.8704  H     
70   H       129.4495   71.0725   -9.5621  H     
71   H       131.4846   70.7000  -11.8665  H     
72   H       131.7452   73.1548  -11.6015  H     
73   H       130.6707   73.1453  -10.0567  H     
74   H       122.6033   63.1579   -8.0577  H     
75   H       131.0806   68.3766  -11.5849  H     
76   H       132.2429   71.5998   -8.9731  H     
77   H       133.3186   71.6096  -10.5242  H     
78   H       121.7473   64.2663   -8.9816  H     
79   H       131.9100   67.0362  -10.9949  H     
@<TRIPOS>BOND
     1    1    2 1
     2    2    3 1
     3    2   27 2
     4    3    4 1
     5    4    5 1
     6    5    6 1
     7    6    7 1
     8    7    8 1
     9    8    9 1
    10    9   10 1
    11   10   11 1
    12   11   12 1
    13   12   13 1
    14   13   14 1
    15   14   15 1
    16   15   16 1
    17   16   17 1
    18   17   18 1
    19   18   19 1
    20   19   20 1
    21   20   21 1
    22   21   22 1
    23   22   23 1
    24   22   28 2
    25   23   24 1
    26   24   25 1
    27   25   26 1
    28   25   29 1
    29   26   29 1
    30    1   30 1
    31    1   31 1
    32    3   32 1
    33    4   33 1
    34    4   34 1
    35    5   35 1
    36    5   36 1
    37    6   37 1
    38    6   38 1
    39    7   39 1
    40    7   40 1
    41    8   41 1
    42    8   42 1
    43    9   43 1
    44    9   44 1
    45   10   45 1
    46   10   46 1
    47   11   47 1
    48   11   48 1
    49   12   49 1
    50   12   50 1
    51   13   51 1
    52   13   52 1
    53   14   53 1
    54   14   54 1
    55   15   55 1
    56   15   56 1
    57   16   57 1
    58   16   58 1
    59   17   59 1
    60   17   60 1
    61   18   61 1
    62   18   62 1
    63   19   63 1
    64   19   64 1
    65   20   65 1
    66   20   66 1
    67   21   67 1
    68   23   68 1
    69   24   69 1
    70   24   70 1
    71   25   71 1
    72   26   72 1
    73   26   73 1
    74   27   74 1
    75   28   75 1
    76   29   76 1
    77   29   77 1
    78   27   78 1
    79   28   79 1
@<TRIPOS>PROPERTY_DATA
  Total_Score	| 15.2367
  Crash		| -1.5363
  Polar		| 5.3918
  FragIndex	| 1
  FragRMSD	| 0.549

