@<TRIPOS>MOLECULE
BindingDB_50294110
 95 94 0 0 0
SMALL
NO_CHARGES


@<TRIPOS>ATOM
1    C       123.8445   66.7637   -5.8838  C     
2    C       123.4809   65.3453   -5.9173  C     
3    C       123.1873   64.7840   -7.1083  C     
4    C       122.7478   63.4180   -7.3859  C     
5    N       121.7713   63.4508   -8.4516  N     
6    C       121.1602   62.4325   -9.1127  C     
7    N       121.0464   61.1068   -8.8279  N     
8    C       121.3153   60.4471   -7.5941  C     
9    C       122.4173   59.3856   -7.7779  C     
10   C       122.8331   58.6805   -6.4605  C     
11   C       123.8967   57.5792   -6.7157  C     
12   C       125.1978   57.7478   -5.8832  C     
13   C       126.2967   56.7298   -6.2918  C     
14   C       127.5817   56.7360   -5.4218  C     
15   C       128.0910   58.1250   -4.9614  C     
16   N       128.6985   58.9690   -6.0267  N     
17   C       130.1783   59.0469   -6.0797  C     
18   C       130.6417   60.3728   -6.7406  C     
19   C       132.1860   60.5079   -6.8517  C     
20   C       132.7113   61.8918   -7.3468  C     
21   C       132.4412   63.0929   -6.3844  C     
22   C       131.1823   63.9449   -6.7025  C     
23   C       131.3775   65.1014   -7.7229  C     
24   C       132.1253   66.3449   -7.1649  C     
25   N       131.8096   67.5130   -7.9356  N     
26   C       131.7409   68.8049   -7.5027  C     
27   N       131.2616   69.7980   -8.2928  N     
28   C       130.7863   69.6815   -9.6394  C     
29   C       131.8751   69.8930  -10.5829  C     
30   C       132.4766   71.0715  -10.8640  C     
31   C       133.6869   71.0575  -11.6867  C     
32   C       123.4660   64.5815   -4.6681  C     
33   N       120.5300   62.7969  -10.2394  N     
34   N       132.1729   69.1865   -6.2826  N     
35   C       131.9771   72.3357  -10.3225  C     
36   H       124.6260   66.9713   -6.6188  H     
37   H       124.2260   67.0931   -4.9135  H     
38   H       122.9715   67.3702   -6.1271  H     
39   H       123.3224   65.3557   -7.9093  H     
40   H       123.6140   62.8357   -7.7169  H     
41   H       122.3266   62.9388   -6.4923  H     
42   H       121.5751   64.3275   -8.8121  H     
43   H       120.6256   60.5662   -9.5145  H     
44   H       121.5609   61.1691   -6.8299  H     
45   H       120.4065   59.9377   -7.2792  H     
46   H       122.0230   58.6177   -8.4530  H     
47   H       123.3062   59.8396   -8.2392  H     
48   H       123.2444   59.4272   -5.7799  H     
49   H       121.9474   58.2371   -5.9923  H     
50   H       123.4537   56.6034   -6.4835  H     
51   H       124.1554   57.6025   -7.7783  H     
52   H       125.5591   58.7617   -6.0469  H     
53   H       124.9753   57.6221   -4.8178  H     
54   H       125.8682   55.7236   -6.2608  H     
55   H       126.5919   56.9155   -7.3271  H     
56   H       127.3996   56.1187   -4.5383  H     
57   H       128.3817   56.2583   -5.9883  H     
58   H       127.2448   58.6680   -4.5518  H     
59   H       128.7848   57.9774   -4.1328  H     
60   H       128.3679   58.6633   -6.9415  H     
61   H       128.3538   59.9224   -5.8911  H     
62   H       130.5791   59.0214   -5.0635  H     
63   H       130.5656   58.1923   -6.6355  H     
64   H       130.1946   60.4638   -7.7346  H     
65   H       130.2674   61.1855   -6.1254  H     
66   H       132.6365   60.3030   -5.8751  H     
67   H       132.5454   59.7437   -7.5462  H     
68   H       133.7965   61.7939   -7.4441  H     
69   H       132.3204   62.1039   -8.3494  H     
70   H       132.3378   62.7171   -5.3649  H     
71   H       133.3102   63.7552   -6.3747  H     
72   H       130.3913   63.2960   -7.0757  H     
73   H       130.8129   64.3765   -5.7711  H     
74   H       131.9039   64.7225   -8.6031  H     
75   H       130.3758   65.4130   -8.0436  H     
76   H       131.8703   66.4755   -6.1121  H     
77   H       133.2013   66.1701   -7.2227  H     
78   H       131.5776   67.3392   -8.8627  H     
79   H       131.2231   70.6857   -7.9018  H     
80   H       130.3401   68.6966   -9.7971  H     
81   H       129.9886   70.4127   -9.8110  H     
82   H       132.2156   69.0749  -11.0361  H     
83   H       134.4854   70.5231  -11.1668  H     
84   H       134.0564   72.0578  -11.9156  H     
85   H       133.4936   70.5602  -12.6379  H     
86   H       123.5879   65.2244   -3.7977  H     
87   H       124.2697   63.8470   -4.6740  H     
88   H       122.5168   64.0668   -4.5353  H     
89   H       120.1047   62.1261  -10.7922  H     
90   H       132.1496   70.1270   -6.0292  H     
91   H       130.9413   72.4788  -10.6293  H     
92   H       132.5387   73.2009  -10.6781  H     
93   H       132.0301   72.3317   -9.2338  H     
94   H       120.5200   63.7253  -10.5264  H     
95   H       132.5250   68.5293   -5.6598  H     
@<TRIPOS>BOND
     1    1    2 1
     2    2    3 2
     3    2   32 1
     4    3    4 1
     5    4    5 1
     6    5    6 1
     7    6    7 1
     8    6   33 2
     9    7    8 1
    10    8    9 1
    11    9   10 1
    12   10   11 1
    13   11   12 1
    14   12   13 1
    15   13   14 1
    16   14   15 1
    17   15   16 1
    18   16   17 1
    19   17   18 1
    20   18   19 1
    21   19   20 1
    22   20   21 1
    23   21   22 1
    24   22   23 1
    25   23   24 1
    26   24   25 1
    27   25   26 1
    28   26   27 1
    29   26   34 2
    30   27   28 1
    31   28   29 1
    32   29   30 2
    33   30   31 1
    34   30   35 1
    35    1   36 1
    36    1   37 1
    37    1   38 1
    38    3   39 1
    39    4   40 1
    40    4   41 1
    41    5   42 1
    42    7   43 1
    43    8   44 1
    44    8   45 1
    45    9   46 1
    46    9   47 1
    47   10   48 1
    48   10   49 1
    49   11   50 1
    50   11   51 1
    51   12   52 1
    52   12   53 1
    53   13   54 1
    54   13   55 1
    55   14   56 1
    56   14   57 1
    57   15   58 1
    58   15   59 1
    59   16   60 1
    60   16   61 1
    61   17   62 1
    62   17   63 1
    63   18   64 1
    64   18   65 1
    65   19   66 1
    66   19   67 1
    67   20   68 1
    68   20   69 1
    69   21   70 1
    70   21   71 1
    71   22   72 1
    72   22   73 1
    73   23   74 1
    74   23   75 1
    75   24   76 1
    76   24   77 1
    77   25   78 1
    78   27   79 1
    79   28   80 1
    80   28   81 1
    81   29   82 1
    82   31   83 1
    83   31   84 1
    84   31   85 1
    85   32   86 1
    86   32   87 1
    87   32   88 1
    88   33   89 1
    89   34   90 1
    90   35   91 1
    91   35   92 1
    92   35   93 1
    93   33   94 1
    94   34   95 1
@<TRIPOS>PROPERTY_DATA
  Total_Score	| 15.0023
  Crash		| -3.5373
  Polar		| 4.5907
  FragIndex	| 1
  FragRMSD	| 0.796

