@<TRIPOS>MOLECULE
BindingDB_50294097
 50 50 0 0 0
SMALL
NO_CHARGES


@<TRIPOS>ATOM
1    C       132.6594   65.3682   -5.7849  C     
2    N       133.1364   65.5947   -4.4091  N     
3    C       132.6906   63.8578   -6.1577  C     
4    C       131.6713   63.4829   -7.2788  C     
5    C       130.7981   62.2249   -6.9913  C     
6    C       131.5633   60.9627   -6.5257  C     
7    N       130.6845   59.8410   -6.5645  N     
8    C       129.8940   59.3930   -5.5611  C     
9    N       130.0861   59.7275   -4.2672  N     
10   N       128.8549   58.6239   -5.9528  N     
11   C       127.8225   58.1518   -5.0902  C     
12   C       126.6248   57.5997   -5.9007  C     
13   C       125.3143   57.4313   -5.0532  C     
14   C       124.4693   58.7425   -4.8910  C     
15   C       123.7052   59.1693   -6.1766  C     
16   C       122.8488   58.0157   -6.7447  C     
17   C       123.6677   56.7106   -6.9230  C     
18   C       124.3861   56.3084   -5.6093  C     
19   H       131.6311   65.7526   -5.8332  H     
20   H       133.2828   65.9401   -6.4704  H     
21   H       132.6964   64.9182   -3.7715  H     
22   H       132.8648   66.5432   -4.1076  H     
23   H       134.1622   65.4757   -4.3871  H     
24   H       133.7016   63.5843   -6.4639  H     
25   H       132.4431   63.2692   -5.2653  H     
26   H       130.9795   64.3184   -7.4031  H     
27   H       132.1878   63.3511   -8.2309  H     
28   H       130.0237   62.4737   -6.2501  H     
29   H       130.2673   61.9817   -7.9176  H     
30   H       132.3879   60.7580   -7.2078  H     
31   H       131.9830   61.1229   -5.5299  H     
32   H       130.4542   59.5100   -7.4459  H     
33   H       129.4657   59.4199   -3.5824  H     
34   H       128.7437   58.4747   -6.9089  H     
35   H       128.2204   57.3704   -4.4386  H     
36   H       127.4827   58.9809   -4.4724  H     
37   H       126.4225   58.2632   -6.7495  H     
38   H       126.9177   56.6347   -6.3244  H     
39   H       125.6180   57.1134   -4.0466  H     
40   H       123.7383   58.5878   -4.0952  H     
41   H       125.1082   59.5653   -4.5704  H     
42   H       123.0574   60.0184   -5.9365  H     
43   H       124.4103   59.5040   -6.9379  H     
44   H       122.0174   57.8260   -6.0637  H     
45   H       122.4326   58.3192   -7.7075  H     
46   H       123.0002   55.9006   -7.2214  H     
47   H       124.4077   56.8468   -7.7183  H     
48   H       124.9683   55.3993   -5.7779  H     
49   H       123.6308   56.0674   -4.8559  H     
50   H       130.8294   60.2930   -4.0172  H     
@<TRIPOS>BOND
     1    1    2 1
     2    1    3 1
     3    3    4 1
     4    4    5 1
     5    5    6 1
     6    6    7 1
     7    7    8 1
     8    8    9 2
     9    8   10 1
    10   10   11 1
    11   11   12 1
    12   12   13 1
    13   13   14 1
    14   13   18 1
    15   14   15 1
    16   15   16 1
    17   16   17 1
    18   17   18 1
    19    1   19 1
    20    1   20 1
    21    2   21 1
    22    2   22 1
    23    2   23 1
    24    3   24 1
    25    3   25 1
    26    4   26 1
    27    4   27 1
    28    5   28 1
    29    5   29 1
    30    6   30 1
    31    6   31 1
    32    7   32 1
    33    9   33 1
    34   10   34 1
    35   11   35 1
    36   11   36 1
    37   12   37 1
    38   12   38 1
    39   13   39 1
    40   14   40 1
    41   14   41 1
    42   15   42 1
    43   15   43 1
    44   16   44 1
    45   16   45 1
    46   17   46 1
    47   17   47 1
    48   18   48 1
    49   18   49 1
    50    9   50 1
@<TRIPOS>PROPERTY_DATA
  Total_Score	| 9.7415
  Crash		| -2.7106
  Polar		| 5.4404
  FragIndex	| 1
  FragRMSD	| 1.327

