@<TRIPOS>MOLECULE
BindingDB_50294107
 82 81 0 0 0
SMALL
NO_CHARGES


@<TRIPOS>ATOM
1    C       120.8384   63.5112   -9.6790  C     
2    N       121.0740   64.8192   -9.5189  N     
3    N       121.5214   62.6379   -8.9080  N     
4    N       119.9336   63.1470  -10.6149  N     
5    C       121.3084   61.2233   -8.8840  C     
6    C       122.3677   60.4879   -8.0194  C     
7    C       121.8825   59.0924   -7.5484  C     
8    C       122.8497   58.3481   -6.5900  C     
9    C       124.3195   58.2050   -7.0995  C     
10   C       125.0646   56.9321   -6.5999  C     
11   C       125.7204   57.0414   -5.1805  C     
12   C       127.2713   57.1416   -5.1605  C     
13   N       127.7967   58.3542   -5.8441  N     
14   C       129.1376   58.7783   -5.3589  C     
15   C       129.8468   59.7575   -6.3198  C     
16   C       131.3725   59.9040   -5.9878  C     
17   C       132.2593   60.5666   -7.0770  C     
18   C       131.8460   61.9873   -7.5420  C     
19   C       132.2020   63.1630   -6.5841  C     
20   C       131.4444   64.4713   -6.9515  C     
21   C       132.2172   65.7971   -6.7018  C     
22   N       132.0299   66.6651   -7.8179  N     
23   C       131.4200   67.8646   -7.8815  C     
24   N       131.4493   68.4135   -9.1125  N     
25   N       130.8463   68.4831   -6.8265  N     
26   C       131.0287   69.7277   -9.4746  C     
27   C       131.0754   69.8593  -11.0229  C     
28   C       131.2629   71.2364  -11.4896  C     
29   C       130.2467   71.8339  -12.3476  C     
30   C       132.3680   71.9158  -11.1272  C     
31   H       120.5905   65.4659  -10.0512  H     
32   H       121.7125   65.1214   -8.8560  H     
33   H       122.1836   63.0029   -8.2992  H     
34   H       119.7480   62.2079  -10.7794  H     
35   H       120.3158   61.0347   -8.4638  H     
36   H       121.3362   60.8298   -9.9041  H     
37   H       123.2928   60.3812   -8.5980  H     
38   H       122.5936   61.0941   -7.1366  H     
39   H       120.9349   59.2214   -7.0233  H     
40   H       121.6805   58.4674   -8.4232  H     
41   H       122.8527   58.8460   -5.6164  H     
42   H       122.4336   57.3521   -6.4345  H     
43   H       124.3003   58.1480   -8.1919  H     
44   H       124.8937   59.1056   -6.8478  H     
45   H       124.3620   56.0885   -6.5966  H     
46   H       125.8292   56.6748   -7.3432  H     
47   H       125.2899   57.8628   -4.5989  H     
48   H       125.4615   56.1338   -4.6342  H     
49   H       127.5752   57.1344   -4.1029  H     
50   H       127.7079   56.2527   -5.6334  H     
51   H       127.8638   58.1749   -6.8517  H     
52   H       127.1377   59.1286   -5.7148  H     
53   H       129.0241   59.2611   -4.3849  H     
54   H       129.7746   57.8949   -5.2348  H     
55   H       129.7313   59.4018   -7.3477  H     
56   H       129.3746   60.7424   -6.2454  H     
57   H       131.4750   60.4700   -5.0603  H     
58   H       131.7874   58.9077   -5.8066  H     
59   H       133.2925   60.6089   -6.7001  H     
60   H       132.2684   59.9153   -7.9505  H     
61   H       132.3437   62.1795   -8.4977  H     
62   H       130.7672   62.0073   -7.7350  H     
63   H       131.9616   62.8921   -5.5471  H     
64   H       133.2933   63.3147   -6.6274  H     
65   H       131.1857   64.4403   -8.0154  H     
66   H       130.4976   64.5230   -6.4118  H     
67   H       131.9117   66.2440   -5.7498  H     
68   H       133.2956   65.6061   -6.6628  H     
69   H       132.4446   66.3694   -8.6428  H     
70   H       131.8797   67.8894   -9.8105  H     
71   H       130.4424   69.3597   -6.9531  H     
72   H       130.0005   69.8967   -9.1114  H     
73   H       131.7058   70.4681   -9.0182  H     
74   H       131.8900   69.2506  -11.4315  H     
75   H       130.1649   69.4169  -11.4392  H     
76   H       130.1390   71.2611  -13.2666  H     
77   H       130.4774   72.8605  -12.6307  H     
78   H       129.2840   71.8469  -11.8401  H     
79   H       132.4998   72.8643  -11.4266  H     
80   H       133.0425   71.4743  -10.5382  H     
81   H       119.4881   63.8265  -11.1452  H     
82   H       130.8294   68.0613   -5.9521  H     
@<TRIPOS>BOND
     1    1    2 1
     2    1    3 1
     3    1    4 2
     4    3    5 1
     5    5    6 1
     6    6    7 1
     7    7    8 1
     8    8    9 1
     9    9   10 1
    10   10   11 1
    11   11   12 1
    12   12   13 1
    13   13   14 1
    14   14   15 1
    15   15   16 1
    16   16   17 1
    17   17   18 1
    18   18   19 1
    19   19   20 1
    20   20   21 1
    21   21   22 1
    22   22   23 1
    23   23   24 1
    24   23   25 2
    25   24   26 1
    26   26   27 1
    27   27   28 1
    28   28   29 1
    29   28   30 2
    30    2   31 1
    31    2   32 1
    32    3   33 1
    33    4   34 1
    34    5   35 1
    35    5   36 1
    36    6   37 1
    37    6   38 1
    38    7   39 1
    39    7   40 1
    40    8   41 1
    41    8   42 1
    42    9   43 1
    43    9   44 1
    44   10   45 1
    45   10   46 1
    46   11   47 1
    47   11   48 1
    48   12   49 1
    49   12   50 1
    50   13   51 1
    51   13   52 1
    52   14   53 1
    53   14   54 1
    54   15   55 1
    55   15   56 1
    56   16   57 1
    57   16   58 1
    58   17   59 1
    59   17   60 1
    60   18   61 1
    61   18   62 1
    62   19   63 1
    63   19   64 1
    64   20   65 1
    65   20   66 1
    66   21   67 1
    67   21   68 1
    68   22   69 1
    69   24   70 1
    70   25   71 1
    71   26   72 1
    72   26   73 1
    73   27   74 1
    74   27   75 1
    75   29   76 1
    76   29   77 1
    77   29   78 1
    78   30   79 1
    79   30   80 1
    80    4   81 1
    81   25   82 1
@<TRIPOS>PROPERTY_DATA
  Total_Score	| 15.1359
  Crash		| -2.2880
  Polar		| 5.6196
  FragIndex	| 1
  FragRMSD	| 0.647

