@<TRIPOS>MOLECULE
BindingDB_50294112
 41 40 0 0 0
SMALL
NO_CHARGES


@<TRIPOS>ATOM
1    N       131.5599   60.9858   -6.0092  N     
2    C       131.3214   61.8414   -7.1832  C     
3    C       132.2203   63.0966   -7.2055  C     
4    C       131.7826   64.2352   -6.2342  C     
5    C       132.3820   65.6416   -6.5689  C     
6    C       131.3695   66.6243   -7.2251  C     
7    N       131.7680   67.9820   -7.1190  N     
8    C       131.4632   69.0365   -7.9302  C     
9    N       130.8448   68.8874   -9.1387  N     
10   N       131.8272   70.2261   -7.4647  N     
11   C       130.6281   69.9067  -10.1175  C     
12   C       131.8574   70.1091  -10.8631  C     
13   C       132.5320   71.2625  -11.0541  C     
14   C       133.8170   71.2007  -11.7582  C     
15   C       132.0106   72.5534  -10.5981  C     
16   H       132.5278   60.6630   -6.0226  H     
17   H       130.9327   60.1822   -6.0450  H     
18   H       131.3778   61.5177   -5.1536  H     
19   H       131.5304   61.2454   -8.0743  H     
20   H       130.2673   62.1276   -7.2089  H     
21   H       133.2492   62.8067   -6.9651  H     
22   H       132.2060   63.4887   -8.2339  H     
23   H       130.6846   64.2654   -6.2228  H     
24   H       132.0901   63.9502   -5.2208  H     
25   H       132.7576   66.0814   -5.6411  H     
26   H       133.2451   65.5511   -7.2440  H     
27   H       131.2290   66.2864   -8.2652  H     
28   H       130.4131   66.5470   -6.7128  H     
29   H       132.1811   68.2328   -6.2612  H     
30   H       130.5807   68.0054   -9.4024  H     
31   H       131.5419   71.0394   -7.9095  H     
32   H       129.8749   69.5312  -10.8077  H     
33   H       130.2183   70.7923   -9.6319  H     
34   H       132.2326   69.2832  -11.2860  H     
35   H       134.5475   70.6778  -11.1389  H     
36   H       134.2197   72.1869  -11.9901  H     
37   H       133.7099   70.6597  -12.6998  H     
38   H       131.0053   72.7150  -10.9920  H     
39   H       132.6204   73.4034  -10.9238  H     
40   H       131.9776   72.5836   -9.5096  H     
41   H       132.2351   70.2999   -6.5786  H     
@<TRIPOS>BOND
     1    1    2 1
     2    2    3 1
     3    3    4 1
     4    4    5 1
     5    5    6 1
     6    6    7 1
     7    7    8 1
     8    8    9 1
     9    8   10 2
    10    9   11 1
    11   11   12 1
    12   12   13 2
    13   13   14 1
    14   13   15 1
    15    1   16 1
    16    1   17 1
    17    1   18 1
    18    2   19 1
    19    2   20 1
    20    3   21 1
    21    3   22 1
    22    4   23 1
    23    4   24 1
    24    5   25 1
    25    5   26 1
    26    6   27 1
    27    6   28 1
    28    7   29 1
    29    9   30 1
    30   10   31 1
    31   11   32 1
    32   11   33 1
    33   12   34 1
    34   14   35 1
    35   14   36 1
    36   14   37 1
    37   15   38 1
    38   15   39 1
    39   15   40 1
    40   10   41 1
@<TRIPOS>PROPERTY_DATA
  Total_Score	| 7.5726
  Crash		| -1.7004
  Polar		| 2.1771
  FragIndex	| 1
  FragRMSD	| 0.801

