@<TRIPOS>MOLECULE
BindingDB_91932
 43 46 0 0 0
SMALL
NO_CHARGES


@<TRIPOS>ATOM
1    O        22.4732   -3.9019    5.6674  O     
2    C        23.0654   -4.1750    6.8575  C     
3    C        22.8057   -3.3287    8.0349  C     
4    C        21.5641   -3.7400    8.7378  C     
5    C        20.3171   -3.1771    8.3855  C     
6    C        19.1255   -3.5028    9.0814  C     
7    C        19.1745   -4.4337   10.1458  C     
8    N        18.1262   -4.8632   10.8849  N     
9    C        16.7810   -4.6524   10.7854  C     
10   C        16.1142   -3.7246    9.9345  C     
11   C        16.7677   -2.8375    9.0607  C     
12   N        18.0347   -2.8060    8.6986  N     
13   O        16.1312   -1.9663    8.4830  O     
14   C        14.6927   -3.6963    9.9796  C     
15   C        13.9555   -4.5280   10.8304  C     
16   C        14.6084   -5.4389   11.6885  C     
17   C        13.8532   -6.3271   12.5099  C     
18   C        14.1735   -7.7032   12.5910  C     
19   C        13.3781   -8.6234   13.3261  C     
20   N        13.6759   -9.9548   13.3691  N     
21   O        12.9513  -10.8153   14.0415  O     
22   O        14.6057  -10.4288   12.7670  O     
23   C        12.2485   -8.1149   14.0146  C     
24   C        11.9182   -6.7518   13.9492  C     
25   C        12.7108   -5.8671   13.2058  C     
26   C        16.0214   -5.4771   11.6503  C     
27   C        20.4208   -5.0046   10.4946  C     
28   C        21.5957   -4.6600    9.8069  C     
29   O        24.0045   -5.1485    6.8979  O     
30   H        23.6864   -3.3805    8.6800  H     
31   H        22.7051   -2.2840    7.7294  H     
32   H        20.2918   -2.4966    7.6207  H     
33   H        18.3759   -5.5015   11.5750  H     
34   H        18.2307   -2.1304    8.0337  H     
35   H        14.1535   -3.0635    9.3806  H     
36   H        12.9348   -4.4838   10.7866  H     
37   H        14.9740   -8.0497   12.0541  H     
38   H        11.6523   -8.7352   14.5701  H     
39   H        11.0981   -6.4031   14.4503  H     
40   H        12.4452   -4.8799   13.1792  H     
41   H        16.5126   -6.1316   12.2672  H     
42   H        20.4838   -5.6936   11.2553  H     
43   H        22.4726   -5.0953   10.0876  H     
@<TRIPOS>BOND
     1    1    2 1
     2    2    3 1
     3    3    4 1
     4    4    5 ar
     5    5    6 ar
     6    6    7 ar
     7    7    8 1
     8    8    9 1
     9    9   10 ar
    10   10   11 1
    11   11   12 1
    12    6   12 1
    13   11   13 2
    14   10   14 ar
    15   14   15 ar
    16   15   16 ar
    17   16   17 1
    18   17   18 ar
    19   18   19 ar
    20   19   20 am
    21   20   21 1
    22   20   22 2
    23   19   23 ar
    24   23   24 ar
    25   24   25 ar
    26   17   25 ar
    27   16   26 ar
    28    9   26 ar
    29    7   27 ar
    30   27   28 ar
    31    4   28 ar
    32    2   29 2
    33    3   30 1
    34    3   31 1
    35    5   32 1
    36    8   33 1
    37   12   34 1
    38   14   35 1
    39   15   36 1
    40   18   37 1
    41   23   38 1
    42   24   39 1
    43   25   40 1
    44   26   41 1
    45   27   42 1
    46   28   43 1
@<TRIPOS>PROPERTY_DATA
  Total_Score	| 6.4797
  Crash		| -0.5519
  Polar		| 2.4471
  FragIndex	| 1
  FragRMSD	| 0.235

