@<TRIPOS>MOLECULE
BindingDB_91937
 49 52 0 0 0
SMALL
NO_CHARGES


@<TRIPOS>ATOM
1    C        22.7078   -4.6006    4.4426  C     
2    O        22.4786   -3.8980    5.6658  O     
3    C        23.1238   -4.1346    6.8405  C     
4    O        24.0850   -5.0824    6.9211  O     
5    C        22.8339   -3.2796    8.0032  C     
6    C        21.5944   -3.7034    8.7097  C     
7    C        21.6314   -4.6647    9.7463  C     
8    C        20.4594   -5.0075   10.4445  C     
9    C        19.2091   -4.4315   10.1098  C     
10   N        18.1552   -4.8779   10.8293  N     
11   C        16.8073   -4.6617   10.7315  C     
12   C        16.0438   -5.4821   11.5951  C     
13   C        14.6316   -5.4158   11.6449  C     
14   C        13.9851   -4.5218   10.7740  C     
15   C        14.7206   -3.7013    9.9197  C     
16   C        16.1426   -3.7381    9.8739  C     
17   C        16.7975   -2.8591    9.0077  C     
18   O        16.1584   -2.0106    8.3989  O     
19   N        18.0678   -2.7872    8.6744  N     
20   C        19.1643   -3.4680    9.0718  C     
21   C        20.3524   -3.1207    8.3866  C     
22   C        13.8678   -6.2765   12.4848  C     
23   C        12.6999   -5.8193   13.1538  C     
24   C        11.8890   -6.6988   13.9005  C     
25   C        12.2351   -8.0624   14.0228  C     
26   O        11.3634   -8.8608   14.7288  O     
27   C        11.9410   -9.9381   15.5042  C     
28   C        13.3941   -8.5375   13.3645  C     
29   C        14.1947   -7.6514   12.6144  C     
30   H        23.7315   -4.4322    4.1007  H     
31   H        22.0151   -4.2326    3.6806  H     
32   H        22.5422   -5.6676    4.5899  H     
33   H        23.6767   -3.3008    8.7023  H     
34   H        22.7538   -2.2488    7.6450  H     
35   H        22.5227   -5.0990   10.0040  H     
36   H        20.5309   -5.6975   11.1981  H     
37   H        18.4000   -5.5265   11.5120  H     
38   H        16.5251   -6.1423   12.2158  H     
39   H        12.9643   -4.4779   10.7355  H     
40   H        14.1935   -3.0786    9.3079  H     
41   H        18.2599   -2.1075    8.0051  H     
42   H        20.3075   -2.4298    7.6260  H     
43   H        12.4115   -4.8298   13.0992  H     
44   H        11.0283   -6.3512   14.3405  H     
45   H        11.2004  -10.2800   16.2108  H     
46   H        12.8276   -9.6072   16.0506  H     
47   H        12.2057  -10.7690   14.8431  H     
48   H        13.6424   -9.5315   13.4114  H     
49   H        15.0141   -8.0274   12.1245  H     
@<TRIPOS>BOND
     1    1    2 1
     2    2    3 1
     3    3    4 2
     4    3    5 1
     5    5    6 1
     6    6    7 ar
     7    7    8 ar
     8    8    9 ar
     9    9   10 1
    10   10   11 1
    11   11   12 ar
    12   12   13 ar
    13   13   14 ar
    14   14   15 ar
    15   15   16 ar
    16   11   16 ar
    17   16   17 1
    18   17   18 2
    19   17   19 1
    20   19   20 1
    21    9   20 ar
    22   20   21 ar
    23    6   21 ar
    24   13   22 1
    25   22   23 ar
    26   23   24 ar
    27   24   25 ar
    28   25   26 1
    29   26   27 1
    30   25   28 ar
    31   28   29 ar
    32   22   29 ar
    33    1   30 1
    34    1   31 1
    35    1   32 1
    36    5   33 1
    37    5   34 1
    38    7   35 1
    39    8   36 1
    40   10   37 1
    41   12   38 1
    42   14   39 1
    43   15   40 1
    44   19   41 1
    45   21   42 1
    46   23   43 1
    47   24   44 1
    48   27   45 1
    49   27   46 1
    50   27   47 1
    51   28   48 1
    52   29   49 1
@<TRIPOS>PROPERTY_DATA
  Total_Score	| 8.0719
  Crash		| -0.5871
  Polar		| 3.4745
  FragIndex	| 1
  FragRMSD	| 0.779

