@<TRIPOS>MOLECULE
BindingDB_91867
 50 54 0 0 0
SMALL
NO_CHARGES


@<TRIPOS>ATOM
1    C        22.2052   -4.7141    4.2968  C     
2    O        22.2914   -3.9640    5.5046  O     
3    C        23.0146   -4.3152    6.6057  C     
4    O        23.6928   -5.4875    6.6599  O     
5    C        23.0173   -3.4303    7.7845  C     
6    C        21.8589   -3.7306    8.6638  C     
7    C        21.9573   -4.6663    9.7141  C     
8    C        20.8599   -4.9048   10.5556  C     
9    C        19.6245   -4.2552   10.3440  C     
10   N        18.6437   -4.5836   11.2134  N     
11   C        17.2934   -4.5421   11.0466  C     
12   C        16.5760   -5.3336   11.9679  C     
13   C        15.2262   -5.7075   11.7980  C     
14   C        14.6307   -5.2651   10.5903  C     
15   C        15.2637   -4.3319    9.7523  C     
16   C        16.5883   -3.9031   10.0012  C     
17   C        17.1243   -2.8471    9.2666  C     
18   O        16.3718   -1.9879    8.8252  O     
19   N        18.3918   -2.6140    8.9850  N     
20   C        19.5017   -3.3405    9.2700  C     
21   C        20.6277   -3.0693    8.4633  C     
22   C        14.4549   -6.4304   12.7967  C     
23   C        13.1454   -5.9234   13.0456  C     
24   C        12.2447   -6.5383   13.9235  C     
25   C        12.6471   -7.6525   14.6569  C     
26   C        13.9558   -8.1493   14.5249  C     
27   C        14.3420   -9.2369   15.3430  C     
28   N        15.5909   -9.7438   15.2492  N     
29   C        16.4997   -9.2536   14.3790  C     
30   C        16.1579   -8.1870   13.5309  C     
31   C        14.8774   -7.5654   13.5876  C     
32   H        21.7724   -5.6904    4.5055  H     
33   H        23.1949   -4.8298    3.8545  H     
34   H        21.5674   -4.1873    3.5895  H     
35   H        23.9682   -3.5573    8.3076  H     
36   H        22.9657   -2.3838    7.4708  H     
37   H        22.8347   -5.1615    9.8877  H     
38   H        20.9684   -5.5803   11.3143  H     
39   H        18.9390   -5.1344   11.9579  H     
40   H        17.0746   -5.6565   12.7814  H     
41   H        13.6886   -5.5654   10.3364  H     
42   H        14.7427   -3.9739    8.9484  H     
43   H        18.5466   -1.8417    8.4166  H     
44   H        20.5517   -2.3793    7.7098  H     
45   H        12.8107   -5.0752   12.5859  H     
46   H        11.3011   -6.1594   14.0450  H     
47   H        11.9842   -8.0810   15.3076  H     
48   H        13.6953   -9.6573   16.0151  H     
49   H        17.4330   -9.6693   14.3390  H     
50   H        16.8844   -7.8909   12.9004  H     
@<TRIPOS>BOND
     1    1    2 1
     2    2    3 1
     3    3    4 2
     4    3    5 1
     5    5    6 1
     6    6    7 ar
     7    7    8 ar
     8    8    9 ar
     9    9   10 1
    10   10   11 1
    11   11   12 ar
    12   12   13 ar
    13   13   14 ar
    14   14   15 ar
    15   15   16 ar
    16   11   16 ar
    17   16   17 1
    18   17   18 2
    19   17   19 1
    20   19   20 1
    21    9   20 ar
    22   20   21 ar
    23    6   21 ar
    24   13   22 1
    25   22   23 ar
    26   23   24 ar
    27   24   25 ar
    28   25   26 ar
    29   26   27 ar
    30   27   28 ar
    31   28   29 ar
    32   29   30 ar
    33   30   31 ar
    34   22   31 ar
    35   26   31 ar
    36    1   32 1
    37    1   33 1
    38    1   34 1
    39    5   35 1
    40    5   36 1
    41    7   37 1
    42    8   38 1
    43   10   39 1
    44   12   40 1
    45   14   41 1
    46   15   42 1
    47   19   43 1
    48   21   44 1
    49   23   45 1
    50   24   46 1
    51   25   47 1
    52   27   48 1
    53   29   49 1
    54   30   50 1
@<TRIPOS>PROPERTY_DATA
  Total_Score	| 6.8496
  Crash		| -1.0103
  Polar		| 2.5788
  FragIndex	| 1
  FragRMSD	| 0.399

