@<TRIPOS>MOLECULE
BindingDB_91860
 37 39 0 0 0
SMALL
NO_CHARGES


@<TRIPOS>ATOM
1    C        22.6925   -4.5712    4.4073  C     
2    O        22.5157   -3.8310    5.6144  O     
3    C        23.0713   -4.1154    6.8210  C     
4    O        23.8611   -5.2024    6.9826  O     
5    C        22.8139   -3.2193    7.9599  C     
6    C        21.6095   -3.6446    8.7182  C     
7    C        21.7024   -4.5743    9.7747  C     
8    C        20.5595   -4.9322   10.5099  C     
9    C        19.2909   -4.3871   10.2028  C     
10   N        18.2739   -4.8223   10.9777  N     
11   C        16.9249   -4.6355   10.9249  C     
12   C        16.2249   -5.4353   11.8617  C     
13   C        14.8221   -5.4343   11.9302  C     
14   N        14.1802   -6.2141   12.8182  N     
15   C        14.0955   -4.6166   11.0548  C     
16   C        14.7740   -3.8022   10.1349  C     
17   C        16.1964   -3.7795   10.0465  C     
18   C        16.7967   -2.9141    9.1203  C     
19   O        16.1133   -2.0974    8.5160  O     
20   N        18.0587   -2.8175    8.7504  N     
21   C        19.1838   -3.4620    9.1383  C     
22   C        20.3419   -3.1049    8.4126  C     
23   H        23.7412   -4.5618    4.1057  H     
24   H        22.0926   -4.1103    3.6218  H     
25   H        22.3628   -5.6013    4.5440  H     
26   H        22.6826   -2.2035    7.5764  H     
27   H        23.6854   -3.1932    8.6177  H     
28   H        22.6064   -4.9828   10.0266  H     
29   H        20.6635   -5.6038   11.2768  H     
30   H        18.5565   -5.4334   11.6772  H     
31   H        16.7408   -6.0476   12.5025  H     
32   H        14.6851   -6.7814   13.4216  H     
33   H        13.2109   -6.2156   12.8550  H     
34   H        13.0723   -4.6070   11.0837  H     
35   H        14.1964   -3.2223    9.5189  H     
36   H        18.2136   -2.1556    8.0551  H     
37   H        20.2625   -2.4345    7.6415  H     
@<TRIPOS>BOND
     1    1    2 1
     2    2    3 1
     3    3    4 2
     4    3    5 1
     5    5    6 1
     6    6    7 ar
     7    7    8 ar
     8    8    9 ar
     9    9   10 1
    10   10   11 1
    11   11   12 ar
    12   12   13 ar
    13   13   14 1
    14   13   15 ar
    15   15   16 ar
    16   16   17 ar
    17   11   17 ar
    18   17   18 1
    19   18   19 2
    20   18   20 1
    21   20   21 1
    22    9   21 ar
    23   21   22 ar
    24    6   22 ar
    25    1   23 1
    26    1   24 1
    27    1   25 1
    28    5   26 1
    29    5   27 1
    30    7   28 1
    31    8   29 1
    32   10   30 1
    33   12   31 1
    34   14   32 1
    35   14   33 1
    36   15   34 1
    37   16   35 1
    38   20   36 1
    39   22   37 1
@<TRIPOS>PROPERTY_DATA
  Total_Score	| 5.5111
  Crash		| -0.3722
  Polar		| 2.1698
  FragIndex	| 1
  FragRMSD	| 0.739

