@<TRIPOS>MOLECULE
BindingDB_91863
 38 41 0 0 0
SMALL
NO_CHARGES


@<TRIPOS>ATOM
1    Cl       15.4943   -8.7638   18.1564  Cl    
2    C        15.1876   -7.9277   16.7070  C     
3    C        16.2428   -7.3746   15.9528  C     
4    C        15.9648   -6.6671   14.7734  C     
5    C        14.6583   -6.4985   14.2809  C     
6    N        14.3226   -5.8781   13.1163  N     
7    C        15.0578   -5.3346   12.1015  C     
8    C        14.3015   -4.6493   11.1130  C     
9    C        14.9203   -3.9061   10.0977  C     
10   C        16.3512   -3.8157    9.9851  C     
11   C        16.9201   -2.9220    9.0742  C     
12   O        16.1969   -2.1484    8.4596  O     
13   N        18.1888   -2.7612    8.7512  N     
14   C        19.3179   -3.4271    9.0878  C     
15   C        20.4582   -3.0528    8.3300  C     
16   C        21.7196   -3.6009    8.6065  C     
17   C        21.8627   -4.5372    9.6389  C     
18   C        20.7310   -4.9568   10.3679  C     
19   C        19.4593   -4.3891   10.1061  C     
20   N        18.4578   -4.8250   10.8930  N     
21   C        17.1072   -4.6202   10.8920  C     
22   C        16.4630   -5.3216   11.9262  C     
23   C        13.5915   -7.0166   15.0795  C     
24   C        13.8570   -7.7165   16.2805  C     
25   H        17.2061   -7.4991   16.2749  H     
26   H        16.7318   -6.2507   14.3362  H     
27   H        13.3736   -5.7667   12.9987  H     
28   H        13.2718   -4.6789   11.1471  H     
29   H        14.3059   -3.4171    9.4197  H     
30   H        18.3356   -2.0474    8.1159  H     
31   H        20.3748   -2.3751    7.5721  H     
32   H        22.5318   -3.3032    8.0691  H     
33   H        22.7912   -4.9117    9.8758  H     
34   H        20.8543   -5.6631   11.1077  H     
35   H        18.7399   -5.4762   11.5440  H     
36   H        17.0594   -5.8104   12.5495  H     
37   H        12.6067   -6.8621   14.8187  H     
38   H        13.0664   -8.0606   16.8618  H     
@<TRIPOS>BOND
     1    1    2 1
     2    2    3 ar
     3    3    4 ar
     4    4    5 ar
     5    5    6 1
     6    6    7 1
     7    7    8 ar
     8    8    9 ar
     9    9   10 ar
    10   10   11 1
    11   11   12 2
    12   11   13 1
    13   13   14 1
    14   14   15 ar
    15   15   16 ar
    16   16   17 ar
    17   17   18 ar
    18   18   19 ar
    19   14   19 ar
    20   19   20 1
    21   20   21 1
    22   10   21 ar
    23   21   22 ar
    24    7   22 ar
    25    5   23 ar
    26   23   24 ar
    27    2   24 ar
    28    3   25 1
    29    4   26 1
    30    6   27 1
    31    8   28 1
    32    9   29 1
    33   13   30 1
    34   15   31 1
    35   16   32 1
    36   17   33 1
    37   18   34 1
    38   20   35 1
    39   22   36 1
    40   23   37 1
    41   24   38 1
@<TRIPOS>PROPERTY_DATA
  Total_Score	| 5.3418
  Crash		| -0.3902
  Polar		| 2.1291
  FragIndex	| 1
  FragRMSD	| 0.148

