@<TRIPOS>MOLECULE
BindingDB_91961
 32 34 0 0 0
SMALL
NO_CHARGES


@<TRIPOS>ATOM
1    O        22.7406   -2.1092    7.3131  O     
2    C        22.7656   -3.4534    7.8078  C     
3    C        22.7721   -4.4257    6.6935  C     
4    O        22.0042   -4.2499    5.5932  O     
5    O        23.6565   -5.4544    6.7141  O     
6    C        21.5692   -3.7322    8.6588  C     
7    C        21.6816   -4.5950    9.7772  C     
8    C        20.5537   -4.8997   10.5568  C     
9    C        19.2903   -4.3563   10.2413  C     
10   N        18.2811   -4.7966   11.0096  N     
11   C        16.9313   -4.6085   10.9463  C     
12   C        16.2358   -5.4175   11.8769  C     
13   C        14.8299   -5.3905   11.9746  C     
14   Cl       14.0315   -6.3727   13.0942  Cl    
15   C        14.1057   -4.5540   11.1213  C     
16   C        14.7782   -3.7497   10.1977  C     
17   C        16.2014   -3.7607   10.0620  C     
18   C        16.7927   -2.9050    9.1327  C     
19   O        16.1123   -2.1145    8.5022  O     
20   N        18.0495   -2.8178    8.7569  N     
21   C        19.1706   -3.4670    9.1395  C     
22   C        20.3127   -3.1716    8.3639  C     
23   H        23.1619   -1.5511    8.0234  H     
24   H        23.6876   -3.5924    8.3871  H     
25   H        22.5834   -5.0219   10.0091  H     
26   H        20.6701   -5.5491   11.3346  H     
27   H        18.5626   -5.4205   11.7078  H     
28   H        16.7499   -6.0441   12.5184  H     
29   H        13.0767   -4.5404   11.1551  H     
30   H        14.2034   -3.1648    9.5826  H     
31   H        18.2160   -2.1625    8.0592  H     
32   H        20.2189   -2.5411    7.5628  H     
@<TRIPOS>BOND
     1    1    2 1
     2    2    3 1
     3    3    4 2
     4    3    5 1
     5    2    6 1
     6    6    7 ar
     7    7    8 ar
     8    8    9 ar
     9    9   10 1
    10   10   11 1
    11   11   12 ar
    12   12   13 ar
    13   13   14 1
    14   13   15 ar
    15   15   16 ar
    16   16   17 ar
    17   11   17 ar
    18   17   18 1
    19   18   19 2
    20   18   20 1
    21   20   21 1
    22    9   21 ar
    23   21   22 ar
    24    6   22 ar
    25    1   23 1
    26    2   24 1
    27    7   25 1
    28    8   26 1
    29   10   27 1
    30   12   28 1
    31   15   29 1
    32   16   30 1
    33   20   31 1
    34   22   32 1
@<TRIPOS>PROPERTY_DATA
  Total_Score	| 4.5763
  Crash		| -0.4427
  Polar		| 2.5639
  FragIndex	| 1
  FragRMSD	| 0.155

