@<TRIPOS>MOLECULE
BindingDB_91853
 55 58 0 0 0
SMALL
NO_CHARGES


@<TRIPOS>ATOM
1    C        25.1923   -5.2972    7.4821  C     
2    O        24.1466   -5.0161    6.5445  O     
3    C        23.1582   -4.0826    6.6054  C     
4    O        22.2880   -4.0340    5.5688  O     
5    C        22.9651   -3.1248    7.7148  C     
6    C        21.7775   -3.5144    8.5132  C     
7    C        21.9027   -4.4471    9.5651  C     
8    C        20.7826   -4.8174   10.3206  C     
9    C        19.5093   -4.2792   10.0388  C     
10   N        18.5328   -4.7301   10.8497  N     
11   C        17.1880   -4.5666   10.8556  C     
12   C        16.5667   -5.3721   11.8317  C     
13   C        15.1709   -5.3832   12.0035  C     
14   C        14.3604   -4.5708   11.1763  C     
15   C        12.8805   -4.5409   11.3318  C     
16   C        14.9885   -3.7725   10.1946  C     
17   C        16.4048   -3.7325   10.0118  C     
18   C        16.9503   -2.8686    9.0468  C     
19   O        16.2170   -2.0759    8.4712  O     
20   N        18.1991   -2.7459    8.6226  N     
21   C        19.3564   -3.3594    8.9757  C     
22   C        20.4964   -2.9910    8.2262  C     
23   C        14.6396   -6.2264   13.0041  C     
24   C        14.5205   -5.7675   14.3303  C     
25   C        13.9689   -6.6051   15.3134  C     
26   C        13.5584   -7.9098   14.9818  C     
27   C        13.7336   -8.4167   13.6711  C     
28   N        13.4480   -9.6801   13.2216  N     
29   C        13.2134  -10.8317   13.8334  C     
30   O        13.0628  -11.7827   13.0801  O     
31   C        13.1484  -11.0815   15.2564  C     
32   C        14.2675   -7.5508   12.6881  C     
33   H        24.7758   -5.6279    8.4319  H     
34   H        25.8160   -6.0951    7.0817  H     
35   H        25.8138   -4.4137    7.6465  H     
36   H        22.8450   -2.1305    7.2759  H     
37   H        23.8381   -3.0728    8.3692  H     
38   H        22.8116   -4.8532    9.8001  H     
39   H        20.9069   -5.4957   11.0799  H     
40   H        18.8573   -5.3301   11.5395  H     
41   H        17.1401   -5.9739   12.4328  H     
42   H        12.4743   -5.5392   11.1670  H     
43   H        12.6266   -4.2154   12.3415  H     
44   H        12.3979   -3.8602   10.6289  H     
45   H        14.3872   -3.2006    9.5945  H     
46   H        18.3052   -2.0894    7.9146  H     
47   H        20.3947   -2.3309    7.4495  H     
48   H        14.8230   -4.8238   14.5837  H     
49   H        13.8674   -6.2638   16.2722  H     
50   H        13.1345   -8.4671   15.7173  H     
51   H        13.4931   -9.7660   12.2572  H     
52   H        14.0495  -10.7036   15.7407  H     
53   H        13.0744  -12.1470   15.4793  H     
54   H        12.2698  -10.5945   15.6799  H     
55   H        14.3947   -7.8905   11.7273  H     
@<TRIPOS>BOND
     1    1    2 1
     2    2    3 1
     3    3    4 2
     4    3    5 1
     5    5    6 1
     6    6    7 ar
     7    7    8 ar
     8    8    9 ar
     9    9   10 1
    10   10   11 1
    11   11   12 ar
    12   12   13 ar
    13   13   14 ar
    14   14   15 1
    15   14   16 ar
    16   16   17 ar
    17   11   17 ar
    18   17   18 1
    19   18   19 2
    20   18   20 1
    21   20   21 1
    22    9   21 ar
    23   21   22 ar
    24    6   22 ar
    25   13   23 1
    26   23   24 ar
    27   24   25 ar
    28   25   26 ar
    29   26   27 ar
    30   27   28 1
    31   28   29 am
    32   29   30 2
    33   29   31 1
    34   27   32 ar
    35   23   32 ar
    36    1   33 1
    37    1   34 1
    38    1   35 1
    39    5   36 1
    40    5   37 1
    41    7   38 1
    42    8   39 1
    43   10   40 1
    44   12   41 1
    45   15   42 1
    46   15   43 1
    47   15   44 1
    48   16   45 1
    49   20   46 1
    50   22   47 1
    51   24   48 1
    52   25   49 1
    53   26   50 1
    54   28   51 1
    55   31   52 1
    56   31   53 1
    57   31   54 1
    58   32   55 1
@<TRIPOS>PROPERTY_DATA
  Total_Score	| 5.9418
  Crash		| -1.0860
  Polar		| 2.1822
  FragIndex	| 1
  FragRMSD	| 0.228

