@<TRIPOS>MOLECULE
BindingDB_91848
 51 55 0 0 0
SMALL
NO_CHARGES


@<TRIPOS>ATOM
1    C        24.4767   -6.2003    7.3317  C     
2    O        23.4946   -5.5698    6.5036  O     
3    C        22.7763   -4.4245    6.6535  C     
4    O        21.9189   -4.1252    5.6520  O     
5    C        22.8182   -3.5420    7.8394  C     
6    C        21.6558   -3.7977    8.7295  C     
7    C        21.7457   -4.6797    9.8260  C     
8    C        20.6332   -4.8988   10.6552  C     
9    C        19.3929   -4.2726   10.3988  C     
10   N        18.3966   -4.5942   11.2530  N     
11   C        17.0459   -4.5310   11.0883  C     
12   C        16.3252   -5.3390   11.9960  C     
13   C        14.9571   -5.6568   11.8613  C     
14   C        14.3218   -5.0901   10.7277  C     
15   C        14.9707   -4.1614    9.8963  C     
16   C        16.3372   -3.8319   10.0804  C     
17   C        16.9143   -2.8226    9.3069  C     
18   O        16.1976   -1.9656    8.8032  O     
19   N        18.1816   -2.6675    8.9779  N     
20   C        19.2882   -3.3859    9.2997  C     
21   C        20.4248   -3.1452    8.4954  C     
22   C        14.2206   -6.4687   12.8182  C     
23   C        12.9311   -5.9684   13.1649  C     
24   C        12.0286   -6.6843   13.9570  C     
25   C        12.4109   -7.9071   14.5020  C     
26   C        13.7083   -8.4088   14.2850  C     
27   C        14.0541   -9.6234   14.9216  C     
28   C        15.3307  -10.1726   14.7567  C     
29   C        16.2641   -9.5154   13.9523  C     
30   C        15.9214   -8.3122   13.3141  C     
31   C        14.6386   -7.6987   13.4515  C     
32   H        24.1001   -7.1720    7.6513  H     
33   H        25.3843   -6.3476    6.7451  H     
34   H        24.7261   -5.6142    8.2131  H     
35   H        22.7940   -2.4978    7.5181  H     
36   H        23.7676   -3.6804    8.3585  H     
37   H        22.6241   -5.1588   10.0383  H     
38   H        20.7310   -5.5484   11.4384  H     
39   H        18.6819   -5.1349   12.0068  H     
40   H        16.8273   -5.7106   12.7868  H     
41   H        13.3487   -5.3182   10.5134  H     
42   H        14.4314   -3.7385    9.1349  H     
43   H        18.3595   -1.9103    8.3950  H     
44   H        20.3583   -2.4838    7.7167  H     
45   H        12.6096   -5.0577   12.8280  H     
46   H        11.0947   -6.3094   14.1445  H     
47   H        11.7357   -8.4192   15.0747  H     
48   H        13.3834  -10.1204   15.5162  H     
49   H        15.5809  -11.0456   15.2255  H     
50   H        17.2010   -9.9090   13.8387  H     
51   H        16.6718   -7.9041   12.7713  H     
@<TRIPOS>BOND
     1    1    2 1
     2    2    3 1
     3    3    4 2
     4    3    5 1
     5    5    6 1
     6    6    7 ar
     7    7    8 ar
     8    8    9 ar
     9    9   10 1
    10   10   11 1
    11   11   12 ar
    12   12   13 ar
    13   13   14 ar
    14   14   15 ar
    15   15   16 ar
    16   11   16 ar
    17   16   17 1
    18   17   18 2
    19   17   19 1
    20   19   20 1
    21    9   20 ar
    22   20   21 ar
    23    6   21 ar
    24   13   22 1
    25   22   23 ar
    26   23   24 ar
    27   24   25 ar
    28   25   26 ar
    29   26   27 ar
    30   27   28 ar
    31   28   29 ar
    32   29   30 ar
    33   30   31 ar
    34   22   31 ar
    35   26   31 ar
    36    1   32 1
    37    1   33 1
    38    1   34 1
    39    5   35 1
    40    5   36 1
    41    7   37 1
    42    8   38 1
    43   10   39 1
    44   12   40 1
    45   14   41 1
    46   15   42 1
    47   19   43 1
    48   21   44 1
    49   23   45 1
    50   24   46 1
    51   25   47 1
    52   27   48 1
    53   28   49 1
    54   29   50 1
    55   30   51 1
@<TRIPOS>PROPERTY_DATA
  Total_Score	| 6.8552
  Crash		| -0.6473
  Polar		| 2.5529
  FragIndex	| 1
  FragRMSD	| 0.313

