@<TRIPOS>MOLECULE
BindingDB_91851
 45 48 0 0 0
SMALL
NO_CHARGES


@<TRIPOS>ATOM
1    C        22.4746   -4.7163    4.4164  C     
2    O        22.3007   -4.0575    5.6734  O     
3    C        23.1668   -3.9937    6.7181  C     
4    O        24.3697   -4.6090    6.6536  O     
5    C        22.8220   -3.1846    7.9022  C     
6    C        21.6030   -3.6842    8.5913  C     
7    C        21.6963   -4.6936    9.5768  C     
8    C        20.5446   -5.1276   10.2578  C     
9    C        19.2776   -4.5656    9.9849  C     
10   N        18.2749   -5.0439   10.7515  N     
11   C        16.9540   -4.7327   10.8601  C     
12   C        16.3241   -5.4176   11.9251  C     
13   C        14.9538   -5.2616   12.2234  C     
14   C        14.2012   -4.4091   11.3866  C     
15   C        14.8179   -3.6943   10.3483  C     
16   C        16.2117   -3.8138   10.0680  C     
17   C        16.7750   -3.0130    9.0619  C     
18   O        16.0686   -2.2065    8.4655  O     
19   N        18.0215   -2.9437    8.6202  N     
20   C        19.1636   -3.5779    8.9826  C     
21   C        20.3285   -3.1574    8.2936  C     
22   C        14.3709   -5.8920   13.3396  C     
23   C        13.0990   -6.3697   13.2886  C     
24   C        12.5571   -7.0007   14.3733  C     
25   O        11.4146   -7.4372   14.3520  O     
26   N        13.2803   -7.1562   15.4761  N     
27   C        14.5295   -6.6622   15.5706  C     
28   C        15.0847   -6.0302   14.5199  C     
29   H        23.4141   -5.2656    4.3563  H     
30   H        21.6518   -5.4141    4.2634  H     
31   H        22.4551   -3.9682    3.6240  H     
32   H        23.6659   -3.1915    8.5963  H     
33   H        22.6814   -2.1434    7.5897  H     
34   H        22.6012   -5.0923    9.8263  H     
35   H        20.6525   -5.8451   10.9824  H     
36   H        18.5620   -5.7372   11.3635  H     
37   H        16.8736   -6.0689   12.4979  H     
38   H        13.2061   -4.2531   11.5648  H     
39   H        14.2206   -3.0734    9.8018  H     
40   H        18.1484   -2.2974    7.9069  H     
41   H        20.2512   -2.4363    7.5646  H     
42   H        12.5679   -6.3187   12.4433  H     
43   H        12.8766   -7.5656   16.2561  H     
44   H        15.0299   -6.7588   16.4275  H     
45   H        15.9931   -5.6373   14.6212  H     
@<TRIPOS>BOND
     1    1    2 1
     2    2    3 1
     3    3    4 2
     4    3    5 1
     5    5    6 1
     6    6    7 ar
     7    7    8 ar
     8    8    9 ar
     9    9   10 1
    10   10   11 1
    11   11   12 ar
    12   12   13 ar
    13   13   14 ar
    14   14   15 ar
    15   15   16 ar
    16   11   16 ar
    17   16   17 1
    18   17   18 2
    19   17   19 1
    20   19   20 1
    21    9   20 ar
    22   20   21 ar
    23    6   21 ar
    24   13   22 1
    25   22   23 2
    26   23   24 1
    27   24   25 2
    28   24   26 1
    29   26   27 1
    30   27   28 2
    31   22   28 1
    32    1   29 1
    33    1   30 1
    34    1   31 1
    35    5   32 1
    36    5   33 1
    37    7   34 1
    38    8   35 1
    39   10   36 1
    40   12   37 1
    41   14   38 1
    42   15   39 1
    43   19   40 1
    44   21   41 1
    45   23   42 1
    46   26   43 1
    47   27   44 1
    48   28   45 1
@<TRIPOS>PROPERTY_DATA
  Total_Score	| 8.0820
  Crash		| -0.8273
  Polar		| 4.2096
  FragIndex	| 1
  FragRMSD	| 0.780

