@<TRIPOS>MOLECULE
BindingDB_91925
 43 46 0 0 0
SMALL
NO_CHARGES


@<TRIPOS>ATOM
1    N        13.5954   -7.3439   16.3043  N     
2    C        13.8539   -7.5761   15.0051  C     
3    C        13.4368   -8.7915   14.4257  C     
4    C        13.7113   -9.0577   13.0728  C     
5    C        14.3679   -8.0957   12.2844  C     
6    C        14.7397   -6.8524   12.8398  C     
7    C        14.5090   -6.6101   14.2133  C     
8    C        15.2970   -5.8552   12.0103  C     
9    C        14.4588   -5.0101   11.2600  C     
10   C        15.0169   -4.0605   10.3902  C     
11   C        16.4252   -3.9347   10.2077  C     
12   C        16.9015   -2.9818    9.2952  C     
13   O        16.1313   -2.1625    8.8087  O     
14   N        18.1179   -2.8146    8.8127  N     
15   C        19.2988   -3.4260    9.0629  C     
16   C        20.3649   -3.0188    8.2266  C     
17   C        21.6763   -3.5065    8.4022  C     
18   C        22.7861   -3.0546    7.5195  C     
19   C        23.0637   -4.0105    6.4286  C     
20   O        22.0551   -4.5515    5.6909  O     
21   O        24.2967   -4.5569    6.2927  O     
22   C        21.9130   -4.4095    9.4567  C     
23   C        20.8611   -4.8288   10.2883  C     
24   C        19.5448   -4.3595   10.0926  C     
25   N        18.6222   -4.8771   10.9331  N     
26   C        17.2657   -4.7995   10.9683  C     
27   C        16.6907   -5.7311   11.8695  C     
28   H        13.0302   -7.9564   16.7951  H     
29   H        13.9297   -6.5510   16.7484  H     
30   H        12.9486   -9.4948   14.9867  H     
31   H        13.4240   -9.9473   12.6592  H     
32   H        14.5560   -8.3020   11.3008  H     
33   H        14.7795   -5.7144   14.6260  H     
34   H        13.4424   -5.0857   11.3341  H     
35   H        14.3594   -3.4782    9.8641  H     
36   H        18.1796   -2.1154    8.1426  H     
37   H        20.1851   -2.3437    7.4792  H     
38   H        22.5616   -2.0852    7.0603  H     
39   H        23.6864   -2.9179    8.1295  H     
40   H        22.8552   -4.7768    9.6197  H     
41   H        21.0621   -5.4941   11.0391  H     
42   H        18.9957   -5.4812   11.5980  H     
43   H        17.2920   -6.3631   12.4134  H     
@<TRIPOS>BOND
     1    1    2 1
     2    2    3 ar
     3    3    4 ar
     4    4    5 ar
     5    5    6 ar
     6    6    7 ar
     7    2    7 ar
     8    6    8 1
     9    8    9 ar
    10    9   10 ar
    11   10   11 ar
    12   11   12 1
    13   12   13 2
    14   12   14 1
    15   14   15 1
    16   15   16 ar
    17   16   17 ar
    18   17   18 1
    19   18   19 1
    20   19   20 2
    21   19   21 1
    22   17   22 ar
    23   22   23 ar
    24   23   24 ar
    25   15   24 ar
    26   24   25 1
    27   25   26 1
    28   11   26 ar
    29   26   27 ar
    30    8   27 ar
    31    1   28 1
    32    1   29 1
    33    3   30 1
    34    4   31 1
    35    5   32 1
    36    7   33 1
    37    9   34 1
    38   10   35 1
    39   14   36 1
    40   16   37 1
    41   18   38 1
    42   18   39 1
    43   22   40 1
    44   23   41 1
    45   25   42 1
    46   27   43 1
@<TRIPOS>PROPERTY_DATA
  Total_Score	| 7.0610
  Crash		| -0.3566
  Polar		| 3.4115
  FragIndex	| 1
  FragRMSD	| 0.381

