@<TRIPOS>MOLECULE
BindingDB_91901
 40 43 0 0 0
SMALL
NO_CHARGES


@<TRIPOS>ATOM
1    O        16.2533   -1.7818    9.1230  O     
2    C        16.8001   -3.0149    9.2345  C     
3    O        17.7683   -3.1427    8.2811  O     
4    C        16.2914   -3.9330   10.2526  C     
5    C        14.8692   -4.0185   10.3465  C     
6    C        14.2025   -4.7794   11.3227  C     
7    C        14.9338   -5.4909   12.2763  C     
8    Cl       14.1584   -6.4148   13.4670  Cl    
9    C        16.3288   -5.4524   12.2157  C     
10   C        17.0155   -4.7280   11.2082  C     
11   N        18.3468   -4.9498   11.3292  N     
12   C        19.3193   -4.6452   10.4705  C     
13   C        19.0258   -4.0260    9.2533  C     
14   C        20.0644   -3.6316    8.4124  C     
15   C        21.4286   -3.8691    8.7393  C     
16   C        22.3972   -3.3369    7.8754  C     
17   O        22.0638   -2.7867    6.8321  O     
18   N        23.7047   -3.3178    7.9944  N     
19   C        24.5417   -3.7801    8.9408  C     
20   C        25.8869   -3.3734    8.7775  C     
21   C        26.8835   -3.7810    9.6773  C     
22   C        26.5554   -4.6590   10.7184  C     
23   C        25.2333   -5.1173   10.8510  C     
24   C        24.1947   -4.6500   10.0030  C     
25   N        22.9354   -5.0460   10.3319  N     
26   C        21.6974   -4.6436    9.9144  C     
27   C        20.6214   -5.0645   10.7549  C     
28   H        14.2730   -3.5278    9.6829  H     
29   H        13.1784   -4.7961   11.3442  H     
30   H        16.8443   -5.9996   12.9135  H     
31   H        18.6363   -5.3828   12.1439  H     
32   H        18.0591   -3.8354    8.9895  H     
33   H        19.7960   -3.1004    7.5812  H     
34   H        24.1572   -2.8641    7.2647  H     
35   H        26.1523   -2.7507    8.0070  H     
36   H        27.8443   -3.4557    9.5612  H     
37   H        27.2799   -4.9636   11.3708  H     
38   H        25.0323   -5.7769   11.6029  H     
39   H        22.8984   -5.6717   11.0701  H     
40   H        20.7272   -5.6948   11.5195  H     
@<TRIPOS>BOND
     1    1    2 1
     2    2    3 2
     3    2    4 1
     4    4    5 ar
     5    5    6 ar
     6    6    7 ar
     7    7    8 1
     8    7    9 ar
     9    9   10 ar
    10    4   10 ar
    11   10   11 1
    12   11   12 1
    13   12   13 ar
    14   13   14 ar
    15   14   15 ar
    16   15   16 1
    17   16   17 2
    18   16   18 1
    19   18   19 1
    20   19   20 ar
    21   20   21 ar
    22   21   22 ar
    23   22   23 ar
    24   23   24 ar
    25   19   24 ar
    26   24   25 1
    27   25   26 1
    28   15   26 ar
    29   26   27 ar
    30   12   27 ar
    31    5   28 1
    32    6   29 1
    33    9   30 1
    34   11   31 1
    35   13   32 1
    36   14   33 1
    37   18   34 1
    38   20   35 1
    39   21   36 1
    40   22   37 1
    41   23   38 1
    42   25   39 1
    43   27   40 1
@<TRIPOS>PROPERTY_DATA
  Total_Score	| 4.4517
  Crash		| -0.4718
  Polar		| 2.4091
  FragIndex	| 1
  FragRMSD	| 0.595

