@<TRIPOS>MOLECULE
BindingDB_50218734
 26 28 0 0 0
SMALL
NO_CHARGES


@<TRIPOS>ATOM
1    C        14.1970   -4.5064   11.2289  C     
2    C        14.9404   -5.3760   12.0346  C     
3    C        16.3298   -5.4599   11.8660  C     
4    C        14.8496   -3.7252   10.2623  C     
5    N        18.3437   -4.9055   10.8769  N     
6    C        17.0068   -4.6802   10.8947  C     
7    C        16.2618   -3.7844   10.0668  C     
8    C        16.8424   -2.9375    9.1116  C     
9    N        18.0929   -2.8479    8.6996  N     
10   C        19.2373   -3.4687    9.0768  C     
11   C        19.3569   -4.4295   10.1103  C     
12   C        20.6361   -4.9602   10.4063  C     
13   C        21.7777   -4.5568    9.6928  C     
14   C        21.6602   -3.5990    8.6731  C     
15   C        20.3955   -3.0577    8.3730  C     
16   O        16.1412   -2.1325    8.5094  O     
17   Cl       23.0355   -3.0692    7.8392  Cl    
18   H        13.1834   -4.4363   11.3502  H     
19   H        14.4706   -5.9412   12.7478  H     
20   H        16.8468   -6.1094   12.4659  H     
21   H        14.2604   -3.1105    9.6933  H     
22   H        18.6357   -5.5541   11.5401  H     
23   H        18.2263   -2.1964    7.9909  H     
24   H        20.7498   -5.6509   11.1565  H     
25   H        22.6909   -4.9520    9.9289  H     
26   H        20.3232   -2.3498    7.6352  H     
@<TRIPOS>BOND
     1    1    2 2
     2    1    4 1
     3    2    3 1
     4    3    6 2
     5    4    7 2
     6    5    6 1
     7    5   11 1
     8    6    7 1
     9    7    8 1
    10    8    9 1
    11    8   16 2
    12    9   10 1
    13   10   11 2
    14   10   15 1
    15   11   12 1
    16   12   13 2
    17   13   14 1
    18   14   15 2
    19   14   17 1
    20    1   18 1
    21    2   19 1
    22    3   20 1
    23    4   21 1
    24    5   22 1
    25    9   23 1
    26   12   24 1
    27   13   25 1
    28   15   26 1
@<TRIPOS>PROPERTY_DATA
  Total_Score	| 3.3605
  Crash		| -0.2438
  Polar		| 1.1140
  FragIndex	| 1
  FragRMSD	| 0.106

