@<TRIPOS>MOLECULE
BindingDB_91899
 31 33 0 0 0
SMALL
NO_CHARGES


@<TRIPOS>ATOM
1    O        24.0061   -5.0716    6.7640  O     
2    C        23.0469   -4.1073    6.7014  C     
3    O        22.2321   -4.0413    5.6081  O     
4    C        22.8478   -3.1837    7.8297  C     
5    C        21.6518   -3.5925    8.6091  C     
6    C        21.7603   -4.5098    9.6754  C     
7    C        20.6305   -4.8835   10.4135  C     
8    C        19.3595   -4.3536   10.1171  C     
9    N        18.3524   -4.8068   10.8937  N     
10   C        16.9987   -4.6196   10.8700  C     
11   C        16.3259   -5.4267   11.8185  C     
12   C        14.9292   -5.3951   11.9468  C     
13   Cl       14.1495   -6.3362   13.1120  Cl    
14   C        14.1768   -4.5799   11.0924  C     
15   C        14.8358   -3.7773   10.1443  C     
16   C        16.2536   -3.7599   10.0086  C     
17   C        16.8432   -2.8894    9.0802  C     
18   O        16.1338   -2.0764    8.4940  O     
19   N        18.0980   -2.7843    8.6899  N     
20   C        19.2324   -3.4226    9.0565  C     
21   C        20.3775   -3.0689    8.3075  C     
22   H        23.7326   -3.1849    8.4672  H     
23   H        22.7387   -2.1703    7.4449  H     
24   H        22.6749   -4.9028    9.9305  H     
25   H        20.7435   -5.5540   11.1767  H     
26   H        18.6462   -5.4292   11.5780  H     
27   H        16.8563   -6.0457   12.4415  H     
28   H        13.1585   -4.5586   11.1556  H     
29   H        14.2403   -3.2002    9.5414  H     
30   H        18.2289   -2.1162    7.9945  H     
31   H        20.2965   -2.3856    7.5451  H     
@<TRIPOS>BOND
     1    1    2 1
     2    2    3 2
     3    2    4 1
     4    4    5 1
     5    5    6 ar
     6    6    7 ar
     7    7    8 ar
     8    8    9 1
     9    9   10 1
    10   10   11 ar
    11   11   12 ar
    12   12   13 1
    13   12   14 ar
    14   14   15 ar
    15   15   16 ar
    16   10   16 ar
    17   16   17 1
    18   17   18 2
    19   17   19 1
    20   19   20 1
    21    8   20 ar
    22   20   21 ar
    23    5   21 ar
    24    4   22 1
    25    4   23 1
    26    6   24 1
    27    7   25 1
    28    9   26 1
    29   11   27 1
    30   14   28 1
    31   15   29 1
    32   19   30 1
    33   21   31 1
@<TRIPOS>PROPERTY_DATA
  Total_Score	| 5.2121
  Crash		| -0.2646
  Polar		| 2.5431
  FragIndex	| 1
  FragRMSD	| 0.097

