@<TRIPOS>MOLECULE
BindingDB_91929
 46 49 0 0 0
SMALL
NO_CHARGES


@<TRIPOS>ATOM
1    C        24.4195   -5.3150    5.2583  C     
2    O        24.1260   -4.7838    6.5526  O     
3    C        23.0654   -3.9870    6.8621  C     
4    O        22.1658   -3.6454    5.9118  O     
5    C        22.9288   -3.4243    8.2168  C     
6    C        21.6638   -3.8271    8.8802  C     
7    C        21.6632   -4.7701    9.9293  C     
8    C        20.4681   -5.0867   10.5994  C     
9    C        19.2438   -4.4823   10.2395  C     
10   N        18.1743   -4.8842   10.9595  N     
11   C        16.8335   -4.6595   10.8335  C     
12   C        16.0572   -5.4543   11.7139  C     
13   C        14.6447   -5.4381   11.7001  C     
14   C        14.0111   -4.5886   10.7718  C     
15   C        14.7635   -3.7692    9.9260  C     
16   C        16.1872   -3.7744    9.9286  C     
17   C        16.8653   -2.9002    9.0689  C     
18   O        16.2372   -2.0400    8.4637  O     
19   N        18.1470   -2.8376    8.7633  N     
20   C        19.2262   -3.5402    9.1799  C     
21   C        20.4362   -3.2253    8.5190  C     
22   C        13.8720   -6.2874   12.5524  C     
23   C        12.7219   -5.7863   13.2142  C     
24   C        11.9049   -6.6352   13.9834  C     
25   C        12.2368   -7.9957   14.1287  C     
26   C        13.3662   -8.5183   13.4771  C     
27   C        14.1854   -7.6671   12.6982  C     
28   C        13.6338   -9.7892   13.5622  C     
29   N        13.8562  -10.9152   13.6391  N     
30   H        23.5881   -5.9228    4.8918  H     
31   H        24.6076   -4.5009    4.5574  H     
32   H        25.3114   -5.9403    5.3171  H     
33   H        23.7935   -3.7244    8.8181  H     
34   H        22.9658   -2.3337    8.1480  H     
35   H        22.5253   -5.2318   10.2148  H     
36   H        20.5042   -5.7666   11.3648  H     
37   H        18.3977   -5.5174   11.6630  H     
38   H        16.5305   -6.0800   12.3829  H     
39   H        12.9901   -4.5665   10.7047  H     
40   H        14.2385   -3.1767    9.2742  H     
41   H        18.3612   -2.1529    8.1069  H     
42   H        20.4348   -2.5233    7.7785  H     
43   H        12.4634   -4.8034   13.1403  H     
44   H        11.0629   -6.2684   14.4334  H     
45   H        11.6299   -8.5962   14.6922  H     
46   H        14.9989   -8.0475   12.2032  H     
@<TRIPOS>BOND
     1    1    2 1
     2    2    3 1
     3    3    4 2
     4    3    5 1
     5    5    6 1
     6    6    7 ar
     7    7    8 ar
     8    8    9 ar
     9    9   10 1
    10   10   11 1
    11   11   12 ar
    12   12   13 ar
    13   13   14 ar
    14   14   15 ar
    15   15   16 ar
    16   11   16 ar
    17   16   17 1
    18   17   18 2
    19   17   19 1
    20   19   20 1
    21    9   20 ar
    22   20   21 ar
    23    6   21 ar
    24   13   22 1
    25   22   23 ar
    26   23   24 ar
    27   24   25 ar
    28   25   26 ar
    29   26   27 ar
    30   22   27 ar
    31   26   28 1
    32   28   29 3
    33    1   30 1
    34    1   31 1
    35    1   32 1
    36    5   33 1
    37    5   34 1
    38    7   35 1
    39    8   36 1
    40   10   37 1
    41   12   38 1
    42   14   39 1
    43   15   40 1
    44   19   41 1
    45   21   42 1
    46   23   43 1
    47   24   44 1
    48   25   45 1
    49   27   46 1
@<TRIPOS>PROPERTY_DATA
  Total_Score	| 6.6085
  Crash		| -0.5899
  Polar		| 2.1699
  FragIndex	| 1
  FragRMSD	| 0.283

