@<TRIPOS>MOLECULE
BindingDB_91849
 46 49 0 0 0
SMALL
NO_CHARGES


@<TRIPOS>ATOM
1    C        24.5146   -5.9706    5.5848  C     
2    O        24.1630   -4.9017    6.4676  O     
3    C        23.1099   -4.0486    6.3720  C     
4    O        22.2084   -4.1434    5.3660  O     
5    C        22.9111   -3.0201    7.4063  C     
6    C        21.8051   -3.4107    8.3168  C     
7    C        22.0385   -4.3066    9.3806  C     
8    C        20.9882   -4.6912   10.2283  C     
9    C        19.6731   -4.2195   10.0182  C     
10   N        18.7534   -4.7132   10.8718  N     
11   C        17.3942   -4.6764   10.8714  C     
12   C        16.8319   -5.5917   11.7910  C     
13   C        15.4440   -5.7933   11.9028  C     
14   N        15.0417   -6.7669   12.7621  N     
15   C        13.7845   -7.1785   13.0742  C     
16   C        13.4869   -8.5503   12.9233  C     
17   C        12.2096   -9.0220   13.2711  C     
18   N        11.2910   -8.1591   13.7736  N     
19   C        11.5454   -6.8398   13.9626  C     
20   C        12.8072   -6.3204   13.6281  C     
21   C        14.6006   -5.0318   11.0690  C     
22   C        15.1387   -4.0946   10.1734  C     
23   C        16.5420   -3.8912   10.0438  C     
24   C        17.0069   -2.9433    9.1207  C     
25   O        16.2152   -2.1728    8.5925  O     
26   N        18.2315   -2.7390    8.6710  N     
27   C        19.4232   -3.3186    8.9564  C     
28   C        20.4958   -2.9188    8.1266  C     
29   H        25.5191   -5.7930    5.1993  H     
30   H        24.5113   -6.9054    6.1448  H     
31   H        23.8254   -6.0613    4.7435  H     
32   H        23.8260   -2.8743    7.9854  H     
33   H        22.6989   -2.0746    6.9032  H     
34   H        22.9761   -4.6823    9.5453  H     
35   H        21.1922   -5.3433   10.9922  H     
36   H        19.1308   -5.2878   11.5584  H     
37   H        17.4541   -6.1562   12.3816  H     
38   H        15.7536   -7.3060   13.1448  H     
39   H        14.1821   -9.2005   12.5471  H     
40   H        11.9683  -10.0066   13.1490  H     
41   H        10.8223   -6.2337   14.3573  H     
42   H        13.0068   -5.3336   13.8057  H     
43   H        13.5902   -5.1775   11.0715  H     
44   H        14.4748   -3.5823    9.5855  H     
45   H        18.2898   -2.0495    7.9887  H     
46   H        20.3203   -2.2678    7.3547  H     
@<TRIPOS>BOND
     1    1    2 1
     2    2    3 1
     3    3    4 2
     4    3    5 1
     5    5    6 1
     6    6    7 ar
     7    7    8 ar
     8    8    9 ar
     9    9   10 1
    10   10   11 1
    11   11   12 ar
    12   12   13 ar
    13   13   14 1
    14   14   15 1
    15   15   16 ar
    16   16   17 ar
    17   17   18 ar
    18   18   19 ar
    19   19   20 ar
    20   15   20 ar
    21   13   21 ar
    22   21   22 ar
    23   22   23 ar
    24   11   23 ar
    25   23   24 1
    26   24   25 2
    27   24   26 1
    28   26   27 1
    29    9   27 ar
    30   27   28 ar
    31    6   28 ar
    32    1   29 1
    33    1   30 1
    34    1   31 1
    35    5   32 1
    36    5   33 1
    37    7   34 1
    38    8   35 1
    39   10   36 1
    40   12   37 1
    41   14   38 1
    42   16   39 1
    43   17   40 1
    44   19   41 1
    45   20   42 1
    46   21   43 1
    47   22   44 1
    48   26   45 1
    49   28   46 1
@<TRIPOS>PROPERTY_DATA
  Total_Score	| 7.4738
  Crash		| -0.7207
  Polar		| 3.2911
  FragIndex	| 1
  FragRMSD	| 0.428

