@<TRIPOS>MOLECULE
BindingDB_29222
 29 30 0 0 0
SMALL
NO_CHARGES


@<TRIPOS>ATOM
1    C        21.1627  -16.4831  -13.3850  C     
2    C        21.7359  -15.4453  -12.6184  C     
3    C        23.1247  -15.2698  -12.5617  C     
4    C        23.9695  -16.0876  -13.3292  C     
5    C        23.4105  -17.1323  -14.0935  C     
6    C        22.0027  -17.3776  -14.1173  C     
7    C        21.5681  -18.4881  -14.9028  C     
8    N        24.2394  -17.9020  -14.8640  N     
9    C        23.7832  -18.8678  -15.6443  C     
10   C        22.4608  -19.1745  -15.6571  C     
11   O        24.5773  -19.4945  -16.3291  O     
12   C        20.2022  -18.9923  -14.8433  C     
13   O        25.3273  -15.9032  -13.2927  O     
14   C        25.8033  -14.8789  -14.1817  C     
15   O        19.8018  -16.4234  -13.5639  O     
16   C        18.9622  -16.8969  -12.4959  C     
17   H        21.1357  -14.7817  -12.1241  H     
18   H        23.5144  -14.5157  -11.9940  H     
19   H        25.1918  -17.7163  -14.8622  H     
20   H        22.1681  -19.9437  -16.2165  H     
21   H        19.9833  -19.2573  -13.8073  H     
22   H        20.0280  -19.8864  -15.4439  H     
23   H        19.5050  -18.2366  -15.2033  H     
24   H        25.4972  -15.0628  -15.2171  H     
25   H        26.8934  -14.8786  -14.1426  H     
26   H        25.4503  -13.8930  -13.8657  H     
27   H        18.9051  -17.9858  -12.4941  H     
28   H        17.9565  -16.5141  -12.6730  H     
29   H        19.2942  -16.5508  -11.5159  H     
@<TRIPOS>BOND
     1    1    2 1
     2    1    6 2
     3    1   15 1
     4    2    3 2
     5    3    4 1
     6    4    5 2
     7    4   13 1
     8    5    6 1
     9    5    8 1
    10    6    7 1
    11    7   10 2
    12    7   12 1
    13    8    9 1
    14    9   10 1
    15    9   11 2
    16   13   14 1
    17   15   16 1
    18    2   17 1
    19    3   18 1
    20    8   19 1
    21   10   20 1
    22   12   21 1
    23   12   22 1
    24   12   23 1
    25   14   24 1
    26   14   25 1
    27   14   26 1
    28   16   27 1
    29   16   28 1
    30   16   29 1
@<TRIPOS>PROPERTY_DATA
  Total_Score	| 2.8180
  Crash		| -1.1122
  Polar		| 0.0000
  FragIndex	| 1
  FragRMSD	| 0.925

