@<TRIPOS>MOLECULE
BindingDB_29226
 33 34 0 0 0
SMALL
NO_CHARGES


@<TRIPOS>ATOM
1    C        21.8021  -15.9228  -12.9558  C     
2    C        22.8673  -15.0233  -12.7142  C     
3    C        24.1362  -15.2849  -13.2603  C     
4    C        24.3523  -16.4221  -14.0537  C     
5    C        23.3027  -17.3459  -14.2410  C     
6    C        22.0181  -17.1488  -13.6499  C     
7    C        21.0632  -18.1976  -13.8111  C     
8    N        23.5172  -18.4525  -15.0187  N     
9    C        22.5832  -19.3746  -15.2057  C     
10   C        21.3728  -19.2632  -14.5930  C     
11   O        22.8407  -20.3426  -15.9084  O     
12   C        19.8023  -18.2333  -13.0642  C     
13   O        25.5580  -16.5836  -14.6834  O     
14   C        26.5761  -17.1585  -13.8458  C     
15   O        22.6500  -13.9110  -11.9393  O     
16   C        22.7462  -12.6505  -12.6283  C     
17   O        20.5559  -15.4810  -12.6028  O     
18   C        19.9260  -14.7018  -13.6428  C     
19   H        24.8985  -14.6207  -13.1202  H     
20   H        24.3804  -18.5676  -15.4479  H     
21   H        20.7168  -20.0023  -14.7148  H     
22   H        19.9795  -17.9680  -12.0209  H     
23   H        19.3359  -19.2231  -13.0542  H     
24   H        19.0776  -17.5387  -13.4887  H     
25   H        26.8241  -16.4985  -13.0119  H     
26   H        27.4739  -17.2953  -14.4483  H     
27   H        26.2755  -18.1353  -13.4587  H     
28   H        23.7848  -12.4133  -12.8689  H     
29   H        22.3642  -11.8726  -11.9664  H     
30   H        22.1535  -12.6467  -13.5461  H     
31   H        20.6053  -14.2994  -14.4056  H     
32   H        19.4322  -13.8567  -13.1662  H     
33   H        19.1761  -15.3038  -14.1555  H     
@<TRIPOS>BOND
     1    1    2 1
     2    1    6 2
     3    1   17 1
     4    2    3 2
     5    2   15 1
     6    3    4 1
     7    4    5 2
     8    4   13 1
     9    5    6 1
    10    5    8 1
    11    6    7 1
    12    7   10 2
    13    7   12 1
    14    8    9 1
    15    9   10 1
    16    9   11 2
    17   13   14 1
    18   15   16 1
    19   17   18 1
    20    3   19 1
    21    8   20 1
    22   10   21 1
    23   12   22 1
    24   12   23 1
    25   12   24 1
    26   14   25 1
    27   14   26 1
    28   14   27 1
    29   16   28 1
    30   16   29 1
    31   16   30 1
    32   18   31 1
    33   18   32 1
    34   18   33 1
@<TRIPOS>PROPERTY_DATA
  Total_Score	| 2.7309
  Crash		| -1.2777
  Polar		| 0.7980
  FragIndex	| 1
  FragRMSD	| 1.159

