@<TRIPOS>MOLECULE
BindingDB_29229
 40 41 0 0 0
SMALL
NO_CHARGES


@<TRIPOS>ATOM
1    C        21.3351  -15.8658  -13.3075  C     
2    C        22.2096  -14.7720  -13.1344  C     
3    C        23.5169  -14.8437  -13.6349  C     
4    C        23.9579  -16.0009  -14.3141  C     
5    C        23.0974  -17.1263  -14.4923  C     
6    C        21.8154  -17.0957  -13.8469  C     
7    C        21.0832  -18.3121  -13.7644  C     
8    N        23.4101  -18.2603  -15.2809  N     
9    C        22.6218  -19.3552  -15.2233  C     
10   C        21.5408  -19.3982  -14.4162  C     
11   O        22.8171  -20.3692  -15.8919  O     
12   C        19.9098  -18.4836  -12.8992  C     
13   O        25.2429  -15.9702  -14.7882  O     
14   C        26.1943  -16.5941  -13.9142  C     
15   O        21.8684  -13.6427  -12.4271  O     
16   C        21.0614  -12.6820  -13.1330  C     
17   O        20.0126  -15.6670  -12.9928  O     
18   C        19.1551  -15.6369  -14.1563  C     
19   O        24.3758  -13.7867  -13.4596  O     
20   C        24.1122  -12.6773  -14.3450  C     
21   C        24.4901  -18.2342  -16.2568  C     
22   H        21.0612  -20.2607  -14.3119  H     
23   H        20.0553  -17.9716  -11.9480  H     
24   H        19.6955  -19.5287  -12.6622  H     
25   H        19.0234  -18.0818  -13.3790  H     
26   H        26.2485  -16.0812  -12.9526  H     
27   H        27.1727  -16.5318  -14.3858  H     
28   H        25.9518  -17.6437  -13.7441  H     
29   H        21.2942  -12.6054  -14.1982  H     
30   H        21.2157  -11.6995  -12.6812  H     
31   H        20.0134  -12.9372  -13.0185  H     
32   H        19.3694  -14.7895  -14.8029  H     
33   H        18.1255  -15.5517  -13.8043  H     
34   H        19.2326  -16.5481  -14.7614  H     
35   H        24.0052  -12.9901  -15.3914  H     
36   H        24.9519  -11.9888  -14.2762  H     
37   H        23.2068  -12.1477  -14.0322  H     
38   H        24.3992  -17.3464  -16.8848  H     
39   H        24.5252  -19.0932  -16.9382  H     
40   H        25.4507  -18.2387  -15.7442  H     
@<TRIPOS>BOND
     1    1    2 1
     2    1    6 2
     3    1   17 1
     4    2    3 2
     5    2   15 1
     6    3    4 1
     7    3   19 1
     8    4    5 2
     9    4   13 1
    10    5    6 1
    11    5    8 1
    12    6    7 1
    13    7   10 2
    14    7   12 1
    15    8    9 1
    16    8   21 1
    17    9   10 1
    18    9   11 2
    19   13   14 1
    20   15   16 1
    21   17   18 1
    22   19   20 1
    23   10   22 1
    24   12   23 1
    25   12   24 1
    26   12   25 1
    27   14   26 1
    28   14   27 1
    29   14   28 1
    30   16   29 1
    31   16   30 1
    32   16   31 1
    33   18   32 1
    34   18   33 1
    35   18   34 1
    36   20   35 1
    37   20   36 1
    38   20   37 1
    39   21   38 1
    40   21   39 1
    41   21   40 1
@<TRIPOS>PROPERTY_DATA
  Total_Score	| 1.9993
  Crash		| -2.2692
  Polar		| 0.8531
  FragIndex	| 1
  FragRMSD	| 1.070

