@<TRIPOS>MOLECULE
BindingDB_29225
 36 37 0 0 0
SMALL
NO_CHARGES


@<TRIPOS>ATOM
1    C        21.4673  -16.0005  -12.9038  C     
2    C        22.2692  -14.8481  -12.9176  C     
3    C        23.5038  -14.8833  -13.5912  C     
4    C        23.8916  -16.0454  -14.2946  C     
5    C        23.0355  -17.1831  -14.3920  C     
6    C        21.8187  -17.1660  -13.6301  C     
7    C        20.9908  -18.3171  -13.6180  C     
8    N        23.3011  -18.3364  -15.1805  N     
9    C        22.5171  -19.4319  -15.0506  C     
10   C        21.4060  -19.4214  -14.2692  C     
11   O        22.7245  -20.4775  -15.6648  O     
12   C        19.6991  -18.3441  -12.9337  C     
13   O        25.1101  -16.0031  -14.9178  O     
14   C        26.2263  -15.9442  -14.0119  C     
15   O        24.4049  -13.8553  -13.4821  O     
16   O        21.8522  -13.6917  -12.3195  O     
17   C        20.9501  -12.9514  -13.1587  C     
18   C        23.9377  -12.5811  -14.0019  C     
19   C        24.3579  -18.3537  -16.1877  C     
20   H        20.6012  -15.9476  -12.3608  H     
21   H        20.8510  -20.2552  -14.2299  H     
22   H        19.8286  -18.0929  -11.8824  H     
23   H        19.1961  -19.3094  -12.9679  H     
24   H        19.0377  -17.6090  -13.3911  H     
25   H        26.2712  -14.9485  -13.5598  H     
26   H        27.1477  -16.1095  -14.5824  H     
27   H        26.1680  -16.7110  -13.2272  H     
28   H        21.3260  -12.8452  -14.1755  H     
29   H        20.8292  -11.9492  -12.7479  H     
30   H        19.9658  -13.4318  -13.1845  H     
31   H        23.5207  -12.6683  -15.0190  H     
32   H        24.8048  -11.9018  -14.0532  H     
33   H        23.1729  -12.1367  -13.3307  H     
34   H        24.2558  -17.4831  -16.8395  H     
35   H        24.3532  -19.2230  -16.8427  H     
36   H        25.3340  -18.3425  -15.7023  H     
@<TRIPOS>BOND
     1    1    2 1
     2    1    6 2
     3    2    3 2
     4    2   16 1
     5    3    4 1
     6    3   15 1
     7    4    5 2
     8    4   13 1
     9    5    6 1
    10    5    8 1
    11    6    7 1
    12    7   10 2
    13    7   12 1
    14    8    9 1
    15    8   19 1
    16    9   10 1
    17    9   11 2
    18   13   14 1
    19   15   18 1
    20   16   17 1
    21    1   20 1
    22   10   21 1
    23   12   22 1
    24   12   23 1
    25   12   24 1
    26   14   25 1
    27   14   26 1
    28   14   27 1
    29   17   28 1
    30   17   29 1
    31   17   30 1
    32   18   31 1
    33   18   32 1
    34   18   33 1
    35   19   34 1
    36   19   35 1
    37   19   36 1
@<TRIPOS>PROPERTY_DATA
  Total_Score	| 2.8357
  Crash		| -1.6135
  Polar		| 1.0530
  FragIndex	| 1
  FragRMSD	| 1.034

