@<TRIPOS>MOLECULE
BindingDB_29221
 32 33 0 0 0
SMALL
NO_CHARGES


@<TRIPOS>ATOM
1    C        21.6081  -15.9342  -12.8476  C     
2    C        22.4469  -14.8089  -12.8495  C     
3    C        23.6773  -14.8594  -13.5215  C     
4    C        24.0536  -16.0108  -14.2339  C     
5    C        23.1685  -17.1291  -14.3491  C     
6    C        21.9388  -17.0912  -13.6044  C     
7    C        21.0733  -18.2113  -13.6515  C     
8    N        23.4181  -18.2661  -15.1576  N     
9    C        22.5856  -19.3277  -15.1022  C     
10   C        21.4520  -19.3009  -14.3529  C     
11   O        22.7640  -20.3592  -15.7437  O     
12   C        19.7624  -18.2284  -12.9810  C     
13   O        25.2704  -15.9493  -14.8593  O     
14   C        26.4004  -15.7989  -13.9871  C     
15   O        22.0738  -13.6633  -12.1974  O     
16   C        21.6534  -12.6330  -13.1119  C     
17   C        24.5175  -18.2874  -16.1061  C     
18   H        20.7323  -15.8656  -12.3223  H     
19   H        24.2977  -14.0463  -13.4985  H     
20   H        20.8550  -20.1018  -14.3608  H     
21   H        19.8793  -18.0449  -11.9117  H     
22   H        19.2341  -19.1806  -13.0806  H     
23   H        19.1193  -17.4488  -13.4000  H     
24   H        26.4369  -14.7663  -13.6320  H     
25   H        27.3161  -16.0130  -14.5613  H     
26   H        26.3726  -16.4911  -13.1345  H     
27   H        22.4116  -12.4185  -13.8725  H     
28   H        21.4973  -11.7184  -12.5423  H     
29   H        20.7121  -12.9019  -13.6006  H     
30   H        24.4624  -17.4027  -16.7452  H     
31   H        24.5434  -19.1432  -16.7790  H     
32   H        25.4668  -18.2945  -15.5710  H     
@<TRIPOS>BOND
     1    1    2 1
     2    1    6 2
     3    2    3 2
     4    2   15 1
     5    3    4 1
     6    4    5 2
     7    4   13 1
     8    5    6 1
     9    5    8 1
    10    6    7 1
    11    7   10 2
    12    7   12 1
    13    8    9 1
    14    8   17 1
    15    9   10 1
    16    9   11 2
    17   13   14 1
    18   15   16 1
    19    1   18 1
    20    3   19 1
    21   10   20 1
    22   12   21 1
    23   12   22 1
    24   12   23 1
    25   14   24 1
    26   14   25 1
    27   14   26 1
    28   16   27 1
    29   16   28 1
    30   16   29 1
    31   17   30 1
    32   17   31 1
    33   17   32 1
@<TRIPOS>PROPERTY_DATA
  Total_Score	| 3.3962
  Crash		| -0.7261
  Polar		| 0.9181
  FragIndex	| 1
  FragRMSD	| 0.995

