@<TRIPOS>MOLECULE
BindingDB_29227
 36 37 0 0 0
SMALL
NO_CHARGES


@<TRIPOS>ATOM
1    C        21.3463  -15.7786  -13.4844  C     
2    C        22.1450  -14.6188  -13.5391  C     
3    C        23.4291  -14.7002  -14.0877  C     
4    C        23.9509  -15.9083  -14.5539  C     
5    C        23.1502  -17.0960  -14.5593  C     
6    C        21.8592  -17.0404  -13.9207  C     
7    C        21.1261  -18.2557  -13.7848  C     
8    N        23.5292  -18.2936  -15.2076  N     
9    C        22.7004  -19.3567  -15.1683  C     
10   C        21.5662  -19.3579  -14.4257  C     
11   O        22.9140  -20.3904  -15.7975  O     
12   C        19.9538  -18.4089  -12.9078  C     
13   O        25.2235  -15.8148  -15.0585  O     
14   C        26.2468  -15.6290  -14.0604  C     
15   O        21.6248  -13.4030  -13.1760  O     
16   C        22.5012  -12.6057  -12.3526  C     
17   O        20.0498  -15.6014  -13.0796  O     
18   C        19.1150  -15.6509  -14.1792  C     
19   C        24.7621  -18.3887  -15.9702  C     
20   H        23.9901  -13.8432  -14.1634  H     
21   H        21.0528  -20.2091  -14.3445  H     
22   H        20.1117  -17.8788  -11.9625  H     
23   H        19.7492  -19.4524  -12.6402  H     
24   H        19.0614  -18.0142  -13.3896  H     
25   H        26.1593  -14.6500  -13.5804  H     
26   H        27.2168  -15.6719  -14.5600  H     
27   H        26.2203  -16.4107  -13.2940  H     
28   H        22.8294  -13.1524  -11.4610  H     
29   H        21.9374  -11.7301  -12.0417  H     
30   H        23.3750  -12.2566  -12.9102  H     
31   H        19.2527  -14.8019  -14.8479  H     
32   H        18.1091  -15.6027  -13.7627  H     
33   H        19.1989  -16.5786  -14.7576  H     
34   H        24.7843  -17.6199  -16.7432  H     
35   H        24.9226  -19.3372  -16.4832  H     
36   H        25.6162  -18.2681  -15.3019  H     
@<TRIPOS>BOND
     1    1    2 1
     2    1    6 2
     3    1   17 1
     4    2    3 2
     5    2   15 1
     6    3    4 1
     7    4    5 2
     8    4   13 1
     9    5    6 1
    10    5    8 1
    11    6    7 1
    12    7   10 2
    13    7   12 1
    14    8    9 1
    15    8   19 1
    16    9   10 1
    17    9   11 2
    18   13   14 1
    19   15   16 1
    20   17   18 1
    21    3   20 1
    22   10   21 1
    23   12   22 1
    24   12   23 1
    25   12   24 1
    26   14   25 1
    27   14   26 1
    28   14   27 1
    29   16   28 1
    30   16   29 1
    31   16   30 1
    32   18   31 1
    33   18   32 1
    34   18   33 1
    35   19   34 1
    36   19   35 1
    37   19   36 1
@<TRIPOS>PROPERTY_DATA
  Total_Score	| 2.9977
  Crash		| -1.5543
  Polar		| 0.7491
  FragIndex	| 1
  FragRMSD	| 1.098

