@<TRIPOS>MOLECULE
BindingDB_29218
 29 30 0 0 0
SMALL
NO_CHARGES


@<TRIPOS>ATOM
1    C        21.4660  -16.6698  -12.7380  C     
2    C        21.9550  -15.4136  -12.3427  C     
3    C        23.0780  -14.8514  -12.9747  C     
4    C        23.7631  -15.5857  -13.9648  C     
5    C        23.2897  -16.8628  -14.3438  C     
6    C        22.1127  -17.4127  -13.7573  C     
7    C        21.6505  -18.6628  -14.2461  C     
8    N        23.9623  -17.6041  -15.2796  N     
9    C        23.5547  -18.8131  -15.6503  C     
10   C        22.3975  -19.3380  -15.1539  C     
11   O        24.2254  -19.4314  -16.4607  O     
12   C        20.3479  -19.1937  -13.8551  C     
13   O        24.8436  -15.0309  -14.5936  O     
14   C        26.1341  -15.4100  -14.0669  C     
15   O        23.5405  -13.6275  -12.5730  O     
16   C        22.6198  -12.5453  -12.8216  C     
17   H        20.6342  -17.0285  -12.2640  H     
18   H        21.4783  -14.8974  -11.6026  H     
19   H        24.7769  -17.2565  -15.6719  H     
20   H        22.0862  -20.2147  -15.5072  H     
21   H        20.3458  -19.4348  -12.7924  H     
22   H        20.0695  -20.0966  -14.3992  H     
23   H        19.5800  -18.4443  -14.0506  H     
24   H        26.1094  -16.1780  -13.2917  H     
25   H        26.6475  -14.5230  -13.6791  H     
26   H        26.7196  -15.7934  -14.9006  H     
27   H        22.4241  -12.4299  -13.8956  H     
28   H        23.0770  -11.6235  -12.4518  H     
29   H        21.6676  -12.6918  -12.2853  H     
@<TRIPOS>BOND
     1    1    2 1
     2    1    6 2
     3    2    3 2
     4    3    4 1
     5    3   15 1
     6    4    5 2
     7    4   13 1
     8    5    6 1
     9    5    8 1
    10    6    7 1
    11    7   10 2
    12    7   12 1
    13    8    9 1
    14    9   10 1
    15    9   11 2
    16   13   14 1
    17   15   16 1
    18    1   17 1
    19    2   18 1
    20    8   19 1
    21   10   20 1
    22   12   21 1
    23   12   22 1
    24   12   23 1
    25   14   24 1
    26   14   25 1
    27   14   26 1
    28   16   27 1
    29   16   28 1
    30   16   29 1
@<TRIPOS>PROPERTY_DATA
  Total_Score	| 1.3760
  Crash		| -1.1396
  Polar		| 0.0000
  FragIndex	| 1
  FragRMSD	| 0.525

