@<TRIPOS>MOLECULE
BindingDB_29219
 32 33 0 0 0
SMALL
NO_CHARGES


@<TRIPOS>ATOM
1    C        21.1992  -15.9579  -12.6931  C     
2    C        21.9199  -14.7565  -12.6169  C     
3    C        23.1075  -14.5871  -13.3528  C     
4    C        23.5868  -15.6612  -14.1389  C     
5    C        22.8237  -16.8593  -14.3127  C     
6    C        21.6302  -17.0193  -13.5320  C     
7    C        20.9162  -18.2398  -13.6128  C     
8    N        23.1590  -17.8990  -15.2158  N     
9    C        22.4945  -19.0735  -15.1642  C     
10   C        21.4031  -19.2377  -14.3779  C     
11   O        22.7907  -20.0433  -15.8598  O     
12   C        19.6575  -18.4630  -12.8929  C     
13   O        24.7890  -15.4835  -14.7763  O     
14   C        25.9454  -15.4393  -13.9226  C     
15   O        23.8797  -13.4459  -13.2701  O     
16   C        23.2022  -12.1825  -13.0477  C     
17   C        24.1243  -17.6961  -16.2806  C     
18   H        20.3400  -16.0227  -12.1387  H     
19   H        21.5820  -13.9992  -12.0216  H     
20   H        20.9130  -20.1067  -14.4163  H     
21   H        19.8062  -18.3208  -11.8229  H     
22   H        19.2526  -19.4708  -13.0247  H     
23   H        18.8997  -17.7551  -13.2372  H     
24   H        25.9722  -14.4775  -13.4028  H     
25   H        26.8356  -15.5278  -14.5510  H     
26   H        25.9681  -16.2572  -13.1953  H     
27   H        22.4130  -12.0173  -13.7843  H     
28   H        23.9344  -11.3684  -13.1554  H     
29   H        22.7751  -12.1351  -12.0415  H     
30   H        23.9252  -16.7508  -16.7863  H     
31   H        24.1072  -18.4531  -17.0622  H     
32   H        25.1340  -17.6925  -15.8737  H     
@<TRIPOS>BOND
     1    1    2 1
     2    1    6 2
     3    2    3 2
     4    3    4 1
     5    3   15 1
     6    4    5 2
     7    4   13 1
     8    5    6 1
     9    5    8 1
    10    6    7 1
    11    7   10 2
    12    7   12 1
    13    8    9 1
    14    8   17 1
    15    9   10 1
    16    9   11 2
    17   13   14 1
    18   15   16 1
    19    1   18 1
    20    2   19 1
    21   10   20 1
    22   12   21 1
    23   12   22 1
    24   12   23 1
    25   14   24 1
    26   14   25 1
    27   14   26 1
    28   16   27 1
    29   16   28 1
    30   16   29 1
    31   17   30 1
    32   17   31 1
    33   17   32 1
@<TRIPOS>PROPERTY_DATA
  Total_Score	| 2.3862
  Crash		| -1.1600
  Polar		| 0.5154
  FragIndex	| 1
  FragRMSD	| 0.829

