@<TRIPOS>MOLECULE
BindingDB_29228
 37 38 0 0 0
SMALL
NO_CHARGES


@<TRIPOS>ATOM
1    C        21.6000  -16.6752  -12.9875  C     
2    C        22.0485  -15.3339  -12.8507  C     
3    C        23.3373  -14.9553  -13.2818  C     
4    C        24.1222  -15.8769  -13.9956  C     
5    C        23.6101  -17.1606  -14.2774  C     
6    C        22.3379  -17.5980  -13.7902  C     
7    C        21.9539  -18.9371  -14.1411  C     
8    N        24.3956  -18.0279  -14.9844  N     
9    C        24.0221  -19.2661  -15.2530  C     
10   C        22.8200  -19.7252  -14.8298  C     
11   O        24.7689  -19.9706  -15.9161  O     
12   C        20.6366  -19.5431  -13.9299  C     
13   O        25.4186  -15.5552  -14.3113  O     
14   C        25.5921  -15.0181  -15.6337  C     
15   O        21.2529  -14.3554  -12.3275  O     
16   C        20.4298  -13.7442  -13.3539  C     
17   O        20.6663  -17.1435  -12.0920  O     
18   C        19.2618  -16.9617  -12.3396  C     
19   O        23.9377  -13.8065  -12.8341  O     
20   C        23.2337  -12.5582  -12.9226  C     
21   H        25.2630  -17.7289  -15.2994  H     
22   H        22.5710  -20.6580  -15.0810  H     
23   H        19.9105  -18.9239  -13.4339  H     
24   H        20.7464  -20.4504  -13.3288  H     
25   H        20.1880  -19.7999  -14.8954  H     
26   H        25.2747  -15.7245  -16.4055  H     
27   H        26.6551  -14.8161  -15.7777  H     
28   H        25.0469  -14.0788  -15.7570  H     
29   H        20.9512  -13.5591  -14.2998  H     
30   H        20.0819  -12.7856  -12.9747  H     
31   H        19.5569  -14.3540  -13.5757  H     
32   H        18.9494  -15.9572  -12.0505  H     
33   H        18.7158  -17.6713  -11.7098  H     
34   H        18.9994  -17.1584  -13.3862  H     
35   H        22.7472  -12.4235  -13.8886  H     
36   H        23.9621  -11.7558  -12.7968  H     
37   H        22.5010  -12.4658  -12.1196  H     
@<TRIPOS>BOND
     1    1    2 1
     2    1    6 2
     3    1   17 1
     4    2    3 2
     5    2   15 1
     6    3    4 1
     7    3   19 1
     8    4    5 2
     9    4   13 1
    10    5    6 1
    11    5    8 1
    12    6    7 1
    13    7   10 2
    14    7   12 1
    15    8    9 1
    16    9   10 1
    17    9   11 2
    18   13   14 1
    19   15   16 1
    20   17   18 1
    21   19   20 1
    22    8   21 1
    23   10   22 1
    24   12   23 1
    25   12   24 1
    26   12   25 1
    27   14   26 1
    28   14   27 1
    29   14   28 1
    30   16   29 1
    31   16   30 1
    32   16   31 1
    33   18   32 1
    34   18   33 1
    35   18   34 1
    36   20   35 1
    37   20   36 1
    38   20   37 1
@<TRIPOS>PROPERTY_DATA
  Total_Score	| 2.4584
  Crash		| -2.2261
  Polar		| 0.0000
  FragIndex	| 1
  FragRMSD	| 0.862

