@<TRIPOS>MOLECULE
BindingDB_29213
 27 29 0 0 0
SMALL
NO_CHARGES


@<TRIPOS>ATOM
1    C        21.3779  -16.0473  -12.7728  C     
2    C        22.0105  -14.8103  -12.6124  C     
3    C        23.1844  -14.5634  -13.3245  C     
4    C        23.7270  -15.5136  -14.1781  C     
5    C        23.1150  -16.7850  -14.3767  C     
6    C        21.9046  -17.0421  -13.6479  C     
7    C        21.2577  -18.2897  -13.8318  C     
8    N        23.6177  -17.7822  -15.2375  N     
9    C        22.9788  -18.9711  -15.3213  C     
10   C        21.8330  -19.2174  -14.6299  C     
11   O        23.3684  -19.8816  -16.0468  O     
12   O        23.9072  -13.4280  -13.2739  O     
13   C        24.8549  -13.6463  -14.3257  C     
14   O        24.8622  -15.0277  -14.7214  O     
15   C        19.9508  -18.5824  -13.2329  C     
16   C        24.7999  -17.5416  -16.0459  C     
17   H        20.5156  -16.1987  -12.2410  H     
18   H        21.6209  -14.0951  -11.9992  H     
19   H        21.3818  -20.0990  -14.7608  H     
20   H        24.5855  -13.0225  -15.1861  H     
21   H        25.8500  -13.3543  -13.9882  H     
22   H        19.9998  -18.4782  -12.1476  H     
23   H        19.5909  -19.5953  -13.4405  H     
24   H        19.2096  -17.8786  -13.6252  H     
25   H        24.6444  -16.6660  -16.6757  H     
26   H        25.0743  -18.3561  -16.7190  H     
27   H        25.6614  -17.3719  -15.3981  H     
@<TRIPOS>BOND
     1    1    2 1
     2    1    6 2
     3    2    3 2
     4    3    4 1
     5    3   12 1
     6    4    5 2
     7    4   14 1
     8    5    6 1
     9    5    8 1
    10    6    7 1
    11    7   10 2
    12    7   15 1
    13    8    9 1
    14    8   16 1
    15    9   10 1
    16    9   11 2
    17   12   13 1
    18   13   14 1
    19    1   17 1
    20    2   18 1
    21   10   19 1
    22   13   20 1
    23   13   21 1
    24   15   22 1
    25   15   23 1
    26   15   24 1
    27   16   25 1
    28   16   26 1
    29   16   27 1
@<TRIPOS>PROPERTY_DATA
  Total_Score	| 1.0362
  Crash		| -0.7583
  Polar		| 0.0340
  FragIndex	| 1
  FragRMSD	| 0.719

