@<TRIPOS>MOLECULE
BindingDB_29223
 32 33 0 0 0
SMALL
NO_CHARGES


@<TRIPOS>ATOM
1    C        21.3635  -16.9094  -12.9371  C     
2    C        21.8920  -15.7980  -12.2593  C     
3    C        23.1390  -15.2835  -12.6054  C     
4    C        23.8928  -15.8553  -13.6480  C     
5    C        23.4112  -17.0153  -14.3365  C     
6    C        22.1204  -17.5411  -13.9712  C     
7    C        21.6768  -18.7166  -14.6374  C     
8    N        24.1603  -17.7188  -15.3116  N     
9    C        23.7866  -18.9681  -15.6608  C     
10   C        22.5587  -19.4444  -15.3530  C     
11   O        24.4803  -19.6983  -16.3616  O     
12   C        20.2726  -19.1234  -14.6860  C     
13   O        25.1576  -15.3488  -13.8111  O     
14   C        25.2530  -14.0443  -14.4158  C     
15   O        20.2008  -17.4383  -12.4319  O     
16   C        18.9744  -16.8388  -12.8903  C     
17   C        25.2904  -17.1192  -16.0029  C     
18   H        21.3878  -15.3865  -11.4742  H     
19   H        23.5134  -14.5051  -12.0595  H     
20   H        22.2671  -20.2948  -15.7821  H     
21   H        19.9635  -19.5367  -13.7250  H     
22   H        20.0535  -19.8773  -15.4440  H     
23   H        19.6697  -18.2530  -14.9400  H     
24   H        26.3037  -13.7528  -14.4258  H     
25   H        24.6962  -13.2917  -13.8520  H     
26   H        24.8877  -14.0533  -15.4440  H     
27   H        18.8664  -15.8358  -12.4820  H     
28   H        18.1438  -17.4453  -12.5296  H     
29   H        18.9126  -16.7963  -13.9795  H     
30   H        25.0028  -16.1447  -16.3975  H     
31   H        25.6527  -17.6850  -16.8657  H     
32   H        26.1393  -17.0145  -15.3255  H     
@<TRIPOS>BOND
     1    1    2 1
     2    1    6 2
     3    1   15 1
     4    2    3 2
     5    3    4 1
     6    4    5 2
     7    4   13 1
     8    5    6 1
     9    5    8 1
    10    6    7 1
    11    7   10 2
    12    7   12 1
    13    8    9 1
    14    8   17 1
    15    9   10 1
    16    9   11 2
    17   13   14 1
    18   15   16 1
    19    2   18 1
    20    3   19 1
    21   10   20 1
    22   12   21 1
    23   12   22 1
    24   12   23 1
    25   14   24 1
    26   14   25 1
    27   14   26 1
    28   16   27 1
    29   16   28 1
    30   16   29 1
    31   17   30 1
    32   17   31 1
    33   17   32 1
@<TRIPOS>PROPERTY_DATA
  Total_Score	| 2.9349
  Crash		| -1.2642
  Polar		| 0.0000
  FragIndex	| 1
  FragRMSD	| 0.898

