@<TRIPOS>MOLECULE
BindingDB_29217
 28 29 0 0 0
SMALL
NO_CHARGES


@<TRIPOS>ATOM
1    C        21.3153  -16.0590  -12.6681  C     
2    C        22.0304  -14.8602  -12.5821  C     
3    C        23.2007  -14.6958  -13.3333  C     
4    C        23.6639  -15.7263  -14.1753  C     
5    C        22.9249  -16.9484  -14.3204  C     
6    C        21.7273  -17.1053  -13.5360  C     
7    C        20.9616  -18.2880  -13.6677  C     
8    N        23.2718  -18.0008  -15.2045  N     
9    C        22.4956  -19.1054  -15.2781  C     
10   C        21.3779  -19.2419  -14.5229  C     
11   O        22.7326  -20.0447  -16.0329  O     
12   C        19.7158  -18.5094  -12.9198  C     
13   C        24.4359  -17.9145  -16.0702  C     
14   O        24.8015  -15.4426  -14.8818  O     
15   C        26.0009  -15.2583  -14.1126  C     
16   H        20.4661  -16.1313  -12.1025  H     
17   H        21.6899  -14.1009  -11.9867  H     
18   H        23.7059  -13.8115  -13.2789  H     
19   H        20.8331  -20.0744  -14.6248  H     
20   H        19.9097  -18.4291  -11.8511  H     
21   H        19.2686  -19.4920  -13.0868  H     
22   H        18.9795  -17.7553  -13.2022  H     
23   H        24.3403  -17.0466  -16.7283  H     
24   H        24.5991  -18.7709  -16.7265  H     
25   H        25.3416  -17.8254  -15.4658  H     
26   H        25.8998  -14.3820  -13.4756  H     
27   H        26.8291  -15.0883  -14.8126  H     
28   H        26.2394  -16.1386  -13.5070  H     
@<TRIPOS>BOND
     1    1    2 1
     2    1    6 2
     3    2    3 2
     4    3    4 1
     5    4    5 2
     6    4   14 1
     7    5    6 1
     8    5    8 1
     9    6    7 1
    10    7   10 2
    11    7   12 1
    12    8    9 1
    13    8   13 1
    14    9   10 1
    15    9   11 2
    16   14   15 1
    17    1   16 1
    18    2   17 1
    19    3   18 1
    20   10   19 1
    21   12   20 1
    22   12   21 1
    23   12   22 1
    24   13   23 1
    25   13   24 1
    26   13   25 1
    27   15   26 1
    28   15   27 1
    29   15   28 1
@<TRIPOS>PROPERTY_DATA
  Total_Score	| 1.8906
  Crash		| -0.9524
  Polar		| 0.5745
  FragIndex	| 1
  FragRMSD	| 0.868

