@<TRIPOS>MOLECULE
BindingDB_29224
 33 34 0 0 0
SMALL
NO_CHARGES


@<TRIPOS>ATOM
1    C        21.6708  -15.9292  -12.8473  C     
2    C        22.5423  -14.8199  -12.8657  C     
3    C        23.6864  -14.8562  -13.7018  C     
4    C        24.0015  -16.0380  -14.4126  C     
5    C        23.1145  -17.1332  -14.3908  C     
6    C        21.9197  -17.0935  -13.6188  C     
7    C        21.0752  -18.2371  -13.6521  C     
8    N        23.4040  -18.2687  -15.1000  N     
9    C        22.6221  -19.3400  -15.0730  C     
10   C        21.4668  -19.3328  -14.3511  C     
11   O        22.9391  -20.3242  -15.7286  O     
12   C        19.7728  -18.2541  -12.9867  C     
13   O        25.1633  -16.1033  -15.1422  O     
14   C        26.3514  -16.0548  -14.3273  C     
15   O        24.5460  -13.7928  -13.7611  O     
16   O        22.2348  -13.8192  -11.9657  O     
17   C        22.4457  -12.4327  -12.2838  C     
18   C        24.2426  -12.8299  -14.7911  C     
19   H        20.8547  -15.8847  -12.2371  H     
20   H        24.2174  -18.2981  -15.6287  H     
21   H        20.8870  -20.1406  -14.3798  H     
22   H        19.8925  -18.0371  -11.9245  H     
23   H        19.2576  -19.2155  -13.0603  H     
24   H        19.1321  -17.4933  -13.4348  H     
25   H        26.4252  -15.1130  -13.7746  H     
26   H        27.2200  -16.1270  -14.9867  H     
27   H        26.3883  -16.8940  -13.6263  H     
28   H        23.5102  -12.2111  -12.3632  H     
29   H        22.0504  -11.8198  -11.4760  H     
30   H        21.9207  -12.1557  -13.2034  H     
31   H        24.4445  -13.2426  -15.7854  H     
32   H        24.8918  -11.9673  -14.6468  H     
33   H        23.2045  -12.4956  -14.7473  H     
@<TRIPOS>BOND
     1    1    2 1
     2    1    6 2
     3    2    3 2
     4    2   16 1
     5    3    4 1
     6    3   15 1
     7    4    5 2
     8    4   13 1
     9    5    6 1
    10    5    8 1
    11    6    7 1
    12    7   10 2
    13    7   12 1
    14    8    9 1
    15    9   10 1
    16    9   11 2
    17   13   14 1
    18   15   18 1
    19   16   17 1
    20    1   19 1
    21    8   20 1
    22   10   21 1
    23   12   22 1
    24   12   23 1
    25   12   24 1
    26   14   25 1
    27   14   26 1
    28   14   27 1
    29   17   28 1
    30   17   29 1
    31   17   30 1
    32   18   31 1
    33   18   32 1
    34   18   33 1
@<TRIPOS>PROPERTY_DATA
  Total_Score	| 1.1399
  Crash		| -1.5522
  Polar		| 0.6307
  FragIndex	| 1
  FragRMSD	| 1.114

