@<TRIPOS>MOLECULE
BindingDB_29216
 25 26 0 0 0
SMALL
NO_CHARGES


@<TRIPOS>ATOM
1    C        21.4191  -16.6000  -12.8325  C     
2    C        22.0112  -15.4547  -12.2894  C     
3    C        23.3293  -15.1251  -12.6055  C     
4    C        24.0721  -15.9157  -13.5031  C     
5    C        23.4793  -17.0755  -14.0456  C     
6    C        22.1390  -17.4371  -13.7177  C     
7    C        21.6145  -18.6228  -14.3025  C     
8    N        24.1928  -17.8865  -14.8877  N     
9    C        23.6801  -18.9975  -15.4013  C     
10   C        22.4019  -19.3653  -15.1176  C     
11   O        24.3731  -19.6885  -16.1314  O     
12   C        20.2444  -19.0471  -14.0484  C     
13   O        25.3724  -15.5981  -13.8022  O     
14   C        25.5318  -14.3811  -14.5413  C     
15   H        20.4508  -16.8071  -12.5667  H     
16   H        21.4860  -14.8561  -11.6425  H     
17   H        23.7450  -14.2916  -12.1920  H     
18   H        25.1111  -17.6588  -15.0982  H     
19   H        22.0445  -20.1882  -15.5488  H     
20   H        20.0993  -19.2246  -12.9808  H     
21   H        19.9697  -19.9695  -14.5699  H     
22   H        19.5587  -18.2662  -14.3794  H     
23   H        25.0213  -14.4427  -15.5036  H     
24   H        26.5957  -14.2116  -14.7182  H     
25   H        25.1547  -13.5156  -13.9885  H     
@<TRIPOS>BOND
     1    1    2 1
     2    1    6 2
     3    2    3 2
     4    3    4 1
     5    4    5 2
     6    4   13 1
     7    5    6 1
     8    5    8 1
     9    6    7 1
    10    7   10 2
    11    7   12 1
    12    8    9 1
    13    9   10 1
    14    9   11 2
    15   13   14 1
    16    1   15 1
    17    2   16 1
    18    3   17 1
    19    8   18 1
    20   10   19 1
    21   12   20 1
    22   12   21 1
    23   12   22 1
    24   14   23 1
    25   14   24 1
    26   14   25 1
@<TRIPOS>PROPERTY_DATA
  Total_Score	| 0.8044
  Crash		| -1.0123
  Polar		| 0.0000
  FragIndex	| 1
  FragRMSD	| 0.785

