@<TRIPOS>MOLECULE
BindingDB_50386618
 55 57 0 0 0
SMALL
NO_CHARGES


@<TRIPOS>ATOM
1    C        -5.1139    9.0094   27.7506  C     
2    C        -4.6677   10.2523   28.0062  C     
3    N        -4.6779   11.2298   27.0468  N     
4    C        -5.2008   10.9329   25.8361  C     
5    N        -5.6370    9.6991   25.5876  N     
6    C        -5.5910    8.7364   26.5062  C     
7    O        -5.3110   11.7440   24.9248  O     
8    O        -5.9735    7.6108   26.2245  O     
9    C        -4.2191   12.5762   27.3713  C     
10   O        -3.0966   12.5628   28.2735  O     
11   C        -3.3979   13.4337   29.3772  C     
12   C        -4.9301   13.4836   29.4911  C     
13   C        -5.3402   13.4215   28.0208  C     
14   C        -2.6978   12.9300   30.6538  C     
15   O        -5.3848   14.6580   30.1560  O     
16   O        -3.3708   11.7347   31.1019  O     
17   P        -2.6446   10.8424   32.1465  P     
18   C        -1.4438    9.8808   31.5174  C     
19   P         0.1172   10.4758   31.4853  P     
20   O         0.4630   11.8859   30.9386  O     
21   P         0.8362   12.9682   31.9953  P     
22   O         0.0366   13.0366   33.3403  O     
23   O        -3.6603    9.9218   32.5874  O     
24   O        -2.2083   11.5236   33.4487  O     
25   O         0.7966    9.6401   30.5295  O     
26   O         0.8940   10.0537   32.7415  O     
27   O         0.4930   14.1892   31.3155  O     
28   O         2.3670   13.0625   32.1136  O     
29   C         0.7052   12.7555   34.5971  C     
30   C        -0.2228   12.0216   35.4984  C     
31   C        -1.1691   12.7130   36.2884  C     
32   C        -2.0883   12.0053   37.0887  C     
33   C        -2.0982   10.5972   37.0771  C     
34   C        -1.1834    9.8979   36.2684  C     
35   C        -0.2321   10.6009   35.5047  C     
36   H        -5.0885    8.3119   28.4599  H     
37   H        -4.3182   10.4330   28.9167  H     
38   H        -5.9947    9.4977   24.7115  H     
39   H        -3.8674   13.0912   26.4731  H     
40   H        -3.0153   14.4340   29.1383  H     
41   H        -5.3190   12.6068   30.0137  H     
42   H        -5.3334   14.4261   27.5936  H     
43   H        -6.3406   12.9921   27.9017  H     
44   H        -1.6669   12.7354   30.3801  H     
45   H        -2.7235   13.7167   31.4188  H     
46   H        -5.2663   14.4795   31.1114  H     
47   H        -1.4120    8.9564   32.1144  H     
48   H        -1.7602    9.6172   30.5003  H     
49   H         1.6247   12.1685   34.4891  H     
50   H         0.9876   13.7040   35.0670  H     
51   H        -1.1967   13.7364   36.2859  H     
52   H        -2.7566   12.5075   37.6697  H     
53   H        -2.7617   10.0901   37.6633  H     
54   H        -1.1843    8.8753   36.2467  H     
55   H         0.4471   10.0713   34.9545  H     
@<TRIPOS>BOND
     1    1    2 2
     2    1    6 1
     3    2    3 1
     4    3    4 1
     5    9    3 1
     6    4    5 1
     7    4    7 2
     8    5    6 1
     9    6    8 2
    10    9   10 1
    11    9   13 1
    12   10   11 1
    13   11   12 1
    14   11   14 1
    15   12   13 1
    16   12   15 1
    17   14   16 1
    18   16   17 1
    19   17   18 1
    20   17   23 2
    21   17   24 1
    22   18   19 1
    23   19   20 1
    24   19   25 2
    25   19   26 1
    26   20   21 1
    27   21   22 1
    28   21   27 2
    29   21   28 1
    30   22   29 1
    31   29   30 1
    32   30   31 2
    33   30   35 1
    34   31   32 1
    35   32   33 2
    36   33   34 1
    37   34   35 2
    38    1   36 1
    39    2   37 1
    40    5   38 1
    41    9   39 1
    42   11   40 1
    43   12   41 1
    44   13   42 1
    45   13   43 1
    46   14   44 1
    47   14   45 1
    48   15   46 1
    49   18   47 1
    50   18   48 1
    51   29   49 1
    52   29   50 1
    53   31   51 1
    54   32   52 1
    55   33   53 1
    56   34   54 1
    57   35   55 1
@<TRIPOS>PROPERTY_DATA
  Total_Score	| 14.0662
  Crash		| -10.5606
  Polar		| 14.9648
  FragIndex	| 1
  FragRMSD	| 0.786

