@<TRIPOS>MOLECULE
BindingDB_50386619
 40 41 0 0 0
SMALL
NO_CHARGES


@<TRIPOS>ATOM
1    O        -5.9398    7.6315   26.1383  O     
2    C        -5.5580    8.7500   26.4424  C     
3    C        -5.1111    9.0149   27.6981  C     
4    C        -4.6918   10.2628   27.9790  C     
5    N        -5.5980    9.7204   25.5302  N     
6    C        -5.1899   10.9608   25.8045  C     
7    O        -5.3048   11.7820   24.9049  O     
8    N        -4.7035   11.2523   27.0313  N     
9    C        -4.2404   12.5904   27.3747  C     
10   C        -5.3411   13.4493   28.0495  C     
11   C        -4.9043   13.5275   29.5114  C     
12   O        -5.3315   14.7116   30.1702  O     
13   O        -3.1101   12.5456   28.2718  O     
14   C        -3.3723   13.4389   29.3672  C     
15   C        -2.6475   12.9190   30.6244  C     
16   O        -3.3176   11.7337   31.0833  O     
17   P        -2.5107   10.7441   31.9615  P     
18   O        -2.1125   11.3100   33.2284  O     
19   O        -3.4458    9.5603   32.2445  O     
20   N        -1.3768   10.2007   31.1354  N     
21   P         0.0820   10.4114   31.4266  P     
22   O         0.3903   10.1787   32.8054  O     
23   O         0.7801    9.2918   30.6537  O     
24   O         0.6555   11.7046   30.7834  O     
25   P         0.7960   12.9668   31.6866  P     
26   O         0.0095   12.9926   32.8890  O     
27   O         2.2604   13.0703   32.1460  O     
28   O         0.5321   14.2531   30.8849  O     
29   H        -5.0980    8.3089   28.3944  H     
30   H        -4.3603   10.4431   28.8960  H     
31   H        -5.9387    9.5247   24.6436  H     
32   H        -3.8816   13.1184   26.4818  H     
33   H        -5.3433   14.4490   27.6159  H     
34   H        -6.3437   13.0221   27.9513  H     
35   H        -5.3153   12.6687   30.0453  H     
36   H        -5.2493   14.5091   31.1274  H     
37   H        -2.9719   14.4267   29.1170  H     
38   H        -1.6138   12.7203   30.3361  H     
39   H        -2.6571   13.6782   31.4117  H     
40   H        -1.5969    9.8561   30.2992  H     
@<TRIPOS>BOND
     1    1    2 2
     2    2    3 1
     3    2    5 1
     4    3    4 2
     5    4    8 1
     6    5    6 1
     7    6    7 2
     8    6    8 1
     9    9    8 1
    10    9   10 1
    11    9   13 1
    12   10   11 1
    13   11   12 1
    14   11   14 1
    15   13   14 1
    16   14   15 1
    17   15   16 1
    18   16   17 1
    19   17   18 2
    20   17   19 1
    21   17   20 1
    22   21   20 1
    23   21   22 2
    24   21   23 1
    25   21   24 1
    26   24   25 1
    27   25   26 2
    28   25   27 1
    29   25   28 1
    30    3   29 1
    31    4   30 1
    32    5   31 1
    33    9   32 1
    34   10   33 1
    35   10   34 1
    36   11   35 1
    37   12   36 1
    38   14   37 1
    39   15   38 1
    40   15   39 1
    41   20   40 1
@<TRIPOS>PROPERTY_DATA
  Total_Score	| 22.7263
  Crash		| -2.0290
  Polar		| 18.7736
  FragIndex	| 1
  FragRMSD	| 0.071

