@<TRIPOS>MOLECULE
BindingDB_50173564
 34 35 0 0 0
SMALL
NO_CHARGES


@<TRIPOS>ATOM
1    N        -5.0707   10.9846   27.1779  N     
2    C        -5.2862   11.3205   25.9015  C     
3    C        -4.9362   11.9180   28.2548  C     
4    N        -5.4141   10.3706   24.9776  N     
5    C        -4.9286    9.6545   27.4927  C     
6    O        -3.5539   11.9068   28.6496  O     
7    C        -5.4085   13.3948   28.2355  C     
8    C        -5.0148    8.7006   26.5418  C     
9    C        -5.2662    9.0859   25.2706  C     
10   C        -3.3138   13.0859   29.4314  C     
11   C        -4.6474   13.8849   29.4782  C     
12   O        -5.3363   12.4817   25.4999  O     
13   C        -0.4846   12.5850   31.8375  C     
14   N        -1.3099   12.5020   30.7913  N     
15   C        -2.7114   12.7870   30.8333  C     
16   O        -5.3618    8.2670   24.3579  O     
17   O        -0.9277   12.8798   32.9381  O     
18   O        -4.3680   15.2852   29.5117  O     
19   C         0.9402   12.4615   31.6481  C     
20   H        -5.5122   11.4908   29.0845  H     
21   H        -5.5957   10.5866   24.0480  H     
22   H        -4.7526    9.3601   28.4344  H     
23   H        -5.1703   13.9197   27.3075  H     
24   H        -6.4831   13.4831   28.3918  H     
25   H        -4.9026    7.7328   26.7727  H     
26   H        -2.5828   13.6401   28.8403  H     
27   H        -5.2407   13.6352   30.3809  H     
28   H        -0.9175   12.2805   29.9296  H     
29   H        -2.8716   13.6662   31.4707  H     
30   H        -3.2529   11.9524   31.2984  H     
31   H        -3.4798   15.3875   29.1150  H     
32   H         1.2068   11.4664   31.2912  H     
33   H         1.4752   12.6382   32.5808  H     
34   H         1.2872   13.1990   30.9246  H     
@<TRIPOS>BOND
     1    1    2 1
     2    1    3 1
     3    1    5 1
     4    2    4 1
     5    2   12 2
     6    3    6 1
     7    3    7 1
     8    4    9 1
     9    5    8 2
    10    6   10 1
    11    7   11 1
    12    8    9 1
    13    9   16 2
    14   10   11 1
    15   10   15 1
    16   11   18 1
    17   13   14 am
    18   13   17 2
    19   13   19 1
    20   14   15 1
    21    3   20 1
    22    4   21 1
    23    5   22 1
    24    7   23 1
    25    7   24 1
    26    8   25 1
    27   10   26 1
    28   11   27 1
    29   14   28 1
    30   15   29 1
    31   15   30 1
    32   18   31 1
    33   19   32 1
    34   19   33 1
    35   19   34 1
@<TRIPOS>PROPERTY_DATA
  Total_Score	| 5.4872
  Crash		| -3.5364
  Polar		| 3.3926
  FragIndex	| 1
  FragRMSD	| 0.958

