@<TRIPOS>MOLECULE
BindingDB_50173553
 50 51 0 0 0
SMALL
NO_CHARGES


@<TRIPOS>ATOM
1    N        -5.2614   10.7870   27.7203  N     
2    C        -5.4070   10.8407   26.3735  C     
3    C        -4.9703   11.9362   28.5692  C     
4    N        -5.6319    9.7234   25.6801  N     
5    C        -5.3169    9.5586   28.3070  C     
6    P        -1.6571    9.8106   32.7976  P     
7    O        -3.5587   11.9990   28.8037  O     
8    C        -5.4252   13.3571   28.1385  C     
9    C        -5.5322    8.4355   27.6044  C     
10   C        -5.6613    8.5305   26.2638  C     
11   C        -3.2750   13.3286   29.2616  C     
12   C        -2.8073   10.8717   33.3774  C     
13   C        -4.1479   14.1948   28.3273  C     
14   C        -2.7169   12.1416   32.6519  C     
15   O        -5.3475   11.8684   25.7152  O     
16   O        -1.4800    8.8719   33.8772  O     
17   C        -3.5962   13.5573   30.7689  C     
18   O        -5.8083    7.5275   25.5802  O     
19   O        -3.5100   12.3674   31.5653  O     
20   O        -1.8096   13.0560   33.0713  O     
21   O        -2.0784    8.8395   31.6554  O     
22   O        -0.2558   10.4765   32.7722  O     
23   O        -3.4856   14.4093   27.0807  O     
24   C         0.3427   10.7845   31.4969  C     
25   C        -3.3400    8.9806   30.9832  C     
26   C         0.5880   12.3103   31.4464  C     
27   C        -3.8532    7.5503   30.6992  C     
28   H        -5.4300   11.7852   29.5579  H     
29   H        -5.7618    9.7773   24.7257  H     
30   H        -5.1804    9.4634   29.2877  H     
31   H        -5.7962   13.4038   27.1181  H     
32   H        -6.2157   13.7248   28.7968  H     
33   H        -5.5953    7.5692   28.0687  H     
34   H        -2.2110   13.5229   29.0937  H     
35   H        -3.8099   10.4425   33.2930  H     
36   H        -2.6371   11.0616   34.4346  H     
37   H        -4.3694   15.1729   28.7693  H     
38   H        -2.9415   14.3445   31.1462  H     
39   H        -4.6194   13.9264   30.8737  H     
40   H        -3.4432   13.5331   26.6525  H     
41   H         1.2963   10.2560   31.3852  H     
42   H        -0.2940   10.5261   30.6459  H     
43   H        -4.1121    9.5329   31.5459  H     
44   H        -3.1719    9.5123   30.0393  H     
45   H        -0.3478   12.8426   31.6542  H     
46   H         0.9340   12.6062   30.4516  H     
47   H         1.3351   12.5996   32.1919  H     
48   H        -3.0992    6.9687   30.1493  H     
49   H        -4.7721    7.5562   30.1089  H     
50   H        -4.0528    7.0515   31.6606  H     
@<TRIPOS>BOND
     1    1    2 1
     2    1    3 1
     3    1    5 1
     4    2    4 1
     5    2   15 2
     6    3    7 1
     7    3    8 1
     8    4   10 1
     9    5    9 2
    10    6   12 1
    11    6   16 2
    12    6   21 1
    13    6   22 1
    14    7   11 1
    15    8   13 1
    16    9   10 1
    17   10   18 2
    18   11   13 1
    19   11   17 1
    20   12   14 1
    21   13   23 1
    22   14   19 1
    23   14   20 2
    24   17   19 1
    25   21   25 1
    26   22   24 1
    27   24   26 1
    28   25   27 1
    29    3   28 1
    30    4   29 1
    31    5   30 1
    32    8   31 1
    33    8   32 1
    34    9   33 1
    35   11   34 1
    36   12   35 1
    37   12   36 1
    38   13   37 1
    39   17   38 1
    40   17   39 1
    41   23   40 1
    42   24   41 1
    43   24   42 1
    44   25   43 1
    45   25   44 1
    46   26   45 1
    47   26   46 1
    48   26   47 1
    49   27   48 1
    50   27   49 1
    51   27   50 1
@<TRIPOS>PROPERTY_DATA
  Total_Score	| 6.0420
  Crash		| -9.8777
  Polar		| 7.3844
  FragIndex	| 1
  FragRMSD	| 1.251

