@<TRIPOS>MOLECULE
BindingDB_50173558
 42 43 0 0 0
SMALL
NO_CHARGES


@<TRIPOS>ATOM
1    N        -5.0514   10.9806   27.2001  N     
2    C        -5.2725   11.3286   25.9130  C     
3    C        -4.9797   11.9044   28.3215  C     
4    N        -5.3689   10.3807   24.9798  N     
5    C        -4.9076    9.6502   27.4955  C     
6    O        -3.6672   11.8538   28.9118  O     
7    C        -5.2551   13.4168   28.1568  C     
8    C        -5.0097    8.7029   26.5465  C     
9    C        -5.2373    9.0893   25.2705  C     
10   C        -3.5277   12.9973   29.7749  C     
11   C        -4.7131   13.9545   29.4965  C     
12   O        -5.3715   12.4808   25.5217  O     
13   C        -2.0902   10.5363   31.9746  C     
14   C        -3.4371   12.5523   31.2532  C     
15   O        -5.3253    8.2653   24.3757  O     
16   O        -2.2650   11.7714   31.4404  O     
17   O        -3.1384    9.8089   32.4292  O     
18   O        -4.3356   15.3227   29.4865  O     
19   C        -0.7189    9.9997   32.1138  C     
20   C         0.4076   10.9093   31.5528  C     
21   C         0.5498   12.2774   32.2806  C     
22   C         1.3807   13.2881   31.4733  C     
23   H        -5.6999   11.5477   29.0688  H     
24   H        -5.5278   10.6385   24.0540  H     
25   H        -4.7536    9.3474   28.4356  H     
26   H        -4.6882   13.8452   27.3260  H     
27   H        -6.3150   13.6237   28.0322  H     
28   H        -4.9261    7.7418   26.7793  H     
29   H        -2.5889   13.4831   29.4970  H     
30   H        -5.4963   13.8373   30.2535  H     
31   H        -3.3391   13.4439   31.8816  H     
32   H        -4.3375   12.0070   31.5434  H     
33   H        -3.4335   15.3754   29.0951  H     
34   H        -0.5244    9.7936   33.1688  H     
35   H        -0.6745    9.0417   31.5851  H     
36   H         1.3557   10.3717   31.6318  H     
37   H         0.2124   11.0747   30.4898  H     
38   H        -0.4259   12.7315   32.4582  H     
39   H         1.0250   12.1261   33.2542  H     
40   H         2.3927   12.9114   31.3342  H     
41   H         1.4213   14.2384   32.0045  H     
42   H         0.9206   13.4592   30.4966  H     
@<TRIPOS>BOND
     1    1    2 1
     2    1    3 1
     3    1    5 1
     4    2    4 1
     5    2   12 2
     6    3    6 1
     7    3    7 1
     8    4    9 1
     9    5    8 2
    10    6   10 1
    11    7   11 1
    12    8    9 1
    13    9   15 2
    14   10   11 1
    15   10   14 1
    16   11   18 1
    17   13   16 1
    18   13   17 2
    19   13   19 1
    20   14   16 1
    21   19   20 1
    22   20   21 1
    23   21   22 1
    24    3   23 1
    25    4   24 1
    26    5   25 1
    27    7   26 1
    28    7   27 1
    29    8   28 1
    30   10   29 1
    31   11   30 1
    32   14   31 1
    33   14   32 1
    34   18   33 1
    35   19   34 1
    36   19   35 1
    37   20   36 1
    38   20   37 1
    39   21   38 1
    40   21   39 1
    41   22   40 1
    42   22   41 1
    43   22   42 1
@<TRIPOS>PROPERTY_DATA
  Total_Score	| 6.6800
  Crash		| -4.9549
  Polar		| 2.9503
  FragIndex	| 1
  FragRMSD	| 1.033

