@<TRIPOS>MOLECULE
BindingDB_50173556
 40 42 0 0 0
SMALL
NO_CHARGES


@<TRIPOS>ATOM
1    N        -5.0884   10.9344   27.1665  N     
2    C        -5.4504   11.1030   25.8830  C     
3    C        -5.0600   11.9489   28.2143  C     
4    N        -5.4862   10.0688   25.0444  N     
5    C        -4.7212    9.6724   27.5570  C     
6    O        -3.7554   11.9178   28.8365  O     
7    C        -5.4362   13.4453   27.9860  C     
8    C        -4.6758    8.6424   26.6927  C     
9    C        -5.0949    8.8543   25.4277  C     
10   C        -3.5744   13.1522   29.5486  C     
11   C        -3.1016   11.2193   32.2141  C     
12   C        -4.2656   14.1998   28.6428  C     
13   O        -5.7765   12.1706   25.3819  O     
14   O        -3.4430   12.5134   32.0070  O     
15   C        -4.1811   13.1503   30.9717  C     
16   O        -5.1495    7.9300   24.6227  O     
17   O        -3.3370   10.2903   31.2535  O     
18   C        -2.6165   10.8943   33.5113  C     
19   O        -3.3421   14.6766   27.6798  O     
20   C        -3.0185   11.6796   34.6290  C     
21   C        -1.7303    9.8158   33.7374  C     
22   C        -1.2403    9.5401   35.0312  C     
23   C        -2.5410   11.4036   35.9246  C     
24   C        -1.6562   10.3310   36.1224  C     
25   H        -5.7768   11.6066   28.9665  H     
26   H        -5.8227   10.1778   24.1450  H     
27   H        -4.4812    9.4815   28.4989  H     
28   H        -5.6044   13.7555   26.9659  H     
29   H        -6.3467   13.6875   28.5354  H     
30   H        -4.3424    7.7575   26.9803  H     
31   H        -2.4991   13.3597   29.6427  H     
32   H        -4.6162   15.0667   29.2091  H     
33   H        -4.2951   14.1841   31.3022  H     
34   H        -5.1783   12.7099   30.9575  H     
35   H        -2.8686   15.3920   28.1670  H     
36   H        -3.6702   12.4634   34.5163  H     
37   H        -1.4101    9.2328   32.9569  H     
38   H        -0.5912    8.7638   35.1878  H     
39   H        -2.8422   11.9776   36.7210  H     
40   H        -1.3342   10.1099   37.0644  H     
@<TRIPOS>BOND
     1    1    2 1
     2    1    3 1
     3    1    5 1
     4    2    4 1
     5    2   13 2
     6    3    6 1
     7    3    7 1
     8    4    9 1
     9    5    8 2
    10    6   10 1
    11    7   12 1
    12    8    9 1
    13    9   16 2
    14   10   12 1
    15   10   15 1
    16   11   14 1
    17   11   17 2
    18   11   18 1
    19   12   19 1
    20   14   15 1
    21   18   20 2
    22   18   21 1
    23   20   23 1
    24   21   22 2
    25   22   24 1
    26   23   24 2
    27    3   25 1
    28    4   26 1
    29    5   27 1
    30    7   28 1
    31    7   29 1
    32    8   30 1
    33   10   31 1
    34   12   32 1
    35   15   33 1
    36   15   34 1
    37   19   35 1
    38   20   36 1
    39   21   37 1
    40   22   38 1
    41   23   39 1
    42   24   40 1
@<TRIPOS>PROPERTY_DATA
  Total_Score	| 0.8342
  Crash		| -8.3533
  Polar		| 3.0381
  FragIndex	| 1
  FragRMSD	| 1.281

