@<TRIPOS>MOLECULE
BindingDB_50173541
 33 34 0 0 0
SMALL
NO_CHARGES


@<TRIPOS>ATOM
1    N        -4.9783   11.0006   27.2515  N     
2    C        -5.3128   11.3041   25.9748  C     
3    C        -4.8726   11.9362   28.3610  C     
4    N        -5.4064   10.3343   25.0629  N     
5    C        -4.7745    9.6798   27.5620  C     
6    O        -3.5375   11.9242   28.8993  O     
7    C        -5.1763   13.4441   28.2308  C     
8    C        -4.8671    8.7102   26.6365  C     
9    C        -5.1760    9.0610   25.3656  C     
10   C        -3.3778   13.0541   29.7734  C     
11   C        -4.6266   13.9480   29.5723  C     
12   O        -5.5646   12.4296   25.5688  O     
13   C        -1.3982   10.8142   31.1661  C     
14   C        -3.1410   12.6320   31.2472  C     
15   O        -5.2641    8.2180   24.4865  O     
16   O        -1.8443   12.0625   31.4654  O     
17   O        -2.2316    9.8631   30.6704  O     
18   O        -4.3351   15.3396   29.5977  O     
19   C         0.0011   10.4799   31.4540  C     
20   H        -5.5548   11.5548   29.1337  H     
21   H        -5.6490   10.5478   24.1474  H     
22   H        -4.5697    9.4011   28.4962  H     
23   H        -4.6237   13.8981   27.4029  H     
24   H        -6.2470   13.6418   28.1234  H     
25   H        -4.7172    7.7618   26.8791  H     
26   H        -2.4921   13.5929   29.4313  H     
27   H        -5.3730   13.7575   30.3495  H     
28   H        -3.1914   13.5258   31.8745  H     
29   H        -3.9175   11.9367   31.5785  H     
30   H        -3.4509   15.4549   29.1937  H     
31   H         0.6575   11.2321   31.0092  H     
32   H         0.2599    9.5004   31.0460  H     
33   H         0.1536   10.4634   32.5349  H     
@<TRIPOS>BOND
     1    1    2 1
     2    1    3 1
     3    1    5 1
     4    2    4 1
     5    2   12 2
     6    3    6 1
     7    3    7 1
     8    4    9 1
     9    5    8 2
    10    6   10 1
    11    7   11 1
    12    8    9 1
    13    9   15 2
    14   10   11 1
    15   10   14 1
    16   11   18 1
    17   13   16 1
    18   13   17 2
    19   13   19 1
    20   14   16 1
    21    3   20 1
    22    4   21 1
    23    5   22 1
    24    7   23 1
    25    7   24 1
    26    8   25 1
    27   10   26 1
    28   11   27 1
    29   14   28 1
    30   14   29 1
    31   18   30 1
    32   19   31 1
    33   19   32 1
    34   19   33 1
@<TRIPOS>PROPERTY_DATA
  Total_Score	| 5.7619
  Crash		| -2.8958
  Polar		| 3.3216
  FragIndex	| 1
  FragRMSD	| 1.014

