@<TRIPOS>MOLECULE
BindingDB_50173559
 30 31 0 0 0
SMALL
NO_CHARGES


@<TRIPOS>ATOM
1    N        -5.0747   10.9454   27.1547  N     
2    C        -5.3446   11.2899   25.8755  C     
3    C        -4.9140   11.8573   28.2732  C     
4    N        -5.4467   10.3426   24.9410  N     
5    C        -4.9543    9.6094   27.4486  C     
6    O        -3.5219   11.8876   28.6321  O     
7    C        -5.2988   13.3542   28.2544  C     
8    C        -5.0535    8.6632   26.4992  C     
9    C        -5.2915    9.0548   25.2256  C     
10   C        -3.2826   13.0103   29.4903  C     
11   C        -4.5966   13.8290   29.5385  C     
12   O        -5.5157   12.4336   25.4840  O     
13   O        -5.3736    8.2331   24.3244  O     
14   O        -4.3996   15.2380   29.6126  O     
15   N        -3.6032   11.6371   31.5882  N     
16   C        -2.6958   12.5196   30.8359  C     
17   H        -5.4816   11.4145   29.1039  H     
18   H        -5.6300   10.5877   24.0216  H     
19   H        -4.7946    9.3040   28.3843  H     
20   H        -4.8810   13.8694   27.3842  H     
21   H        -6.3812   13.5024   28.2972  H     
22   H        -4.9505    7.7043   26.7251  H     
23   H        -2.5156   13.6081   28.9932  H     
24   H        -5.2055   13.5433   30.4020  H     
25   H        -3.5105   15.4284   29.2443  H     
26   H        -4.2898   12.2133   32.0744  H     
27   H        -3.0751   11.1025   32.2793  H     
28   H        -4.1004   10.9970   30.9650  H     
29   H        -1.7762   11.9622   30.6321  H     
30   H        -2.4423   13.3802   31.4639  H     
@<TRIPOS>BOND
     1    1    2 1
     2    1    3 1
     3    1    5 1
     4    2    4 1
     5    2   12 2
     6    3    6 1
     7    3    7 1
     8    4    9 1
     9    5    8 2
    10    6   10 1
    11    7   11 1
    12    8    9 1
    13    9   13 2
    14   10   11 1
    15   10   16 1
    16   11   14 1
    17   15   16 1
    18    3   17 1
    19    4   18 1
    20    5   19 1
    21    7   20 1
    22    7   21 1
    23    8   22 1
    24   10   23 1
    25   11   24 1
    26   14   25 1
    27   15   26 1
    28   15   27 1
    29   15   28 1
    30   16   29 1
    31   16   30 1
@<TRIPOS>PROPERTY_DATA
  Total_Score	| 5.2848
  Crash		| -2.9224
  Polar		| 4.0916
  FragIndex	| 1
  FragRMSD	| 0.970

