@<TRIPOS>MOLECULE
BindingDB_50173549
 45 46 0 0 0
SMALL
NO_CHARGES


@<TRIPOS>ATOM
1    N        -5.0632   10.8553   27.1552  N     
2    C        -5.2749   11.2316   25.8732  C     
3    C        -4.8406   11.7922   28.2482  C     
4    N        -5.3943   10.3074   24.9220  N     
5    C        -4.9565    9.5040   27.4201  C     
6    O        -3.4577   12.1853   28.3354  O     
7    P        -2.3207   10.6492   31.8384  P     
8    C        -5.6064   13.1324   28.3425  C     
9    C        -5.0727    8.5845   26.4481  C     
10   C        -5.2896    9.0065   25.1807  C     
11   C        -3.3938   13.2934   29.2572  C     
12   C        -4.8470   13.7794   29.5076  C     
13   C        -2.6241   12.8376   30.5255  C     
14   O        -5.3709   12.3884   25.4942  O     
15   O        -3.2081   11.6130   30.9975  O     
16   O        -2.0267    9.5226   30.9891  O     
17   O        -5.3892    8.2076   24.2647  O     
18   O        -1.0227   11.2753   32.4368  O     
19   O        -3.1985    9.9950   32.9448  O     
20   O        -4.9621   15.1957   29.5252  O     
21   C         0.1804   11.2441   31.6393  C     
22   C        -4.1681   10.8041   33.6395  C     
23   C         0.9571   12.5522   31.8807  C     
24   C        -3.5637   11.9073   34.5380  C     
25   H        -5.0925   11.2706   29.1840  H     
26   H        -5.5429   10.5932   24.0080  H     
27   H        -4.7653    9.1670   28.3359  H     
28   H        -5.4908   13.7512   27.4485  H     
29   H        -6.6674   12.9867   28.5605  H     
30   H        -4.9838    7.6189   26.6500  H     
31   H        -2.8364   14.1011   28.7655  H     
32   H        -5.2425   13.3928   30.4567  H     
33   H        -1.5750   12.7109   30.2284  H     
34   H        -2.6909   13.6052   31.3066  H     
35   H        -4.5316   15.4646   30.3676  H     
36   H         0.7950   10.3943   31.9432  H     
37   H         0.0007   11.1609   30.5628  H     
38   H        -4.8855   11.2421   32.9406  H     
39   H        -4.7272   10.1200   34.2802  H     
40   H         0.3434   13.4044   31.5781  H     
41   H         1.8789   12.5488   31.2967  H     
42   H         1.2080   12.6543   32.9364  H     
43   H        -2.7786   11.4909   35.1688  H     
44   H        -4.3391   12.3396   35.1745  H     
45   H        -3.1369   12.7035   33.9297  H     
@<TRIPOS>BOND
     1    1    2 1
     2    1    3 1
     3    1    5 1
     4    2    4 1
     5    2   14 2
     6    3    6 1
     7    3    8 1
     8    4   10 1
     9    5    9 2
    10    6   11 1
    11    7   15 1
    12    7   16 2
    13    7   18 1
    14    7   19 1
    15    8   12 1
    16    9   10 1
    17   10   17 2
    18   11   12 1
    19   11   13 1
    20   12   20 1
    21   13   15 1
    22   18   21 1
    23   19   22 1
    24   21   23 1
    25   22   24 1
    26    3   25 1
    27    4   26 1
    28    5   27 1
    29    8   28 1
    30    8   29 1
    31    9   30 1
    32   11   31 1
    33   12   32 1
    34   13   33 1
    35   13   34 1
    36   20   35 1
    37   21   36 1
    38   21   37 1
    39   22   38 1
    40   22   39 1
    41   23   40 1
    42   23   41 1
    43   23   42 1
    44   24   43 1
    45   24   44 1
    46   24   45 1
@<TRIPOS>PROPERTY_DATA
  Total_Score	| 8.6815
  Crash		| -4.7892
  Polar		| 5.6718
  FragIndex	| 1
  FragRMSD	| 1.080

