@<TRIPOS>MOLECULE
BindingDB_50173548
 53 56 0 0 0
SMALL
NO_CHARGES


@<TRIPOS>ATOM
1    N        -5.0683   10.7331   27.3096  N     
2    C        -5.3178   10.7729   25.9899  C     
3    C        -4.9156   11.8591   28.1730  C     
4    N        -5.6132    9.6413   25.3481  N     
5    P        -3.3007   10.7040   31.2061  P     
6    C        -5.1622    9.5275   27.9695  C     
7    O        -3.5596   12.0210   28.6194  O     
8    C        -5.4509   13.2686   27.7981  C     
9    C        -5.4834    8.4014   27.3125  C     
10   C        -5.6695    8.4695   25.9725  C     
11   C        -3.5258   13.2363   29.3736  C     
12   C        -4.3993   14.1610   28.4672  C     
13   C        -4.0272   13.2074   30.8331  C     
14   O        -3.4620   12.1990   31.6698  O     
15   O        -5.4026   11.7776   25.2820  O     
16   O        -1.9904   10.4849   30.5048  O     
17   O        -3.4808   10.0196   32.6006  O     
18   O        -4.4552   10.2465   30.4283  O     
19   O        -5.9164    7.4553   25.3241  O     
20   O        -3.5808   14.6421   27.4081  O     
21   C        -0.8784   11.1878   30.9121  C     
22   C        -2.7394   10.3853   33.7027  C     
23   C        -0.7054   12.5732   31.1944  C     
24   C         0.2389   10.3065   31.0627  C     
25   C        -1.5940    9.6876   34.1461  C     
26   C        -3.3548   11.3624   34.5355  C     
27   C         1.5217   10.7477   31.4907  C     
28   C        -1.1179    9.9446   35.4402  C     
29   C        -2.7135   11.7998   35.7065  C     
30   C         0.5800   13.0446   31.5452  C     
31   C         1.6430   12.1391   31.6742  C     
32   C        -1.6273   11.0372   36.2138  C     
33   H        -5.4856   11.5829   29.0635  H     
34   H        -5.8404    9.6821   24.3959  H     
35   H        -5.0409    9.4763   28.9442  H     
36   H        -5.4507   13.4437   26.7140  H     
37   H        -6.4465   13.3859   28.1668  H     
38   H        -5.5797    7.5625   27.8231  H     
39   H        -2.4754   13.6088   29.4149  H     
40   H        -4.8333   14.9972   29.0370  H     
41   H        -3.6600   14.1173   31.3150  H     
42   H        -5.1251   13.1801   30.8787  H     
43   H        -3.3232   13.7950   26.9745  H     
44   H        -1.4805   13.2174   31.1772  H     
45   H         0.1019    9.3145   30.9190  H     
46   H        -1.1715    8.9367   33.6525  H     
47   H        -4.2614   11.7536   34.2555  H     
48   H         2.2775   10.0854   31.5629  H     
49   H        -0.3779    9.3699   35.8533  H     
50   H        -3.1608   12.4906   36.2846  H     
51   H         0.7807   14.0488   31.6189  H     
52   H         2.5587   12.4929   31.8257  H     
53   H        -1.2652   11.2688   37.1117  H     
@<TRIPOS>BOND
     1    1    2 1
     2    1    3 1
     3    1    6 1
     4    2    4 1
     5    2   15 2
     6    3    7 1
     7    3    8 1
     8    4   10 1
     9    5   14 1
    10    5   16 1
    11    5   17 1
    12    5   18 2
    13    6    9 2
    14    7   11 1
    15    8   12 1
    16    9   10 1
    17   10   19 2
    18   11   12 1
    19   11   13 1
    20   12   20 1
    21   13   14 1
    22   16   21 1
    23   17   22 1
    24   21   23 2
    25   21   24 1
    26   22   25 2
    27   22   26 1
    28   23   30 1
    29   24   27 2
    30   25   28 1
    31   26   29 2
    32   27   31 1
    33   28   32 2
    34   29   32 1
    35   30   31 2
    36    3   33 1
    37    4   34 1
    38    6   35 1
    39    8   36 1
    40    8   37 1
    41    9   38 1
    42   11   39 1
    43   12   40 1
    44   13   41 1
    45   13   42 1
    46   20   43 1
    47   23   44 1
    48   24   45 1
    49   25   46 1
    50   26   47 1
    51   27   48 1
    52   28   49 1
    53   29   50 1
    54   30   51 1
    55   31   52 1
    56   32   53 1
@<TRIPOS>PROPERTY_DATA
  Total_Score	| 1.2561
  Crash		| -11.4913
  Polar		| 3.7011
  FragIndex	| 1
  FragRMSD	| 1.390

