@<TRIPOS>MOLECULE
BindingDB_50173576
 43 45 0 0 0
SMALL
NO_CHARGES


@<TRIPOS>ATOM
1    N        -5.1870   10.8418   27.1747  N     
2    C        -5.4015   11.1311   25.8728  C     
3    C        -5.0374   11.8346   28.2207  C     
4    N        -5.5286   10.1435   24.9845  N     
5    C        -4.9635    9.5321   27.5110  C     
6    O        -3.6607   11.7789   28.6109  O     
7    C        -5.3936   13.3245   27.9486  C     
8    C        -5.0759    8.5410   26.6062  C     
9    C        -5.3653    8.8603   25.3217  C     
10   C        -3.3310   13.0468   29.1921  C     
11   C        -4.0621   14.0418   28.2609  C     
12   O        -5.5133   12.2742   25.4348  O     
13   O        -5.4970    7.9970   24.4678  O     
14   N        -3.8133   11.8873   31.4791  N     
15   O        -3.2903   14.2022   27.0669  O     
16   C        -3.7296   13.1540   30.6921  C     
17   C        -1.2906   11.3699   31.6028  C     
18   C        -2.6977   10.9004   31.5372  C     
19   C        -0.9447   12.7184   31.8628  C     
20   C        -0.2402   10.4314   31.4462  C     
21   C         1.1079   10.8371   31.4811  C     
22   C         0.3963   13.1391   31.8698  C     
23   C         1.4248   12.2021   31.6660  C     
24   H        -5.6263   11.5485   29.1065  H     
25   H        -5.7384   10.3613   24.0633  H     
26   H        -4.7181    9.2857   28.4424  H     
27   H        -5.7695   13.5125   26.9380  H     
28   H        -6.1679   13.6656   28.6469  H     
29   H        -4.9294    7.5962   26.8656  H     
30   H        -2.2419   13.1760   29.1217  H     
31   H        -4.2140   15.0194   28.7344  H     
32   H        -4.0523   12.1525   32.4421  H     
33   H        -4.6271   11.3766   31.1083  H     
34   H        -3.8562   13.8790   26.3298  H     
35   H        -3.0463   13.8528   31.1758  H     
36   H        -4.7196   13.6069   30.7720  H     
37   H        -2.8662   10.3009   32.4384  H     
38   H        -2.7995   10.2216   30.6842  H     
39   H        -1.6619   13.4026   32.0770  H     
40   H        -0.4467    9.4431   31.2895  H     
41   H         1.8554   10.1455   31.3671  H     
42   H         0.6258   14.1222   32.0422  H     
43   H         2.4018   12.5068   31.6810  H     
@<TRIPOS>BOND
     1    1    2 1
     2    1    3 1
     3    1    5 1
     4    2    4 1
     5    2   12 2
     6    3    6 1
     7    3    7 1
     8    4    9 1
     9    5    8 2
    10    6   10 1
    11    7   11 1
    12    8    9 1
    13    9   13 2
    14   10   11 1
    15   10   16 1
    16   11   15 1
    17   14   16 1
    18   14   18 1
    19   17   18 1
    20   17   19 2
    21   17   20 1
    22   19   22 1
    23   20   21 2
    24   21   23 1
    25   22   23 2
    26    3   24 1
    27    4   25 1
    28    5   26 1
    29    7   27 1
    30    7   28 1
    31    8   29 1
    32   10   30 1
    33   11   31 1
    34   14   32 1
    35   14   33 1
    36   15   34 1
    37   16   35 1
    38   16   36 1
    39   18   37 1
    40   18   38 1
    41   19   39 1
    42   20   40 1
    43   21   41 1
    44   22   42 1
    45   23   43 1
@<TRIPOS>PROPERTY_DATA
  Total_Score	| 4.6617
  Crash		| -6.2688
  Polar		| 3.4754
  FragIndex	| 1
  FragRMSD	| 1.393

