@<TRIPOS>MOLECULE
BindingDB_50167329
 45 46 0 0 0
SMALL
NO_CHARGES


@<TRIPOS>ATOM
1    S        -6.6533    1.1823   16.8544  S     
2    N        -2.1680    8.0482   13.3342  N     
3    N        -4.0261    8.0373   11.8992  N     
4    N        -2.3124    9.5979   11.5960  N     
5    C        -3.3649    7.5089   12.9577  C     
6    C        -3.5077    9.0906   11.2136  C     
7    C        -1.6331    9.0932   12.6520  C     
8    C        -5.7335    2.5135   16.2109  C     
9    O        -8.2362    1.3502   16.8045  O     
10   O        -6.2959   -0.0947   15.9812  O     
11   N        -3.9350    6.4709   13.6152  N     
12   N        -6.1563    0.7437   18.3957  N     
13   N        -0.4484    9.6716   12.9556  N     
14   N        -4.1058    9.6705   10.1490  N     
15   C        -6.3284    3.7826   16.0672  C     
16   C        -4.3780    2.3324   15.8612  C     
17   C        -3.3979    5.8663   14.7990  C     
18   C        -4.2095    4.7015   15.2428  C     
19   C        -5.5681    4.8701   15.5958  C     
20   C        -3.6259    3.4194   15.3830  C     
21   C        -5.3846    9.3178    9.6185  C     
22   C         0.4148    9.3107   14.0340  C     
23   C        -6.5352    9.8845   10.4707  C     
24   C        -0.1289    9.7823   15.3968  C     
25   H        -4.7833    6.1316   13.2814  H     
26   H        -6.0713   -0.2032   18.6303  H     
27   H        -6.0109    1.4316   19.0756  H     
28   H        -0.1517   10.3931   12.3777  H     
29   H        -3.6160   10.3795    9.6937  H     
30   H        -7.3025    3.9402   16.3415  H     
31   H        -3.9288    1.4275   15.9822  H     
32   H        -2.3610    5.5701   14.6028  H     
33   H        -3.3815    6.6120   15.6012  H     
34   H        -6.0072    5.7907   15.5269  H     
35   H        -2.6416    3.2720   15.1610  H     
36   H        -5.4543    9.7287    8.6099  H     
37   H        -5.4741    8.2321    9.5432  H     
38   H         0.5762    8.2327   14.0528  H     
39   H         1.3733    9.7918   13.8671  H     
40   H        -6.4612    9.5276   11.4996  H     
41   H        -7.4857    9.5510   10.0541  H     
42   H        -6.5139   10.9799   10.4712  H     
43   H        -0.2668   10.8724   15.4012  H     
44   H         0.5686    9.5268   16.1977  H     
45   H        -1.0897    9.3064   15.6090  H     
@<TRIPOS>BOND
     1    1    8 1
     2    1    9 2
     3    1   10 2
     4    1   12 am
     5    2    5 2
     6    2    7 1
     7    3    5 1
     8    3    6 2
     9    4    6 1
    10    4    7 2
    11    5   11 1
    12    6   14 1
    13    7   13 1
    14    8   15 1
    15    8   16 2
    16   11   17 1
    17   13   22 1
    18   14   21 1
    19   15   19 2
    20   16   20 1
    21   17   18 1
    22   18   19 1
    23   18   20 2
    24   21   23 1
    25   22   24 1
    26   11   25 1
    27   12   26 1
    28   12   27 1
    29   13   28 1
    30   14   29 1
    31   15   30 1
    32   16   31 1
    33   17   32 1
    34   17   33 1
    35   19   34 1
    36   20   35 1
    37   21   36 1
    38   21   37 1
    39   22   38 1
    40   22   39 1
    41   23   40 1
    42   23   41 1
    43   23   42 1
    44   24   43 1
    45   24   44 1
    46   24   45 1
@<TRIPOS>PROPERTY_DATA
  Total_Score	| 5.4100
  Crash		| -1.7278
  Polar		| 1.8454
  FragIndex	| 1
  FragRMSD	| 1.230

