@<TRIPOS>MOLECULE
BindingDB_50329772
 33 34 0 0 0
SMALL
NO_CHARGES


@<TRIPOS>ATOM
1    N        -4.0554    9.7679   11.3369  N     
2    C        -2.8957    9.3399   11.8932  C     
3    N        -2.8755    8.1345   12.5110  N     
4    C        -3.9792    7.3552   12.5789  C     
5    C        -5.1353    7.7681   11.9840  C     
6    C        -5.1531    9.0185   11.3877  C     
7    N        -3.9198    6.2006   13.1678  N     
8    C        -4.0441    4.7595   14.9897  C     
9    C        -5.4199    4.8016   15.3308  C     
10   C        -6.0771    3.6767   15.8633  C     
11   C        -5.3573    2.4784   16.0871  C     
12   C        -3.9902    2.4179   15.7487  C     
13   C        -3.3392    3.5503   15.2072  C     
14   S        -6.1435    1.1423   16.8952  S     
15   O        -5.7735   -0.2179   16.1577  O     
16   O        -5.7171    0.9983   18.4227  O     
17   N        -7.8227    1.1843   16.8507  N     
18   N        -6.1986    7.0108   11.9254  N     
19   O        -6.8175    6.6793   12.9892  O     
20   O        -6.4616    6.4466   10.9362  O     
21   O        -6.1711    9.5043   10.9118  O     
22   C        -3.3667    5.9479   14.4157  C     
23   H        -4.0731   10.6398   10.9114  H     
24   H        -2.0415    9.9004   11.8562  H     
25   H        -4.4400    5.5130   12.7940  H     
26   H        -5.9506    5.6685   15.2028  H     
27   H        -7.0565    3.7651   16.1407  H     
28   H        -3.4556    1.5663   15.9266  H     
29   H        -2.3518    3.4745   14.9780  H     
30   H        -8.3008    0.4221   16.4784  H     
31   H        -8.2951    1.9948   17.1237  H     
32   H        -2.2938    5.7912   14.3093  H     
33   H        -3.5198    6.7927   15.0945  H     
@<TRIPOS>BOND
     1    1    2 1
     2    1    6 1
     3    2    3 2
     4    3    4 1
     5    4    5 2
     6    4    7 1
     7    5    6 1
     8    5   18 am
     9    6   21 2
    10    7   22 1
    11    8    9 2
    12    8   13 1
    13    8   22 1
    14    9   10 1
    15   10   11 2
    16   11   12 1
    17   11   14 1
    18   12   13 2
    19   14   15 2
    20   14   16 2
    21   14   17 am
    22   18   19 1
    23   18   20 2
    24    1   23 1
    25    2   24 1
    26    7   25 1
    27    9   26 1
    28   10   27 1
    29   12   28 1
    30   13   29 1
    31   17   30 1
    32   17   31 1
    33   22   32 1
    34   22   33 1
@<TRIPOS>PROPERTY_DATA
  Total_Score	| 6.1959
  Crash		| -1.4381
  Polar		| 3.5420
  FragIndex	| 1
  FragRMSD	| 1.088

