@<TRIPOS>MOLECULE
BindingDB_50329768
 50 52 0 0 0
SMALL
NO_CHARGES


@<TRIPOS>ATOM
1    C        -4.1460    3.9403   15.3169  C     
2    C        -3.5364    2.7241   15.7023  C     
3    C        -4.2812    1.6987   16.3036  C     
4    C        -5.6560    1.8801   16.5494  C     
5    C        -6.2780    3.0861   16.1646  C     
6    C        -5.5325    4.1003   15.5362  C     
7    S        -6.5879    0.6445   17.3539  S     
8    O        -6.9910    1.2532   18.7678  O     
9    O        -7.9138    0.3685   16.5188  O     
10   N        -5.8084   -0.8147   17.6581  N     
11   C        -3.3304    4.9952   14.6544  C     
12   N        -4.2974    5.9392   12.5814  N     
13   N        -3.0509    9.7284   11.7006  N     
14   C        -2.2074    8.8217   12.2217  C     
15   N        -2.6876    7.5998   12.5090  N     
16   C        -3.9818    7.2344   12.3025  C     
17   C        -4.9061    8.1809   11.7567  C     
18   C        -4.3669    9.4771   11.4631  C     
19   N        -5.1012   10.5058   10.9635  N     
20   C        -4.6202   11.7819   10.5185  C     
21   C        -5.6588   12.8325   10.7095  C     
22   C        -5.4031   13.9922   11.4823  C     
23   C        -6.3890   14.9775   11.6453  C     
24   C        -7.6550   14.8103   11.0573  C     
25   C        -7.9235   13.6678   10.2853  C     
26   C        -6.9323   12.6923   10.1023  C     
27   N        -6.2223    7.8572   11.5221  N     
28   O        -7.0152    8.5937   11.0009  O     
29   O        -6.7717    6.7170   11.8309  O     
30   C        -3.4164    4.9401   13.1058  C     
31   H        -2.5408    2.5765   15.5457  H     
32   H        -3.8108    0.8264   16.5568  H     
33   H        -7.2759    3.2332   16.3436  H     
34   H        -6.0063    4.9614   15.2511  H     
35   H        -6.1911   -1.4364   18.3021  H     
36   H        -4.9143   -0.9827   17.3197  H     
37   H        -3.6225    5.9777   15.0370  H     
38   H        -2.2812    4.8699   14.9353  H     
39   H        -5.1802    5.6300   12.3617  H     
40   H        -1.2250    9.0456   12.3716  H     
41   H        -6.0508   10.3622   10.8492  H     
42   H        -3.6986   12.0666   11.0333  H     
43   H        -4.3888   11.7127    9.4524  H     
44   H        -4.4904   14.1256   11.9283  H     
45   H        -6.1907   15.8181   12.1900  H     
46   H        -8.3768   15.5277   11.1822  H     
47   H        -8.8406   13.5502    9.8503  H     
48   H        -7.1393   11.8706    9.5287  H     
49   H        -2.4187    5.0466   12.6747  H     
50   H        -3.7851    3.9700   12.7718  H     
@<TRIPOS>BOND
     1    1    2 2
     2    1    6 1
     3    1   11 1
     4    2    3 1
     5    3    4 2
     6    4    5 1
     7    4    7 1
     8    5    6 2
     9    7    8 2
    10    7    9 2
    11    7   10 am
    12   11   30 1
    13   12   16 1
    14   12   30 1
    15   13   14 2
    16   13   18 1
    17   14   15 1
    18   15   16 2
    19   16   17 1
    20   17   18 2
    21   17   27 am
    22   18   19 1
    23   19   20 1
    24   20   21 1
    25   21   22 2
    26   21   26 1
    27   22   23 1
    28   23   24 2
    29   24   25 1
    30   25   26 2
    31   27   28 2
    32   27   29 1
    33    2   31 1
    34    3   32 1
    35    5   33 1
    36    6   34 1
    37   10   35 1
    38   10   36 1
    39   11   37 1
    40   11   38 1
    41   12   39 1
    42   14   40 1
    43   19   41 1
    44   20   42 1
    45   20   43 1
    46   22   44 1
    47   23   45 1
    48   24   46 1
    49   25   47 1
    50   26   48 1
    51   30   49 1
    52   30   50 1
@<TRIPOS>PROPERTY_DATA
  Total_Score	| 5.8768
  Crash		| -2.1299
  Polar		| 2.2328
  FragIndex	| 1
  FragRMSD	| 0.947

