@<TRIPOS>MOLECULE
BindingDB_50329761
 35 36 0 0 0
SMALL
NO_CHARGES


@<TRIPOS>ATOM
1    C        -5.6964    2.4421   16.2153  C     
2    C        -6.3309    3.6883   16.0361  C     
3    C        -5.6263    4.7709   15.4751  C     
4    C        -4.2764    4.6253   15.0685  C     
5    C        -3.6561    3.3641   15.2393  C     
6    C        -4.3585    2.2862   15.8053  C     
7    S        -6.5330    1.1285   16.9782  S     
8    O        -8.1175    1.2127   16.9340  O     
9    O        -6.1658   -0.1572   16.1241  O     
10   N        -5.9535    0.7245   18.4991  N     
11   C        -3.5122    5.7852   14.5482  C     
12   N        -4.1654    6.3989   13.4336  N     
13   C        -4.6294    9.0250   11.0848  C     
14   N        -4.7540    7.9146   11.8527  N     
15   C        -3.8061    7.5124   12.7420  C     
16   C        -2.6198    8.2967   12.8587  C     
17   C        -2.4974    9.4449   12.0255  C     
18   N        -3.5001    9.7678   11.1733  N     
19   S        -5.8955    9.4460    9.9674  S     
20   C        -6.1773   11.1341   10.5540  C     
21   C        -1.6750    7.9964   13.6951  C     
22   N        -0.8444    7.7110   14.4566  N     
23   Cl       -1.1575   10.4849   12.0019  Cl    
24   H        -7.3022    3.8250   16.3246  H     
25   H        -6.1037    5.6744   15.3704  H     
26   H        -2.6799    3.2261   14.9576  H     
27   H        -3.8754    1.3936   15.9299  H     
28   H        -5.7830   -0.2143   18.7252  H     
29   H        -5.7898    1.4195   19.1697  H     
30   H        -3.4026    6.5291   15.3455  H     
31   H        -2.5086    5.4877   14.2345  H     
32   H        -5.0162    6.0125   13.1727  H     
33   H        -6.5484   11.1174   11.5799  H     
34   H        -6.9235   11.6038    9.9170  H     
35   H        -5.2601   11.7249   10.5073  H     
@<TRIPOS>BOND
     1    1    2 1
     2    1    6 2
     3    1    7 1
     4    2    3 2
     5    3    4 1
     6    4    5 2
     7    4   11 1
     8    5    6 1
     9    7    8 2
    10    7    9 2
    11    7   10 am
    12   11   12 1
    13   12   15 1
    14   13   14 1
    15   13   18 2
    16   13   19 1
    17   14   15 2
    18   15   16 1
    19   16   17 2
    20   16   21 1
    21   17   18 1
    22   17   23 1
    23   19   20 1
    24   21   22 3
    25    2   24 1
    26    3   25 1
    27    5   26 1
    28    6   27 1
    29   10   28 1
    30   10   29 1
    31   11   30 1
    32   11   31 1
    33   12   32 1
    34   20   33 1
    35   20   34 1
    36   20   35 1
@<TRIPOS>PROPERTY_DATA
  Total_Score	| 5.3392
  Crash		| -1.3354
  Polar		| 1.9646
  FragIndex	| 1
  FragRMSD	| 1.487

