@<TRIPOS>MOLECULE
BindingDB_50329770
 36 37 0 0 0
SMALL
NO_CHARGES


@<TRIPOS>ATOM
1    N        -3.2977    9.6981   11.1431  N     
2    C        -2.4026    9.0826   11.9457  C     
3    N        -2.7894    8.0023   12.6556  N     
4    C        -4.0526    7.4959   12.6065  C     
5    C        -5.0289    8.1210   11.7720  C     
6    C        -4.5811    9.2685   11.0531  C     
7    N        -4.3332    6.4231   13.3808  N     
8    C        -4.1030    4.6759   15.0075  C     
9    C        -5.4708    4.6644   15.3785  C     
10   C        -6.0668    3.5197   15.9270  C     
11   C        -5.2912    2.3684   16.1554  C     
12   C        -3.9215    2.3680   15.8170  C     
13   C        -3.3398    3.5133   15.2448  C     
14   S        -5.9872    0.9657   16.9026  S     
15   O        -5.9128   -0.2825   15.9289  O     
16   O        -5.0452    0.5546   18.1107  O     
17   N        -7.5377    1.0732   17.5294  N     
18   N        -6.3255    7.6868   11.6571  N     
19   O        -7.2084    8.2567   10.8802  O     
20   O        -6.7809    6.7494   12.2458  O     
21   O        -5.3831    9.9839   10.2056  O     
22   C        -6.0297   11.0986   10.8455  C     
23   C        -3.4919    5.8831   14.4014  C     
24   H        -1.4461    9.4234   11.9862  H     
25   H        -5.2111    6.0197   13.3077  H     
26   H        -6.0438    5.4973   15.2565  H     
27   H        -7.0629    3.5373   16.1661  H     
28   H        -3.3407    1.5449   15.9914  H     
29   H        -2.3406    3.4998   15.0237  H     
30   H        -7.6780    0.9954   18.4894  H     
31   H        -8.2870    1.2674   16.9419  H     
32   H        -6.6775   10.7725   11.6616  H     
33   H        -6.6485   11.6046   10.1054  H     
34   H        -5.2972   11.8109   11.2283  H     
35   H        -2.5099    5.6651   13.9622  H     
36   H        -3.3650    6.6328   15.1845  H     
@<TRIPOS>BOND
     1    1    2 2
     2    1    6 1
     3    2    3 1
     4    3    4 2
     5    4    5 1
     6    4    7 1
     7    5    6 2
     8    5   18 am
     9    6   21 1
    10    7   23 1
    11    8    9 2
    12    8   13 1
    13    8   23 1
    14    9   10 1
    15   10   11 2
    16   11   12 1
    17   11   14 1
    18   12   13 2
    19   14   15 2
    20   14   16 2
    21   14   17 am
    22   18   19 1
    23   18   20 2
    24   21   22 1
    25    2   24 1
    26    7   25 1
    27    9   26 1
    28   10   27 1
    29   12   28 1
    30   13   29 1
    31   17   30 1
    32   17   31 1
    33   22   32 1
    34   22   33 1
    35   22   34 1
    36   23   35 1
    37   23   36 1
@<TRIPOS>PROPERTY_DATA
  Total_Score	| 6.9654
  Crash		| -1.4349
  Polar		| 3.6371
  FragIndex	| 1
  FragRMSD	| 1.130

