@<TRIPOS>MOLECULE
BindingDB_50329767
 47 49 0 0 0
SMALL
NO_CHARGES


@<TRIPOS>ATOM
1    N        -3.0866    9.7924   11.4764  N     
2    C        -2.2212    9.1777   12.3069  C     
3    N        -2.5987    8.0278   12.9073  N     
4    C        -3.8120    7.4536   12.7061  C     
5    C        -4.7521    8.0735   11.8141  C     
6    C        -4.3146    9.2922   11.1858  C     
7    N        -4.0993    6.3427   13.4338  N     
8    C        -4.1251    4.6893   15.1527  C     
9    C        -5.4856    4.8465   15.5063  C     
10   C        -6.2283    3.7717   16.0239  C     
11   C        -5.6160    2.5223   16.2368  C     
12   C        -4.2514    2.3628   15.9171  C     
13   C        -3.5152    3.4331   15.3752  C     
14   S        -6.5407    1.2046   16.9050  S     
15   O        -8.0981    1.4847   17.0344  O     
16   O        -6.4008   -0.0194   15.9101  O     
17   N        -5.9432    0.6168   18.3596  N     
18   N        -6.0309    7.5932   11.6556  N     
19   O        -6.9663    8.1624   10.9468  O     
20   O        -6.4732    6.6444   12.2504  O     
21   N        -5.0912    9.9696   10.2944  N     
22   C        -6.2299   10.8094   10.5213  C     
23   C        -6.0808   12.2622   10.7815  C     
24   C        -7.1638   13.1364   10.5420  C     
25   C        -7.0596   14.5041   10.8537  C     
26   C        -5.8721   15.0123   11.4145  C     
27   C        -4.7899   14.1528   11.6685  C     
28   C        -4.8939   12.7864   11.3543  C     
29   C        -3.3777    5.8324   14.5599  C     
30   H        -1.3057    9.5829   12.4933  H     
31   H        -4.9331    5.8969   13.2510  H     
32   H        -5.9546    5.7435   15.3701  H     
33   H        -7.2136    3.9179   16.2550  H     
34   H        -3.7862    1.4648   16.0766  H     
35   H        -2.5309    3.2875   15.1461  H     
36   H        -5.7047   -0.3245   18.4415  H     
37   H        -5.7859    1.2236   19.0998  H     
38   H        -5.0488    9.6502    9.3836  H     
39   H        -6.8715   10.7102    9.6403  H     
40   H        -6.7771   10.3373   11.3383  H     
41   H        -8.0381   12.7826   10.1426  H     
42   H        -7.8480   15.1286   10.6735  H     
43   H        -5.8039   16.0059   11.6495  H     
44   H        -3.9324   14.5176   12.0891  H     
45   H        -4.1035   12.1764   11.5711  H     
46   H        -2.3729    5.5451   14.2387  H     
47   H        -3.2860    6.6102   15.3223  H     
@<TRIPOS>BOND
     1    1    2 2
     2    1    6 1
     3    2    3 1
     4    3    4 2
     5    4    5 1
     6    4    7 1
     7    5    6 2
     8    5   18 am
     9    6   21 1
    10    7   29 1
    11    8    9 2
    12    8   13 1
    13    8   29 1
    14    9   10 1
    15   10   11 2
    16   11   12 1
    17   11   14 1
    18   12   13 2
    19   14   15 2
    20   14   16 2
    21   14   17 am
    22   18   19 1
    23   18   20 2
    24   21   22 1
    25   22   23 1
    26   23   24 2
    27   23   28 1
    28   24   25 1
    29   25   26 2
    30   26   27 1
    31   27   28 2
    32    2   30 1
    33    7   31 1
    34    9   32 1
    35   10   33 1
    36   12   34 1
    37   13   35 1
    38   17   36 1
    39   17   37 1
    40   21   38 1
    41   22   39 1
    42   22   40 1
    43   24   41 1
    44   25   42 1
    45   26   43 1
    46   27   44 1
    47   28   45 1
    48   29   46 1
    49   29   47 1
@<TRIPOS>PROPERTY_DATA
  Total_Score	| 7.2425
  Crash		| -1.7895
  Polar		| 3.1584
  FragIndex	| 1
  FragRMSD	| 1.016

