@<TRIPOS>MOLECULE
BindingDB_50329766
 44 46 0 0 0
SMALL
NO_CHARGES


@<TRIPOS>ATOM
1    C        -5.2054   11.6315   10.8163  C     
2    C        -6.3634   12.4137   11.0345  C     
3    C        -6.3245   13.8168   10.9452  C     
4    C        -5.1234   14.4703   10.6077  C     
5    C        -3.9740   13.6982   10.3333  C     
6    C        -4.0169   12.2939   10.4258  C     
7    S        -5.0513   16.2087   10.5279  S     
8    O        -4.5326   16.5913    9.0729  O     
9    O        -6.4582   16.9311   10.7103  O     
10   N        -3.9325   16.8582   11.6028  N     
11   N        -5.3546   10.2871   11.0283  N     
12   N        -2.6601    7.7735   12.8010  N     
13   C        -2.2628    8.9505   12.2827  C     
14   N        -3.1830    9.7307   11.6838  N     
15   C        -4.4764    9.3581   11.4994  C     
16   C        -4.8997    8.0588   11.9350  C     
17   C        -3.9304    7.3041   12.6782  C     
18   N        -4.2221    6.1500   13.3378  N     
19   C        -3.6262    5.6913   14.5564  C     
20   C        -4.4087    4.5692   15.1415  C     
21   C        -5.7323    4.7804   15.6057  C     
22   C        -6.4839    3.7180   16.1427  C     
23   C        -5.9135    2.4345   16.2466  C     
24   C        -4.5938    2.2144   15.8123  C     
25   C        -3.8499    3.2727   15.2579  C     
26   N        -6.1700    7.5867   11.6962  N     
27   O        -6.5748    6.5201   12.0689  O     
28   O        -7.0624    8.1890   10.9583  O     
29   H        -7.2460   11.9660   11.2979  H     
30   H        -7.1747   14.3513   11.1386  H     
31   H        -3.0964   14.1511   10.0646  H     
32   H        -3.1721   11.7673   10.1927  H     
33   H        -3.2383   17.4574   11.2770  H     
34   H        -4.0599   16.7388   12.5589  H     
35   H        -6.2765   10.0100   11.0243  H     
36   H        -1.3024    9.2713   12.3968  H     
37   H        -4.9705    5.6290   13.0240  H     
38   H        -2.5930    5.3916   14.3502  H     
39   H        -3.6050    6.5107   15.2845  H     
40   H        -6.1596    5.7096   15.5478  H     
41   H        -7.4429    3.8789   16.4620  H     
42   H        -6.4571    1.6625   16.6397  H     
43   H        -4.1770    1.2830   15.8922  H     
44   H        -2.8959    3.0875   14.9388  H     
@<TRIPOS>BOND
     1    1    2 2
     2    1    6 1
     3    1   11 1
     4    2    3 1
     5    3    4 2
     6    4    5 1
     7    4    7 1
     8    5    6 2
     9    7    8 2
    10    7    9 2
    11    7   10 am
    12   11   15 1
    13   12   13 2
    14   12   17 1
    15   13   14 1
    16   14   15 2
    17   15   16 1
    18   16   17 2
    19   16   26 am
    20   17   18 1
    21   18   19 1
    22   19   20 1
    23   20   21 2
    24   20   25 1
    25   21   22 1
    26   22   23 2
    27   23   24 1
    28   24   25 2
    29   26   27 2
    30   26   28 1
    31    2   29 1
    32    3   30 1
    33    5   31 1
    34    6   32 1
    35   10   33 1
    36   10   34 1
    37   11   35 1
    38   13   36 1
    39   18   37 1
    40   19   38 1
    41   19   39 1
    42   21   40 1
    43   22   41 1
    44   23   42 1
    45   24   43 1
    46   25   44 1
@<TRIPOS>PROPERTY_DATA
  Total_Score	| 3.6595
  Crash		| -0.9114
  Polar		| 1.3767
  FragIndex	| 1
  FragRMSD	| 0.837

