@<TRIPOS>MOLECULE
BindingDB_50153976
 39 40 0 0 0
SMALL
NO_CHARGES


@<TRIPOS>ATOM
1    S        -6.5793    1.1329   16.8591  S     
2    N        -4.4226    8.1220   11.9854  N     
3    N        -2.3303    7.9696   13.0378  N     
4    N        -2.7289    9.6458   11.4627  N     
5    C        -3.5994    7.5048   12.8645  C     
6    C        -1.8817    9.0399   12.3292  C     
7    C        -4.0013    9.2051   11.2794  C     
8    C        -5.6841    2.4750   16.2086  C     
9    O        -8.1562    1.3299   16.8325  O     
10   O        -6.2410   -0.1128   15.9398  O     
11   N        -4.0999    6.4613   13.5651  N     
12   N        -6.0281    0.6399   18.3591  N     
13   N        -4.7745    9.8885   10.4093  N     
14   N        -0.6253    9.5417   12.4279  N     
15   C        -4.3293    2.3141   15.8614  C     
16   C        -6.3046    3.7268   16.0540  C     
17   C        -3.4475    5.8332   14.6739  C     
18   C        -4.2160    4.6667   15.1836  C     
19   C        -5.5764    4.8136   15.5441  C     
20   C        -3.6043    3.4026   15.3530  C     
21   C        -6.1403    9.6072   10.1392  C     
22   C         0.3968    9.0121   13.2605  C     
23   H        -5.0080    6.1736   13.3572  H     
24   H        -6.0158   -0.3106   18.5832  H     
25   H        -5.7982    1.3015   19.0375  H     
26   H        -4.3697   10.6423    9.9572  H     
27   H        -0.4152   10.3093   11.8798  H     
28   H        -3.8621    1.4164   15.9825  H     
29   H        -7.2854    3.8668   16.3178  H     
30   H        -2.4382    5.5369   14.3720  H     
31   H        -3.3598    6.5635   15.4874  H     
32   H        -6.0397    5.7235   15.4523  H     
33   H        -2.6174    3.2744   15.1230  H     
34   H        -6.2529    8.6088    9.7176  H     
35   H        -6.4973   10.3361    9.4177  H     
36   H        -6.7348    9.6933   11.0482  H     
37   H         0.1095    9.0758   14.3083  H     
38   H         1.2986    9.5981   13.1073  H     
39   H         0.6034    7.9767   12.9964  H     
@<TRIPOS>BOND
     1    1    8 1
     2    1    9 2
     3    1   10 2
     4    1   12 am
     5    2    5 1
     6    2    7 2
     7    3    5 2
     8    3    6 1
     9    4    6 2
    10    4    7 1
    11    5   11 1
    12    6   14 1
    13    7   13 1
    14    8   15 1
    15    8   16 2
    16   11   17 1
    17   13   21 1
    18   14   22 1
    19   15   20 2
    20   16   19 1
    21   17   18 1
    22   18   19 2
    23   18   20 1
    24   11   23 1
    25   12   24 1
    26   12   25 1
    27   13   26 1
    28   14   27 1
    29   15   28 1
    30   16   29 1
    31   17   30 1
    32   17   31 1
    33   19   32 1
    34   20   33 1
    35   21   34 1
    36   21   35 1
    37   21   36 1
    38   22   37 1
    39   22   38 1
    40   22   39 1
@<TRIPOS>PROPERTY_DATA
  Total_Score	| 4.8450
  Crash		| -1.1522
  Polar		| 1.7698
  FragIndex	| 1
  FragRMSD	| 1.027

