@<TRIPOS>MOLECULE
BindingDB_50329771
 39 40 0 0 0
SMALL
NO_CHARGES


@<TRIPOS>ATOM
1    N        -3.8521   10.4554   11.0968  N     
2    C        -2.6676    9.8682   11.3452  C     
3    N        -2.6732    8.6041   11.7980  N     
4    C        -3.8001    7.8829   12.0233  C     
5    C        -5.0929    8.4603   11.7348  C     
6    C        -5.0451    9.8180   11.2631  C     
7    N        -3.3844    6.7208   12.5908  N     
8    C        -4.2078    4.2786   15.3288  C     
9    C        -3.5761    3.0393   15.5783  C     
10   C        -4.3075    1.9468   16.0742  C     
11   C        -5.6907    2.0774   16.3155  C     
12   C        -6.3280    3.3135   16.1010  C     
13   C        -5.5881    4.4084   15.6257  C     
14   S        -6.5997    0.7443   16.9456  S     
15   O        -8.1660    0.8453   16.6913  O     
16   O        -6.0813   -0.5749   16.2304  O     
17   N        -6.2509    0.5587   18.5736  N     
18   N        -6.3240    7.8282   11.8261  N     
19   O        -7.4623    8.4273   11.6099  O     
20   O        -6.5474    6.6559   11.9766  O     
21   O        -6.2024   10.5183   10.9698  O     
22   C        -6.1464   11.8309   10.3792  C     
23   C        -4.1188    5.8003   13.3613  C     
24   C        -3.4488    5.3927   14.6965  C     
25   H        -1.7906   10.3704   11.1976  H     
26   H        -2.4205    6.5804   12.6041  H     
27   H        -2.5793    2.9215   15.3882  H     
28   H        -3.8244    1.0624   16.2514  H     
29   H        -7.3270    3.4330   16.2950  H     
30   H        -6.0701    5.2999   15.4858  H     
31   H        -5.7361   -0.2151   18.8507  H     
32   H        -6.3059    1.3341   19.1579  H     
33   H        -5.6791   12.5477   11.0639  H     
34   H        -7.1633   12.1701   10.1649  H     
35   H        -5.5855   11.7995    9.4360  H     
36   H        -5.0168    6.2971   13.6497  H     
37   H        -4.3390    4.9214   12.7446  H     
38   H        -3.4372    6.2494   15.3824  H     
39   H        -2.4056    5.1131   14.5028  H     
@<TRIPOS>BOND
     1    1    2 2
     2    1    6 1
     3    2    3 1
     4    3    4 2
     5    4    5 1
     6    4    7 1
     7    5    6 2
     8    5   18 am
     9    6   21 1
    10    7   23 1
    11    8    9 2
    12    8   13 1
    13    8   24 1
    14    9   10 1
    15   10   11 2
    16   11   12 1
    17   11   14 1
    18   12   13 2
    19   14   15 2
    20   14   16 2
    21   14   17 am
    22   18   19 1
    23   18   20 2
    24   21   22 1
    25   23   24 1
    26    2   25 1
    27    7   26 1
    28    9   27 1
    29   10   28 1
    30   12   29 1
    31   13   30 1
    32   17   31 1
    33   17   32 1
    34   22   33 1
    35   22   34 1
    36   22   35 1
    37   23   36 1
    38   23   37 1
    39   24   38 1
    40   24   39 1
@<TRIPOS>PROPERTY_DATA
  Total_Score	| 4.9731
  Crash		| -2.3869
  Polar		| 2.4504
  FragIndex	| 1
  FragRMSD	| 1.361

