@<TRIPOS>MOLECULE
BindingDB_50329764
 36 37 0 0 0
SMALL
NO_CHARGES


@<TRIPOS>ATOM
1    N        -2.9723    9.6958   11.4941  N     
2    C        -2.1507    8.9545   12.2738  C     
3    N        -2.6470    7.8418   12.8594  N     
4    C        -3.9371    7.4262   12.6888  C     
5    C        -4.8165    8.1808   11.8558  C     
6    C        -4.2645    9.3565   11.2705  C     
7    N        -4.3361    6.3206   13.3712  N     
8    C        -4.2900    4.5408   15.0053  C     
9    C        -5.5844    4.7728   15.5274  C     
10   C        -6.3218    3.7252   16.1082  C     
11   C        -5.7638    2.4342   16.2061  C     
12   C        -4.4509    2.2088   15.7453  C     
13   C        -3.7256    3.2502   15.1418  C     
14   S        -6.6759    1.1389   16.9275  S     
15   O        -8.2066    1.3287   16.5490  O     
16   O        -6.2256   -0.2895   16.4001  O     
17   N        -6.5917    1.1868   18.6005  N     
18   C        -6.1612    7.8437   11.6478  C     
19   O        -6.6372    6.7416   11.8855  O     
20   Cl       -5.1030   10.4438   10.2741  Cl    
21   S        -0.5095    9.4853   12.4872  S     
22   C         0.1192    8.2540   13.6522  C     
23   C        -3.5402    5.6383   14.3510  C     
24   H        -5.2446    6.0027   13.2528  H     
25   H        -6.0024    5.7030   15.4787  H     
26   H        -7.2651    3.9136   16.4576  H     
27   H        -4.0191    1.2821   15.8390  H     
28   H        -2.7753    3.0627   14.8085  H     
29   H        -7.4168    1.1076   19.1070  H     
30   H        -5.8233    1.6098   19.0195  H     
31   H        -6.7921    8.5051   11.2552  H     
32   H        -0.4451    8.2878   14.5836  H     
33   H         1.1657    8.4775   13.8680  H     
34   H         0.0560    7.2558   13.2204  H     
35   H        -2.6298    5.2623   13.8694  H     
36   H        -3.2387    6.3458   15.1296  H     
@<TRIPOS>BOND
     1    1    2 2
     2    1    6 1
     3    2    3 1
     4    2   21 1
     5    3    4 2
     6    4    5 1
     7    4    7 1
     8    5    6 2
     9    5   18 1
    10    6   20 1
    11    7   23 1
    12    8    9 2
    13    8   13 1
    14    8   23 1
    15    9   10 1
    16   10   11 2
    17   11   12 1
    18   11   14 1
    19   12   13 2
    20   14   15 2
    21   14   16 2
    22   14   17 am
    23   18   19 2
    24   21   22 1
    25    7   24 1
    26    9   25 1
    27   10   26 1
    28   12   27 1
    29   13   28 1
    30   17   29 1
    31   17   30 1
    32   18   31 1
    33   22   32 1
    34   22   33 1
    35   22   34 1
    36   23   35 1
    37   23   36 1
@<TRIPOS>PROPERTY_DATA
  Total_Score	| 5.9025
  Crash		| -1.5440
  Polar		| 3.0335
  FragIndex	| 1
  FragRMSD	| 0.925

