@<TRIPOS>MOLECULE
BindingDB_26444
 49 50 0 0 0
SMALL
NO_CHARGES


@<TRIPOS>ATOM
1    C       -24.3547    3.8789   19.9185  C     
2    C       -24.8999    5.1998   20.2920  C     
3    O       -24.2060    5.9985   21.1434  O     
4    O       -26.0427    5.6758   19.7347  O     
5    C       -25.4447    2.8455   19.5345  C     
6    C       -26.5509    2.6399   20.6100  C     
7    C       -27.4257    1.4728   20.3696  C     
8    O       -27.3382    0.7194   19.2468  O     
9    O       -28.4254    1.2139   21.2376  O     
10   N       -23.4552    4.0396   18.8163  N     
11   S       -21.8360    4.4827   18.9877  S     
12   O       -21.7247    5.5870   20.1256  O     
13   O       -21.4308    5.2526   17.6584  O     
14   C       -20.7688    3.1328   19.3063  C     
15   C       -19.0270    1.5695   18.5690  C     
16   C       -18.1044    1.1006   17.6235  C     
17   C       -17.3123    0.0453   17.9084  C     
18   C       -17.3508   -0.5747   19.1286  C     
19   C       -18.2696   -0.2099   20.0525  C     
20   C       -19.1061    0.8938   19.8244  C     
21   C       -20.0035    1.3659   20.8088  C     
22   C       -20.8226    2.4812   20.5554  C     
23   C       -19.8598    2.6849   18.3182  C     
24   C       -15.6617   -1.4378   20.5400  C     
25   O       -16.4711   -1.5700   19.3481  O     
26   C       -14.2036   -1.8882   20.2759  C     
27   C       -13.4440   -0.9844   19.2607  C     
28   C       -11.9045   -1.0407   19.4415  C     
29   H       -23.7918    3.4899   20.7707  H     
30   H       -25.9241    3.1570   18.5926  H     
31   H       -24.9550    1.8878   19.3523  H     
32   H       -26.0694    2.5034   21.5822  H     
33   H       -27.1647    3.5483   20.6557  H     
34   H       -23.8355    4.1465   17.9220  H     
35   H       -18.0317    1.5489   16.7401  H     
36   H       -16.6624   -0.2626   17.2219  H     
37   H       -18.3195   -0.6888   20.9248  H     
38   H       -20.0655    0.9088   21.7237  H     
39   H       -21.4700    2.8095   21.2812  H     
40   H       -19.8115    3.1582   17.4131  H     
41   H       -15.6330   -0.4099   20.9253  H     
42   H       -16.0761   -2.0885   21.3163  H     
43   H       -13.6593   -1.8725   21.2266  H     
44   H       -14.1972   -2.9194   19.9016  H     
45   H       -13.6867   -1.3076   18.2373  H     
46   H       -13.7666    0.0610   19.3766  H     
47   H       -11.6142   -0.5191   20.3676  H     
48   H       -11.4098   -0.5457   18.5990  H     
49   H       -11.5451   -2.0777   19.4985  H     
@<TRIPOS>BOND
     1    1    2 1
     2    1    5 1
     3    1   10 1
     4    2    3 2
     5    2    4 1
     6    5    6 1
     7    6    7 1
     8    7    8 2
     9    7    9 1
    10   10   11 1
    11   11   12 2
    12   11   13 2
    13   11   14 1
    14   14   22 2
    15   14   23 1
    16   15   16 1
    17   15   20 1
    18   15   23 2
    19   16   17 2
    20   17   18 1
    21   18   19 2
    22   18   25 1
    23   19   20 1
    24   20   21 2
    25   21   22 1
    26   24   25 1
    27   24   26 1
    28   26   27 1
    29   27   28 1
    30    1   29 1
    31    5   30 1
    32    5   31 1
    33    6   32 1
    34    6   33 1
    35   10   34 1
    36   16   35 1
    37   17   36 1
    38   19   37 1
    39   21   38 1
    40   22   39 1
    41   23   40 1
    42   24   41 1
    43   24   42 1
    44   26   43 1
    45   26   44 1
    46   27   45 1
    47   27   46 1
    48   28   47 1
    49   28   48 1
    50   28   49 1
@<TRIPOS>PROPERTY_DATA
  Total_Score	| 11.1052
  Crash		| -0.8920
  Polar		| 5.4664
  FragIndex	| 1
  FragRMSD	| 0.915

