@<TRIPOS>MOLECULE
BindingDB_26449
 48 49 0 0 0
SMALL
NO_CHARGES


@<TRIPOS>ATOM
1    C       -24.3463    3.9065   20.0346  C     
2    C       -24.9389    5.1881   20.4706  C     
3    O       -24.1719    6.1002   21.0972  O     
4    O       -26.1797    5.5661   20.0715  O     
5    C       -25.4182    2.8694   19.5799  C     
6    C       -26.5209    2.6370   20.6418  C     
7    C       -27.3634    1.4583   20.3701  C     
8    O       -27.1842    0.6530   19.2933  O     
9    O       -28.3925    1.1817   21.2017  O     
10   N       -23.4656    4.1645   18.9477  N     
11   S       -21.8279    4.5064   19.1370  S     
12   O       -21.6165    5.6219   20.2634  O     
13   O       -21.4146    5.2745   17.7993  O     
14   C       -20.7991    3.1241   19.3846  C     
15   C       -19.0494    1.6025   18.5743  C     
16   C       -18.1952    1.1440   17.5657  C     
17   C       -17.3942    0.0765   17.7767  C     
18   C       -17.3418   -0.5626   18.9971  C     
19   C       -18.1837   -0.1779   19.9900  C     
20   C       -19.0638    0.9077   19.8200  C     
21   C       -19.9868    1.3062   20.8147  C     
22   C       -20.8487    2.3990   20.5950  C     
23   C       -19.9131    2.7064   18.3703  C     
24   C       -15.1571   -1.4854   19.0906  C     
25   O       -16.5936   -1.6721   19.1178  O     
26   C       -14.4799   -2.0631   20.3689  C     
27   C       -13.3358   -1.1974   20.9414  C     
28   C       -12.0240   -1.4378   20.3086  C     
29   O       -11.7573   -0.9588   19.0651  O     
30   O       -10.9971   -1.9088   21.0618  O     
31   H       -23.7889    3.4690   20.8684  H     
32   H       -25.8702    3.2064   18.6453  H     
33   H       -24.9065    1.9210   19.3744  H     
34   H       -26.0523    2.4958   21.6181  H     
35   H       -27.1608    3.5233   20.6974  H     
36   H       -23.8532    4.3620   18.0824  H     
37   H       -18.2166    1.5556   16.6641  H     
38   H       -16.8587   -0.2781   17.0268  H     
39   H       -18.1801   -0.6826   20.8538  H     
40   H       -20.0392    0.8001   21.7067  H     
41   H       -21.4949    2.6765   21.3375  H     
42   H       -19.8784    3.2055   17.4867  H     
43   H       -14.7697   -2.0338   18.2160  H     
44   H       -14.8774   -0.4390   18.9491  H     
45   H       -15.2443   -2.1869   21.1452  H     
46   H       -14.0846   -3.0740   20.1383  H     
47   H       -13.5994   -0.1322   20.8391  H     
48   H       -13.2530   -1.4111   22.0144  H     
@<TRIPOS>BOND
     1    1    2 1
     2    1    5 1
     3    1   10 1
     4    2    3 2
     5    2    4 1
     6    5    6 1
     7    6    7 1
     8    7    8 2
     9    7    9 1
    10   10   11 1
    11   11   12 2
    12   11   13 2
    13   11   14 1
    14   14   22 2
    15   14   23 1
    16   15   16 1
    17   15   20 1
    18   15   23 2
    19   16   17 2
    20   17   18 1
    21   18   19 2
    22   18   25 1
    23   19   20 1
    24   20   21 2
    25   21   22 1
    26   24   25 1
    27   24   26 1
    28   26   27 1
    29   27   28 1
    30   28   29 2
    31   28   30 1
    32    1   31 1
    33    5   32 1
    34    5   33 1
    35    6   34 1
    36    6   35 1
    37   10   36 1
    38   16   37 1
    39   17   38 1
    40   19   39 1
    41   21   40 1
    42   22   41 1
    43   23   42 1
    44   24   43 1
    45   24   44 1
    46   26   45 1
    47   26   46 1
    48   27   47 1
    49   27   48 1
@<TRIPOS>PROPERTY_DATA
  Total_Score	| 11.5534
  Crash		| -0.7579
  Polar		| 6.8124
  FragIndex	| 1
  FragRMSD	| 1.003

