@<TRIPOS>MOLECULE
BindingDB_26465
 49 50 0 0 0
SMALL
NO_CHARGES


@<TRIPOS>ATOM
1    C       -19.7982    3.6469   17.6087  C     
2    C       -19.7893    2.1433   19.5418  C     
3    C       -20.2391    1.6949   20.7971  C     
4    C       -19.6958    0.6138   21.3924  C     
5    C       -18.7196   -0.1150   20.7774  C     
6    C       -18.1821    0.2728   19.5971  C     
7    C       -18.7298    1.3898   18.9307  C     
8    C       -18.2523    1.7759   17.6592  C     
9    C       -18.7752    2.8987   17.0112  C     
10   C       -20.3156    3.2905   18.8732  C     
11   O       -21.3781    4.6237   21.0376  O     
12   O       -21.6328    5.7487   18.8350  O     
13   S       -21.6058    4.3023   19.4985  S     
14   N       -23.1369    3.6537   19.2005  N     
15   C       -24.2046    3.6692   20.1478  C     
16   C       -24.7705    5.0320   20.2251  C     
17   O       -25.8087    5.4095   19.4440  O     
18   O       -24.2116    5.9548   21.0421  O     
19   C       -25.2417    2.5665   19.7557  C     
20   C       -26.5199    2.5404   20.6363  C     
21   C       -27.3926    1.3632   20.4481  C     
22   O       -27.2996    0.5687   19.3581  O     
23   O       -28.4825    1.2199   21.2326  O     
24   O       -17.1726   -0.4205   19.0280  O     
25   C       -16.0895   -0.8461   19.8744  C     
26   C       -14.7539   -0.8646   19.0899  C     
27   C       -13.7067   -1.8039   19.7494  C     
28   C       -12.2620   -1.2592   19.6713  C     
29   H       -20.1644    4.4526   17.1012  H     
30   H       -20.9457    2.1800   21.2856  H     
31   H       -19.9963    0.3612   22.3081  H     
32   H       -18.3895   -0.9377   21.2237  H     
33   H       -17.5161    1.2471   17.1923  H     
34   H       -18.4143    3.1698   16.1006  H     
35   H       -23.3753    3.5229   18.2704  H     
36   H       -23.8010    3.4096   21.1322  H     
37   H       -25.5314    2.6894   18.7066  H     
38   H       -24.7426    1.5945   19.8438  H     
39   H       -26.2242    2.5466   21.6858  H     
40   H       -27.1122    3.4330   20.4371  H     
41   H       -15.9694   -0.1878   20.7386  H     
42   H       -16.3119   -1.8532   20.2341  H     
43   H       -14.9330   -1.1944   18.0621  H     
44   H       -14.3636    0.1564   19.0452  H     
45   H       -13.9438   -1.9446   20.8066  H     
46   H       -13.7443   -2.7855   19.2635  H     
47   H       -11.9733   -1.0723   18.6332  H     
48   H       -11.5668   -1.9853   20.1078  H     
49   H       -12.1870   -0.3227   20.2308  H     
@<TRIPOS>BOND
     1    1    9 2
     2    1   10 1
     3    2    3 1
     4    2    7 1
     5    2   10 2
     6    3    4 2
     7    4    5 1
     8    5    6 2
     9    6    7 1
    10    6   24 1
    11    7    8 2
    12    8    9 1
    13   10   13 1
    14   11   13 2
    15   12   13 2
    16   13   14 1
    17   14   15 1
    18   15   16 1
    19   15   19 1
    20   16   17 2
    21   16   18 1
    22   19   20 1
    23   20   21 1
    24   21   22 2
    25   21   23 1
    26   24   25 1
    27   25   26 1
    28   26   27 1
    29   27   28 1
    30    1   29 1
    31    3   30 1
    32    4   31 1
    33    5   32 1
    34    8   33 1
    35    9   34 1
    36   14   35 1
    37   15   36 1
    38   19   37 1
    39   19   38 1
    40   20   39 1
    41   20   40 1
    42   25   41 1
    43   25   42 1
    44   26   43 1
    45   26   44 1
    46   27   45 1
    47   27   46 1
    48   28   47 1
    49   28   48 1
    50   28   49 1
@<TRIPOS>PROPERTY_DATA
  Total_Score	| 10.0765
  Crash		| -1.3046
  Polar		| 5.3426
  FragIndex	| 1
  FragRMSD	| 1.179

