@<TRIPOS>MOLECULE
BindingDB_26446
 55 56 0 0 0
SMALL
NO_CHARGES


@<TRIPOS>ATOM
1    C       -24.3241    3.8695   19.9520  C     
2    C       -24.9306    5.1715   20.2890  C     
3    O       -24.2628    6.0402   21.0768  O     
4    O       -26.1078    5.5579   19.7519  O     
5    C       -25.3710    2.7881   19.5619  C     
6    C       -26.4988    2.5895   20.6136  C     
7    C       -27.3616    1.4146   20.3871  C     
8    O       -28.4180    1.2159   21.2034  O     
9    O       -27.2438    0.6173   19.3015  O     
10   N       -23.4024    4.0625   18.8793  N     
11   S       -21.7930    4.4993   19.1241  S     
12   O       -21.7009    5.5295   20.3333  O     
13   O       -21.3396    5.3526   17.8583  O     
14   C       -20.7632    3.1185   19.3799  C     
15   C       -19.0535    1.5457   18.5957  C     
16   C       -18.1382    1.0939   17.6378  C     
17   C       -17.3506    0.0300   17.8977  C     
18   C       -17.4083   -0.6348   19.0986  C     
19   C       -18.3360   -0.2850   20.0193  C     
20   C       -19.1566    0.8297   19.8230  C     
21   C       -20.0595    1.2688   20.8136  C     
22   C       -20.8513    2.4077   20.5941  C     
23   C       -19.8665    2.6818   18.3816  C     
24   C       -15.7603   -1.7217   20.4745  C     
25   O       -16.5707   -1.6756   19.2753  O     
26   C       -14.9727   -0.4277   20.8195  C     
27   C       -13.8188   -0.0345   19.8587  C     
28   C       -12.8453   -1.1514   19.3918  C     
29   C       -11.9910   -1.8959   20.4564  C     
30   C       -10.9990   -1.0358   21.2805  C     
31   H       -23.7880    3.4953   20.8291  H     
32   H       -25.8222    3.0444   18.5994  H     
33   H       -24.8402    1.8404   19.4402  H     
34   H       -26.0524    2.4857   21.6058  H     
35   H       -27.1382    3.4761   20.6197  H     
36   H       -23.7616    4.1654   17.9860  H     
37   H       -18.0530    1.5605   16.7629  H     
38   H       -16.7066   -0.2716   17.2029  H     
39   H       -18.4195   -0.8119   20.8567  H     
40   H       -20.1380    0.7712   21.7038  H     
41   H       -21.4895    2.7128   21.3320  H     
42   H       -19.8011    3.1910   17.4958  H     
43   H       -16.3756   -1.9988   21.3336  H     
44   H       -15.0521   -2.5372   20.3441  H     
45   H       -15.6838    0.4015   20.8444  H     
46   H       -14.5719   -0.5183   21.8306  H     
47   H       -14.2581    0.4131   18.9636  H     
48   H       -13.2386    0.7540   20.3413  H     
49   H       -13.4286   -1.8994   18.8482  H     
50   H       -12.1541   -0.7038   18.6721  H     
51   H       -12.6505   -2.4329   21.1405  H     
52   H       -11.4129   -2.6566   19.9251  H     
53   H       -10.7956   -0.0843   20.7948  H     
54   H       -10.0519   -1.5660   21.4046  H     
55   H       -11.3998   -0.8535   22.2768  H     
@<TRIPOS>BOND
     1    1    2 1
     2    1    5 1
     3    1   10 1
     4    2    3 2
     5    2    4 1
     6    5    6 1
     7    6    7 1
     8    7    8 2
     9    7    9 1
    10   10   11 1
    11   11   12 2
    12   11   13 2
    13   11   14 1
    14   14   22 2
    15   14   23 1
    16   15   16 1
    17   15   20 1
    18   15   23 2
    19   16   17 2
    20   17   18 1
    21   18   19 2
    22   18   25 1
    23   19   20 1
    24   20   21 2
    25   21   22 1
    26   24   25 1
    27   24   26 1
    28   26   27 1
    29   27   28 1
    30   28   29 1
    31   29   30 1
    32    1   31 1
    33    5   32 1
    34    5   33 1
    35    6   34 1
    36    6   35 1
    37   10   36 1
    38   16   37 1
    39   17   38 1
    40   19   39 1
    41   21   40 1
    42   22   41 1
    43   23   42 1
    44   24   43 1
    45   24   44 1
    46   26   45 1
    47   26   46 1
    48   27   47 1
    49   27   48 1
    50   28   49 1
    51   28   50 1
    52   29   51 1
    53   29   52 1
    54   30   53 1
    55   30   54 1
    56   30   55 1
@<TRIPOS>PROPERTY_DATA
  Total_Score	| 12.3456
  Crash		| -1.2055
  Polar		| 5.4904
  FragIndex	| 1
  FragRMSD	| 0.780

