@<TRIPOS>MOLECULE
BindingDB_26466
 49 50 0 0 0
SMALL
NO_CHARGES


@<TRIPOS>ATOM
1    C       -20.6794    2.5437   21.5930  C     
2    C       -19.7969    2.1139   19.3512  C     
3    C       -19.7281    2.3246   17.9623  C     
4    C       -18.8599    1.6431   17.1903  C     
5    C       -18.0596    0.6792   17.7187  C     
6    C       -18.1317    0.3567   19.0254  C     
7    C       -18.9836    1.0660   19.8874  C     
8    C       -19.0442    0.7585   21.2692  C     
9    C       -19.9045    1.4941   22.1108  C     
10   C       -20.6180    2.8788   20.2218  C     
11   O       -21.5888    5.4178   20.7854  O     
12   O       -20.8544    4.9950   18.4639  O     
13   S       -21.5485    4.2629   19.6927  S     
14   N       -23.1207    3.8697   19.2254  N     
15   C       -24.1860    3.7853   20.1708  C     
16   C       -24.7795    5.1322   20.3370  C     
17   O       -25.8118    5.5474   19.5640  O     
18   O       -24.2020    6.0166   21.1813  O     
19   C       -25.2258    2.7126   19.7308  C     
20   C       -26.4390    2.5876   20.6946  C     
21   C       -27.3232    1.4423   20.4275  C     
22   O       -27.2041    0.6545   19.3341  O     
23   O       -28.3699    1.2212   21.2497  O     
24   O       -18.3781   -0.3204   21.7954  O     
25   C       -16.9781   -0.1617   22.1068  C     
26   C       -16.1687   -1.3609   21.5117  C     
27   C       -14.9975   -0.9417   20.5905  C     
28   C       -14.5330   -2.0868   19.6508  C     
29   H       -21.2860    3.0582   22.2273  H     
30   H       -20.3508    2.9535   17.5133  H     
31   H       -18.8234    1.8289   16.2115  H     
32   H       -17.4389    0.1867   17.1239  H     
33   H       -17.5679   -0.3889   19.3574  H     
34   H       -19.9692    1.2685   23.1057  H     
35   H       -23.3338    3.8946   18.2834  H     
36   H       -23.7832    3.4645   21.1383  H     
37   H       -25.5897    2.9549   18.7268  H     
38   H       -24.7147    1.7482   19.6762  H     
39   H       -26.0645    2.4881   21.7154  H     
40   H       -27.0353    3.5001   20.6445  H     
41   H       -16.5702    0.7862   21.7503  H     
42   H       -16.8812   -0.1727   23.1965  H     
43   H       -15.7577   -1.9572   22.3327  H     
44   H       -16.8435   -2.0179   20.9618  H     
45   H       -15.2866   -0.0932   19.9658  H     
46   H       -14.1429   -0.6335   21.2053  H     
47   H       -14.2886   -2.9849   20.2317  H     
48   H       -13.6463   -1.7802   19.0927  H     
49   H       -15.3214   -2.3333   18.9407  H     
@<TRIPOS>BOND
     1    1    9 2
     2    1   10 1
     3    2    3 1
     4    2    7 1
     5    2   10 2
     6    3    4 2
     7    4    5 1
     8    5    6 2
     9    6    7 1
    10    7    8 2
    11    8    9 1
    12    8   24 1
    13   10   13 1
    14   11   13 2
    15   12   13 2
    16   13   14 1
    17   14   15 1
    18   15   16 1
    19   15   19 1
    20   16   17 2
    21   16   18 1
    22   19   20 1
    23   20   21 1
    24   21   22 2
    25   21   23 1
    26   24   25 1
    27   25   26 1
    28   26   27 1
    29   27   28 1
    30    1   29 1
    31    3   30 1
    32    4   31 1
    33    5   32 1
    34    6   33 1
    35    9   34 1
    36   14   35 1
    37   15   36 1
    38   19   37 1
    39   19   38 1
    40   20   39 1
    41   20   40 1
    42   25   41 1
    43   25   42 1
    44   26   43 1
    45   26   44 1
    46   27   45 1
    47   27   46 1
    48   28   47 1
    49   28   48 1
    50   28   49 1
@<TRIPOS>PROPERTY_DATA
  Total_Score	| 8.3879
  Crash		| -0.8736
  Polar		| 5.3399
  FragIndex	| 1
  FragRMSD	| 1.094

