@<TRIPOS>MOLECULE
BindingDB_26448
 42 43 0 0 0
SMALL
NO_CHARGES


@<TRIPOS>ATOM
1    C       -24.3624    3.9053   20.1128  C     
2    C       -24.9686    5.1886   20.5304  C     
3    O       -26.1219    5.6178   19.9623  O     
4    O       -24.1763    6.1349   21.0847  O     
5    C       -25.4041    2.8284   19.6889  C     
6    C       -26.5719    2.6042   20.6861  C     
7    C       -27.4080    1.4244   20.4108  C     
8    O       -27.2602    0.6316   19.3277  O     
9    O       -28.4569    1.1753   21.2195  O     
10   N       -23.4649    4.1675   19.0268  N     
11   S       -21.8344    4.5393   19.2427  S     
12   O       -21.6558    5.5250   20.4838  O     
13   O       -21.4129    5.4500   18.0047  O     
14   C       -20.7843    3.1698   19.4047  C     
15   C       -19.0475    1.6997   18.5160  C     
16   C       -18.1966    1.3040   17.4844  C     
17   C       -17.3908    0.2054   17.6524  C     
18   C       -17.3604   -0.4990   18.8272  C     
19   C       -18.1742   -0.1418   19.8604  C     
20   C       -19.0348    0.9498   19.7392  C     
21   C       -19.9115    1.3371   20.7747  C     
22   C       -20.7774    2.4264   20.6077  C     
23   C       -19.9124    2.7912   18.3560  C     
24   C       -15.4302   -1.9195   18.2696  C     
25   O       -16.6279   -1.6257   19.0197  O     
26   C       -15.7256   -2.4847   16.9552  C     
27   O       -15.5403   -1.7995   15.8038  O     
28   O       -16.3643   -3.6889   16.8526  O     
29   H       -23.8039    3.4976   20.9624  H     
30   H       -25.8211    3.0980   18.7151  H     
31   H       -24.8571    1.8895   19.5720  H     
32   H       -26.1683    2.4978   21.6938  H     
33   H       -27.2240    3.4793   20.6730  H     
34   H       -23.8580    4.3847   18.1667  H     
35   H       -18.1871    1.8043   16.6188  H     
36   H       -16.8470   -0.0719   16.8727  H     
37   H       -18.1626   -0.6731   20.7012  H     
38   H       -19.9072    0.8218   21.6586  H     
39   H       -21.3928    2.6893   21.3769  H     
40   H       -19.9087    3.3234   17.4748  H     
41   H       -14.7782   -1.0422   18.1943  H     
42   H       -14.8621   -2.6731   18.8313  H     
@<TRIPOS>BOND
     1    1    2 1
     2    1    5 1
     3    1   10 1
     4    2    3 2
     5    2    4 1
     6    5    6 1
     7    6    7 1
     8    7    8 2
     9    7    9 1
    10   10   11 1
    11   11   12 2
    12   11   13 2
    13   11   14 1
    14   14   22 2
    15   14   23 1
    16   15   16 1
    17   15   20 1
    18   15   23 2
    19   16   17 2
    20   17   18 1
    21   18   19 2
    22   18   25 1
    23   19   20 1
    24   20   21 2
    25   21   22 1
    26   24   25 1
    27   24   26 1
    28   26   27 2
    29   26   28 1
    30    1   29 1
    31    5   30 1
    32    5   31 1
    33    6   32 1
    34    6   33 1
    35   10   34 1
    36   16   35 1
    37   17   36 1
    38   19   37 1
    39   21   38 1
    40   22   39 1
    41   23   40 1
    42   24   41 1
    43   24   42 1
@<TRIPOS>PROPERTY_DATA
  Total_Score	| 10.5164
  Crash		| -0.8196
  Polar		| 7.7702
  FragIndex	| 1
  FragRMSD	| 1.095

