@<TRIPOS>MOLECULE
BindingDB_26463
 52 53 0 0 0
SMALL
NO_CHARGES


@<TRIPOS>ATOM
1    C       -24.3300    3.9018   19.7407  C     
2    C       -24.9663    5.1762   20.1556  C     
3    O       -26.2156    5.5071   19.7339  O     
4    O       -24.3239    5.9890   21.0204  O     
5    C       -25.3577    2.7542   19.4556  C     
6    C       -26.4038    2.5563   20.5959  C     
7    C       -27.2870    1.3832   20.3999  C     
8    O       -27.1598    0.5396   19.3528  O     
9    O       -28.3475    1.2144   21.2168  O     
10   N       -23.3976    4.1631   18.6570  N     
11   C       -20.7853    3.1683   19.3455  C     
12   C       -19.0674    1.5809   18.5807  C     
13   C       -18.1605    1.1311   17.6249  C     
14   C       -17.3737    0.0733   17.8913  C     
15   C       -17.4260   -0.5783   19.0924  C     
16   C       -18.3390   -0.2288   20.0275  C     
17   C       -19.1686    0.8775   19.8173  C     
18   C       -20.0634    1.3411   20.8062  C     
19   C       -20.8721    2.4742   20.5767  C     
20   C       -19.8845    2.7134   18.3505  C     
21   C       -15.7511   -1.4506   20.5107  C     
22   O       -16.5275   -1.5510   19.2927  O     
23   C       -14.2861   -1.8846   20.2679  C     
24   C       -13.5499   -0.9765   19.2430  C     
25   C       -12.0036   -0.9638   19.4336  C     
26   S       -21.7952    4.5659   19.0642  S     
27   O       -21.8058    5.5182   20.3446  O     
28   O       -21.1461    5.5224   17.9606  O     
29   C       -23.8341    4.4633   17.3121  C     
30   H       -23.7563    3.5331   20.6007  H     
31   H       -25.8879    2.9633   18.5167  H     
32   H       -24.7945    1.8190   19.3218  H     
33   H       -25.8836    2.4433   21.5557  H     
34   H       -27.0385    3.4447   20.6552  H     
35   H       -18.0748    1.6004   16.7569  H     
36   H       -16.7280   -0.2250   17.2015  H     
37   H       -18.3772   -0.7210   20.8855  H     
38   H       -20.1431    0.8679   21.7027  H     
39   H       -21.5136    2.7973   21.3114  H     
40   H       -19.8294    3.2157   17.4646  H     
41   H       -15.7336   -0.4318   20.9297  H     
42   H       -16.1830   -2.1239   21.2600  H     
43   H       -13.7505   -1.8583   21.2201  H     
44   H       -14.2622   -2.9160   19.8970  H     
45   H       -13.7598   -1.3268   18.2243  H     
46   H       -13.8976    0.0646   19.3177  H     
47   H       -11.7496   -0.4436   20.3689  H     
48   H       -11.5235   -0.4316   18.5989  H     
49   H       -11.6033   -1.9871   19.4729  H     
50   H       -24.7621    3.9253   17.0574  H     
51   H       -23.0568    4.1682   16.5865  H     
52   H       -24.0177    5.5452   17.2212  H     
@<TRIPOS>BOND
     1    1    2 1
     2    1    5 1
     3    1   10 1
     4    2    3 2
     5    2    4 1
     6    5    6 1
     7    6    7 1
     8    7    8 2
     9    7    9 1
    10   10   26 1
    11   10   29 1
    12   11   19 2
    13   11   20 1
    14   11   26 1
    15   12   13 1
    16   12   17 1
    17   12   20 2
    18   13   14 2
    19   14   15 1
    20   15   16 2
    21   15   22 1
    22   16   17 1
    23   17   18 2
    24   18   19 1
    25   21   22 1
    26   21   23 1
    27   23   24 1
    28   24   25 1
    29   26   27 2
    30   26   28 2
    31    1   30 1
    32    5   31 1
    33    5   32 1
    34    6   33 1
    35    6   34 1
    36   13   35 1
    37   14   36 1
    38   16   37 1
    39   18   38 1
    40   19   39 1
    41   20   40 1
    42   21   41 1
    43   21   42 1
    44   23   43 1
    45   23   44 1
    46   24   45 1
    47   24   46 1
    48   25   47 1
    49   25   48 1
    50   25   49 1
    51   29   50 1
    52   29   51 1
    53   29   52 1
@<TRIPOS>PROPERTY_DATA
  Total_Score	| 10.9700
  Crash		| -0.9711
  Polar		| 5.5246
  FragIndex	| 1
  FragRMSD	| 0.638

