@<TRIPOS>MOLECULE
BindingDB_26443
 46 47 0 0 0
SMALL
NO_CHARGES


@<TRIPOS>ATOM
1    C       -24.3487    3.9039   20.0145  C     
2    C       -24.9450    5.1898   20.4281  C     
3    O       -26.1914    5.5643   20.0306  O     
4    O       -24.1990    6.0680   21.1313  O     
5    C       -25.3815    2.8099   19.5981  C     
6    C       -26.4991    2.5740   20.6502  C     
7    C       -27.3391    1.3749   20.4202  C     
8    O       -27.2269    0.5852   19.3280  O     
9    O       -28.4391    1.1995   21.1983  O     
10   N       -23.4627    4.1576   18.9178  N     
11   S       -21.8331    4.5036   19.1317  S     
12   O       -21.6419    5.5767   20.3003  O     
13   O       -21.3916    5.3097   17.8239  O     
14   C       -20.8154    3.1183   19.3825  C     
15   C       -19.0838    1.5820   18.5992  C     
16   C       -18.2129    1.1176   17.6129  C     
17   C       -17.3642    0.0792   17.8700  C     
18   C       -17.2932   -0.4839   19.1259  C     
19   C       -18.1778   -0.1154   20.0813  C     
20   C       -19.0871    0.9210   19.8605  C     
21   C       -19.9957    1.3456   20.8532  C     
22   C       -20.8637    2.4308   20.6132  C     
23   C       -19.9505    2.6694   18.3599  C     
24   C       -15.0308   -0.9229   19.6683  C     
25   O       -16.3833   -1.4035   19.4706  O     
26   C       -14.0820   -2.1320   19.8987  C     
27   C       -12.6080   -1.7173   20.0601  C     
28   H       -23.7641    3.4920   20.8524  H     
29   H       -25.8451    3.0923   18.6429  H     
30   H       -24.8358    1.8674   19.4468  H     
31   H       -26.0479    2.4725   21.6432  H     
32   H       -27.1672    3.4399   20.6632  H     
33   H       -23.8504    4.3390   18.0409  H     
34   H       -18.2100    1.5018   16.6960  H     
35   H       -16.7947   -0.2765   17.1456  H     
36   H       -18.1557   -0.5565   20.9823  H     
37   H       -20.0312    0.8767   21.7638  H     
38   H       -21.5024    2.7272   21.3540  H     
39   H       -19.9368    3.1384   17.4604  H     
40   H       -14.7253   -0.3955   18.7543  H     
41   H       -14.9274   -0.2336   20.5220  H     
42   H       -14.4186   -2.6704   20.7959  H     
43   H       -14.1735   -2.8156   19.0409  H     
44   H       -12.2672   -1.1669   19.1794  H     
45   H       -11.9914   -2.6164   20.1804  H     
46   H       -12.4912   -1.0836   20.9453  H     
@<TRIPOS>BOND
     1    1    2 1
     2    1    5 1
     3    1   10 1
     4    2    3 2
     5    2    4 1
     6    5    6 1
     7    6    7 1
     8    7    8 2
     9    7    9 1
    10   10   11 1
    11   11   12 2
    12   11   13 2
    13   11   14 1
    14   14   22 2
    15   14   23 1
    16   15   16 1
    17   15   20 1
    18   15   23 2
    19   16   17 2
    20   17   18 1
    21   18   19 2
    22   18   25 1
    23   19   20 1
    24   20   21 2
    25   21   22 1
    26   24   25 1
    27   24   26 1
    28   26   27 1
    29    1   28 1
    30    5   29 1
    31    5   30 1
    32    6   31 1
    33    6   32 1
    34   10   33 1
    35   16   34 1
    36   17   35 1
    37   19   36 1
    38   21   37 1
    39   22   38 1
    40   23   39 1
    41   24   40 1
    42   24   41 1
    43   26   42 1
    44   26   43 1
    45   27   44 1
    46   27   45 1
    47   27   46 1
@<TRIPOS>PROPERTY_DATA
  Total_Score	| 10.1405
  Crash		| -0.6364
  Polar		| 5.5046
  FragIndex	| 1
  FragRMSD	| 0.739

