@<TRIPOS>MOLECULE
BindingDB_26445
 52 53 0 0 0
SMALL
NO_CHARGES


@<TRIPOS>ATOM
1    C       -24.3062    3.8336   20.1062  C     
2    C       -24.9112    5.1294   20.4654  C     
3    O       -26.0860    5.5136   19.9105  O     
4    O       -24.1326    6.0870   21.0143  O     
5    C       -25.3603    2.7661   19.6839  C     
6    C       -26.5193    2.5553   20.7017  C     
7    C       -27.3811    1.3955   20.4206  C     
8    O       -27.2040    0.5967   19.3465  O     
9    O       -28.4503    1.1662   21.2032  O     
10   N       -23.4025    4.0527   19.0194  N     
11   S       -21.7776    4.4523   19.2178  S     
12   O       -21.6330    5.4727   20.4329  O     
13   O       -21.3530    5.3259   17.9588  O     
14   C       -20.7268    3.0696   19.4427  C     
15   C       -19.0163    1.4981   18.6369  C     
16   C       -18.1174    1.0484   17.6657  C     
17   C       -17.3308   -0.0193   17.9011  C     
18   C       -17.3568   -0.6787   19.1016  C     
19   C       -18.2609   -0.3312   20.0497  C     
20   C       -19.0882    0.7852   19.8701  C     
21   C       -19.9633    1.2413   20.8775  C     
22   C       -20.7651    2.3778   20.6677  C     
23   C       -19.8446    2.6273   18.4307  C     
24   C       -15.6047   -1.7503   20.3953  C     
25   O       -16.4811   -1.7046   19.2333  O     
26   C       -14.6518   -0.5336   20.6215  C     
27   C       -13.5984   -0.2768   19.5014  C     
28   C       -12.1096   -0.7282   19.7255  C     
29   C       -11.6054   -0.8170   21.1827  C     
30   H       -23.7681    3.4387   20.9735  H     
31   H       -25.7947    3.0446   18.7146  H     
32   H       -24.8400    1.8107   19.5478  H     
33   H       -26.0939    2.4323   21.7024  H     
34   H       -27.1559    3.4481   20.7109  H     
35   H       -23.7862    4.1380   18.1293  H     
36   H       -18.0500    1.5116   16.7922  H     
37   H       -16.7166   -0.3342   17.1889  H     
38   H       -18.3123   -0.8574   20.8934  H     
39   H       -20.0161    0.7612   21.7785  H     
40   H       -21.3777    2.7027   21.4248  H     
41   H       -19.8040    3.1365   17.5416  H     
42   H       -16.2162   -1.8663   21.2994  H     
43   H       -14.9965   -2.6674   20.3076  H     
44   H       -15.2531    0.3668   20.7403  H     
45   H       -14.1401   -0.6658   21.5711  H     
46   H       -13.9518   -0.7309   18.5591  H     
47   H       -13.5750    0.8121   19.3224  H     
48   H       -11.9742   -1.7099   19.2628  H     
49   H       -11.4531   -0.0328   19.1838  H     
50   H       -11.8024    0.1119   21.7270  H     
51   H       -10.5201   -0.9957   21.1857  H     
52   H       -12.0804   -1.6562   21.6890  H     
@<TRIPOS>BOND
     1    1    2 1
     2    1    5 1
     3    1   10 1
     4    2    3 2
     5    2    4 1
     6    5    6 1
     7    6    7 1
     8    7    8 2
     9    7    9 1
    10   10   11 1
    11   11   12 2
    12   11   13 2
    13   11   14 1
    14   14   22 2
    15   14   23 1
    16   15   16 1
    17   15   20 1
    18   15   23 2
    19   16   17 2
    20   17   18 1
    21   18   19 2
    22   18   25 1
    23   19   20 1
    24   20   21 2
    25   21   22 1
    26   24   25 1
    27   24   26 1
    28   26   27 1
    29   27   28 1
    30   28   29 1
    31    1   30 1
    32    5   31 1
    33    5   32 1
    34    6   33 1
    35    6   34 1
    36   10   35 1
    37   16   36 1
    38   17   37 1
    39   19   38 1
    40   21   39 1
    41   22   40 1
    42   23   41 1
    43   24   42 1
    44   24   43 1
    45   26   44 1
    46   26   45 1
    47   27   46 1
    48   27   47 1
    49   28   48 1
    50   28   49 1
    51   29   50 1
    52   29   51 1
    53   29   52 1
@<TRIPOS>PROPERTY_DATA
  Total_Score	| 11.2449
  Crash		| -0.8783
  Polar		| 5.3234
  FragIndex	| 1
  FragRMSD	| 0.721

