@<TRIPOS>MOLECULE
BindingDB_26450
 50 52 0 0 0
SMALL
NO_CHARGES


@<TRIPOS>ATOM
1    C       -24.3565    3.7953   19.9544  C     
2    C       -24.9460    5.1189   20.2439  C     
3    O       -26.0912    5.5239   19.6401  O     
4    O       -24.3166    5.9517   21.1033  O     
5    C       -25.4081    2.7042   19.6096  C     
6    C       -26.5529    2.5538   20.6590  C     
7    C       -27.3999    1.3600   20.4498  C     
8    O       -28.5144    1.2416   21.2168  O     
9    O       -27.2981    0.5811   19.3519  O     
10   N       -23.4551    3.9376   18.8510  N     
11   S       -21.8522    4.4299   19.0096  S     
12   O       -21.7680    5.6136   20.0792  O     
13   O       -21.4622    5.1520   17.6456  O     
14   C       -20.7268    3.1537   19.3876  C     
15   C       -18.9482    1.5994   18.7166  C     
16   C       -18.0877    1.0400   17.7602  C     
17   C       -17.2547    0.0351   18.0933  C     
18   C       -17.1734   -0.4380   19.3808  C     
19   C       -17.9951    0.0563   20.3373  C     
20   C       -18.9018    1.0786   20.0495  C     
21   C       -19.7799    1.6060   21.0262  C     
22   C       -20.6838    2.6228   20.6967  C     
23   C       -19.8562    2.6301   18.4049  C     
24   O       -16.3405   -1.4475   19.6753  O     
25   C       -15.0327   -1.0686   20.1641  C     
26   C       -14.2671   -2.3080   20.6679  C     
27   C       -12.7770   -1.9148   20.6364  C     
28   C       -12.6552   -0.7823   19.5965  C     
29   C       -14.0849   -0.5115   19.0837  C     
30   H       -23.7952    3.4537   20.8319  H     
31   H       -25.8526    2.9255   18.6253  H     
32   H       -24.8801    1.7468   19.5312  H     
33   H       -26.1073    2.4841   21.6593  H     
34   H       -27.1918    3.4461   20.6107  H     
35   H       -23.8342    3.9273   17.9476  H     
36   H       -18.0984    1.3789   16.8232  H     
37   H       -16.6732   -0.3590   17.3923  H     
38   H       -17.9472   -0.3181   21.2574  H     
39   H       -19.7628    1.2381   21.9838  H     
40   H       -21.3104    2.9853   21.4220  H     
41   H       -19.8914    3.0052   17.4513  H     
42   H       -15.1125   -0.3552   20.9922  H     
43   H       -14.5888   -2.5964   21.6756  H     
44   H       -14.4302   -3.1493   19.9934  H     
45   H       -12.4654   -1.5569   21.6227  H     
46   H       -12.1555   -2.7682   20.3668  H     
47   H       -12.2518    0.1172   20.0689  H     
48   H       -11.9946   -1.0641   18.7747  H     
49   H       -14.2454   -1.0449   18.1435  H     
50   H       -14.2562    0.5564   18.9201  H     
@<TRIPOS>BOND
     1    1    2 1
     2    1    5 1
     3    1   10 1
     4    2    3 2
     5    2    4 1
     6    5    6 1
     7    6    7 1
     8    7    8 2
     9    7    9 1
    10   10   11 1
    11   11   12 2
    12   11   13 2
    13   11   14 1
    14   14   22 2
    15   14   23 1
    16   15   16 1
    17   15   20 1
    18   15   23 2
    19   16   17 2
    20   17   18 1
    21   18   19 2
    22   18   24 1
    23   19   20 1
    24   20   21 2
    25   21   22 1
    26   24   25 1
    27   25   26 1
    28   25   29 1
    29   26   27 1
    30   27   28 1
    31   28   29 1
    32    1   30 1
    33    5   31 1
    34    5   32 1
    35    6   33 1
    36    6   34 1
    37   10   35 1
    38   16   36 1
    39   17   37 1
    40   19   38 1
    41   21   39 1
    42   22   40 1
    43   23   41 1
    44   25   42 1
    45   26   43 1
    46   26   44 1
    47   27   45 1
    48   27   46 1
    49   28   47 1
    50   28   48 1
    51   29   49 1
    52   29   50 1
@<TRIPOS>PROPERTY_DATA
  Total_Score	| 11.4948
  Crash		| -1.0696
  Polar		| 5.4455
  FragIndex	| 1
  FragRMSD	| 0.476

