@<TRIPOS>MOLECULE
BindingDB_26460
 49 50 0 0 0
SMALL
NO_CHARGES


@<TRIPOS>ATOM
1    C       -24.7259    4.1687   19.1182  C     
2    C       -24.8129    5.1428   20.2239  C     
3    O       -25.4624    6.3231   20.0747  O     
4    C       -25.1437    2.7150   19.4767  C     
5    C       -26.3228    2.6076   20.4879  C     
6    C       -27.1556    1.3846   20.3810  C     
7    O       -27.1543    0.6146   19.2678  O     
8    N       -23.4940    4.1560   18.3967  N     
9    S       -21.9221    4.3802   18.9938  S     
10   O       -21.8819    5.2727   20.3083  O     
11   O       -21.2253    5.3759   17.9690  O     
12   C       -20.9250    2.9753   19.2452  C     
13   C       -19.1417    1.4432   18.5379  C     
14   C       -18.2100    0.9820   17.5962  C     
15   C       -17.3514   -0.0083   17.9185  C     
16   C       -17.3485   -0.5933   19.1602  C     
17   C       -18.2732   -0.2164   20.0802  C     
18   C       -19.1771    0.8180   19.8176  C     
19   C       -20.1014    1.2700   20.7902  C     
20   C       -20.9675    2.3375   20.5010  C     
21   C       -20.0224    2.5115   18.2630  C     
22   C       -15.6553   -1.4563   20.6167  C     
23   O       -16.4239   -1.5397   19.3903  O     
24   C       -14.1821   -1.8732   20.3607  C     
25   C       -13.4693   -0.9874   19.3068  C     
26   C       -11.9231   -1.0099   19.4136  C     
27   O       -24.3461    4.8720   21.4630  O     
28   O       -28.2352    1.2765   21.1853  O     
29   H       -25.4548    4.5099   18.3725  H     
30   H       -25.4180    2.2146   18.5419  H     
31   H       -24.2709    2.1823   19.8826  H     
32   H       -25.8921    2.6358   21.5022  H     
33   H       -26.9819    3.4930   20.3799  H     
34   H       -23.5519    3.8179   17.4919  H     
35   H       -18.1765    1.3879   16.6871  H     
36   H       -16.7047   -0.3156   17.2257  H     
37   H       -18.2819   -0.6662   20.9632  H     
38   H       -20.1294    0.8376   21.7178  H     
39   H       -21.6004    2.6619   21.2293  H     
40   H       -19.9842    2.9827   17.3517  H     
41   H       -15.6586   -0.4598   21.0662  H     
42   H       -16.0895   -2.1483   21.3408  H     
43   H       -13.6383   -1.8149   21.3048  H     
44   H       -14.1575   -2.9056   20.0307  H     
45   H       -13.7655   -1.3226   18.3095  H     
46   H       -13.7880    0.0526   19.4065  H     
47   H       -11.5870   -0.3845   20.2374  H     
48   H       -11.4848   -0.6283   18.4896  H     
49   H       -11.5557   -2.0234   19.5806  H     
@<TRIPOS>BOND
     1    1    2 1
     2    1    4 1
     3    1    8 1
     4    2    3 2
     5    2   27 1
     6    4    5 1
     7    5    6 1
     8    6    7 2
     9    6   28 1
    10    8    9 1
    11    9   10 2
    12    9   11 2
    13    9   12 1
    14   12   20 2
    15   12   21 1
    16   13   14 1
    17   13   18 1
    18   13   21 2
    19   14   15 2
    20   15   16 1
    21   16   17 2
    22   16   23 1
    23   17   18 1
    24   18   19 2
    25   19   20 1
    26   22   23 1
    27   22   24 1
    28   24   25 1
    29   25   26 1
    30    1   29 1
    31    4   30 1
    32    4   31 1
    33    5   32 1
    34    5   33 1
    35    8   34 1
    36   14   35 1
    37   15   36 1
    38   17   37 1
    39   19   38 1
    40   20   39 1
    41   21   40 1
    42   22   41 1
    43   22   42 1
    44   24   43 1
    45   24   44 1
    46   25   45 1
    47   25   46 1
    48   26   47 1
    49   26   48 1
    50   26   49 1
@<TRIPOS>PROPERTY_DATA
  Total_Score	| 10.3860
  Crash		| -0.6889
  Polar		| 5.4448
  FragIndex	| 1
  FragRMSD	| 0.754

