@<TRIPOS>MOLECULE
BindingDB_17140
 45 52 0 0 0
SMALL
NO_CHARGES


@<TRIPOS>ATOM
1    C         1.0242   -4.0648   27.6761  C     
2    C        -0.8743   -4.1305   28.6954  C     
3    N         0.1770   -3.3963   28.4221  N     
4    O        -1.7924   -3.7185   29.3824  O     
5    O         2.0782   -3.5848   27.2953  O     
6    C         0.5154   -5.3163   27.4415  C     
7    C        -0.7273   -5.3553   28.1020  C     
8    C        -1.5338   -6.5222   28.0559  C     
9    C        -1.0652   -7.6456   27.3552  C     
10   C        -2.7848   -6.8970   28.5663  C     
11   C        -3.0102   -8.2249   28.1659  C     
12   C        -4.2108   -8.8844   28.5073  C     
13   C        -5.1798   -8.2039   29.2679  C     
14   C        -4.9563   -6.8742   29.6733  C     
15   C        -3.7614   -6.2148   29.3230  C     
16   C         0.1791   -7.6074   26.6913  C     
17   C         0.9779   -6.4519   26.7271  C     
18   N         0.7749   -8.5816   25.9671  N     
19   N        -1.9466   -8.6686   27.4434  N     
20   C         0.2029   -9.8787   25.6922  C     
21   C        -0.8935   -9.8298   24.6017  C     
22   C        -2.2081  -10.0259   25.3728  C     
23   C        -1.7841   -9.9795   26.8549  C     
24   O        -0.4184  -10.4180   26.8673  O     
25   C         2.1162   -6.7654   25.9726  C     
26   C         1.9580   -8.0859   25.5172  C     
27   C         2.9431   -8.6886   24.7061  C     
28   C         3.2717   -6.0337   25.6268  C     
29   C         4.2582   -6.6345   24.8200  C     
30   C         4.0944   -7.9571   24.3628  C     
31   H         0.3076   -2.4837   28.7329  H     
32   H        -4.3893   -9.8442   28.2086  H     
33   H        -6.0497   -8.6752   29.5249  H     
34   H        -5.6670   -6.3864   30.2226  H     
35   H        -3.6289   -5.2532   29.6220  H     
36   H         0.9809  -10.5869   25.3991  H     
37   H        -0.8910   -8.8754   24.0669  H     
38   H        -0.7543  -10.6345   23.8740  H     
39   H        -2.9404   -9.2508   25.1299  H     
40   H        -2.6404  -11.0025   25.1360  H     
41   H        -2.3512  -10.7189   27.4250  H     
42   H         2.8374   -9.6443   24.3623  H     
43   H         3.4109   -5.0779   25.9418  H     
44   H         5.0941   -6.1053   24.5602  H     
45   H         4.8103   -8.3910   23.7773  H     
@<TRIPOS>BOND
     1    1    3 1
     2    1    5 2
     3    1    6 1
     4    2    3 1
     5    2    4 2
     6    2    7 1
     7    6    7 1
     8    6   17 2
     9    7    8 2
    10    8    9 1
    11    8   10 1
    12    9   16 2
    13    9   19 1
    14   10   11 2
    15   10   15 1
    16   11   12 1
    17   11   19 1
    18   12   13 2
    19   13   14 1
    20   14   15 2
    21   16   17 1
    22   16   18 1
    23   17   25 1
    24   18   20 1
    25   18   26 1
    26   19   23 1
    27   20   21 1
    28   20   24 1
    29   21   22 1
    30   22   23 1
    31   23   24 1
    32   25   26 2
    33   25   28 1
    34   26   27 1
    35   27   30 2
    36   28   29 2
    37   29   30 1
    38    3   31 1
    39   12   32 1
    40   13   33 1
    41   14   34 1
    42   15   35 1
    43   20   36 1
    44   21   37 1
    45   21   38 1
    46   22   39 1
    47   22   40 1
    48   23   41 1
    49   27   42 1
    50   28   43 1
    51   29   44 1
    52   30   45 1
@<TRIPOS>PROPERTY_DATA
  Total_Score	| 7.2997
  Crash		| -0.5524
  Polar		| 2.0723
  FragIndex	| 1
  FragRMSD	| 0.347

