@<TRIPOS>MOLECULE
BindingDB_17054
 63 70 0 0 0
SMALL
NO_CHARGES


@<TRIPOS>ATOM
1    C        -0.8658   -4.1553   28.8076  C     
2    C         1.2268   -4.0122   27.9001  C     
3    N         0.2061   -3.4068   28.6814  N     
4    O        -1.8086   -3.8214   29.5069  O     
5    O         1.4827   -3.2427   26.7301  O     
6    C        -0.6831   -5.3426   28.1591  C     
7    C         0.6020   -5.3074   27.5985  C     
8    C         0.3520   -7.6141   26.8119  C     
9    C         1.0948   -6.4264   26.8852  C     
10   C        -1.4790   -6.5056   28.0248  C     
11   C        -0.9258   -7.6551   27.4266  C     
12   C         2.1133   -7.9258   25.5604  C     
13   C         2.2344   -6.6443   26.1256  C     
14   C         3.3323   -5.8072   25.8432  C     
15   C         3.0762   -8.3340   24.6095  C     
16   C         4.1738   -7.5062   24.3119  C     
17   C         4.3118   -6.2523   24.9369  C     
18   C        -2.7877   -6.8372   28.3837  C     
19   C        -2.9448   -8.1981   28.0938  C     
20   C        -3.8707   -6.0971   28.9046  C     
21   C        -5.0972   -6.7438   29.1551  C     
22   C        -5.2400   -8.1216   28.9029  C     
23   C        -4.1620   -8.8573   28.3766  C     
24   N        -1.8029   -8.6781   27.5437  N     
25   N         1.0037   -8.5457   26.0593  N     
26   C        -2.4143  -10.6041   26.0591  C     
27   O        -0.1488  -10.3357   27.0636  O     
28   C         0.5137   -9.9127   25.8418  C     
29   C         1.6521  -10.9886   25.7781  C     
30   C        -1.5511  -10.0586   27.2403  C     
31   C        -0.4380  -10.0363   24.5845  C     
32   C        -1.5505  -11.1028   24.8631  C     
33   O        -1.0524   -8.7431   24.3523  O     
34   C        -0.4616   -7.8481   23.4052  C     
35   N        -2.2935  -11.4668   23.6239  N     
36   C        -3.4270  -12.4092   23.7298  C     
37   H         2.1365   -4.1437   28.4917  H     
38   H         0.2934   -2.5354   29.1043  H     
39   H         2.3986   -2.9110   26.8482  H     
40   H         3.4307   -4.8920   26.2805  H     
41   H         2.9842   -9.2004   24.0917  H     
42   H         4.8707   -7.8222   23.6363  H     
43   H         5.1148   -5.6586   24.7169  H     
44   H        -3.8043   -5.0964   29.0669  H     
45   H        -5.8919   -6.2114   29.5129  H     
46   H        -6.1329   -8.5842   29.0894  H     
47   H        -4.2780   -9.8533   28.1849  H     
48   H        -3.0283  -11.4307   26.4258  H     
49   H        -3.0976   -9.8295   25.7006  H     
50   H         2.1432  -11.0327   24.8096  H     
51   H         1.2574  -11.9914   25.9410  H     
52   H         2.4037  -10.7933   26.5462  H     
53   H        -1.8106  -10.6213   28.1414  H     
54   H         0.1497  -10.3506   23.7142  H     
55   H        -1.0649  -12.0278   25.1884  H     
56   H         0.5979   -7.6887   23.6131  H     
57   H        -0.9781   -6.8924   23.4906  H     
58   H        -0.6018   -8.2219   22.3900  H     
59   H        -2.6607  -10.6143   23.2036  H     
60   H        -1.6204  -11.8691   22.9677  H     
61   H        -3.2136  -13.2818   24.3592  H     
62   H        -3.7095  -12.7436   22.7310  H     
63   H        -4.2650  -11.8740   24.1610  H     
@<TRIPOS>BOND
     1    1    3 1
     2    1    4 2
     3    1    6 1
     4    2    3 1
     5    2    5 1
     6    2    7 1
     7    6    7 2
     8    6   10 1
     9    7    9 1
    10    8    9 2
    11    8   11 1
    12    8   25 1
    13    9   13 1
    14   10   11 2
    15   10   18 1
    16   11   24 1
    17   12   13 2
    18   12   15 1
    19   12   25 1
    20   13   14 1
    21   14   17 2
    22   15   16 2
    23   16   17 1
    24   18   19 2
    25   18   20 1
    26   19   23 1
    27   19   24 1
    28   20   21 2
    29   21   22 1
    30   22   23 2
    31   24   30 1
    32   25   28 1
    33   26   30 1
    34   26   32 1
    35   27   28 1
    36   27   30 1
    37   28   29 1
    38   28   31 1
    39   31   32 1
    40   31   33 1
    41   32   35 1
    42   33   34 1
    43   35   36 1
    44    2   37 1
    45    3   38 1
    46    5   39 1
    47   14   40 1
    48   15   41 1
    49   16   42 1
    50   17   43 1
    51   20   44 1
    52   21   45 1
    53   22   46 1
    54   23   47 1
    55   26   48 1
    56   26   49 1
    57   29   50 1
    58   29   51 1
    59   29   52 1
    60   30   53 1
    61   31   54 1
    62   32   55 1
    63   34   56 1
    64   34   57 1
    65   34   58 1
    66   35   59 1
    67   35   60 1
    68   36   61 1
    69   36   62 1
    70   36   63 1
@<TRIPOS>PROPERTY_DATA
  Total_Score	| 9.3945
  Crash		| -2.1868
  Polar		| 3.3209
  FragIndex	| 1
  FragRMSD	| 0.271

