@<TRIPOS>MOLECULE
BindingDB_2579
 62 69 0 0 0
SMALL
NO_CHARGES


@<TRIPOS>ATOM
1    C         1.1911   -4.0559   27.5823  C     
2    C        -0.7856   -4.1547   28.7090  C     
3    N         0.2399   -3.3990   28.4052  N     
4    O        -1.6798   -3.7454   29.4350  O     
5    C        -0.6478   -5.3993   28.1498  C     
6    C         0.5773   -5.3803   27.4680  C     
7    C        -1.4369   -6.5696   28.1161  C     
8    C        -0.9522   -7.7353   27.4865  C     
9    C        -2.9554   -8.2228   28.2119  C     
10   C        -2.7157   -6.8903   28.5687  C     
11   C        -4.1848   -8.8336   28.5282  C     
12   C        -5.1670   -8.0950   29.2176  C     
13   C        -4.9266   -6.7574   29.5704  C     
14   C        -3.7057   -6.1405   29.2329  C     
15   N        -1.8724   -8.7196   27.5706  N     
16   C         0.3018   -7.7256   26.8180  C     
17   C         1.0276   -6.5284   26.7874  C     
18   C         2.0475   -8.0828   25.5376  C     
19   C         2.1374   -6.7517   25.9794  C     
20   C         3.0649   -8.5535   24.6647  C     
21   C         3.1802   -5.8949   25.5819  C     
22   C         4.1742   -6.3777   24.7134  C     
23   C         4.1044   -7.7064   24.2516  C     
24   N         0.9530   -8.6936   26.1041  N     
25   C        -2.4257  -10.3556   25.7468  C     
26   C        -1.7133  -10.0674   27.1032  C     
27   C         0.5377  -10.1017   26.0232  C     
28   C        -0.1234  -10.4958   24.6523  C     
29   O        -0.3419  -10.4742   27.1007  O     
30   C        -1.5820   -9.9595   24.4975  C     
31   N        -1.6885   -8.5007   24.2562  N     
32   C        -0.5815   -7.7970   23.5623  C     
33   O         0.7288  -10.0790   23.5661  O     
34   C         0.5454  -10.6916   22.2809  C     
35   C         1.7182  -11.0741   26.3363  C     
36   H         1.2687   -3.5540   26.6132  H     
37   H         2.1610   -4.1030   28.0822  H     
38   H         0.3344   -2.4808   28.7119  H     
39   H        -4.3825   -9.8003   28.2660  H     
40   H        -6.0580   -8.5302   29.4648  H     
41   H        -5.6444   -6.2247   30.0661  H     
42   H        -3.5752   -5.1636   29.4784  H     
43   H         3.0580   -9.5004   24.3010  H     
44   H         3.2413   -4.9321   25.9146  H     
45   H         4.9412   -5.7736   24.4105  H     
46   H         4.8172   -8.0585   23.6112  H     
47   H        -2.6223  -11.4392   25.6967  H     
48   H        -3.3971   -9.8564   25.7208  H     
49   H        -2.1697  -10.7206   27.8548  H     
50   H        -0.2063  -11.6000   24.6475  H     
51   H        -2.0458  -10.4560   23.6437  H     
52   H        -2.5123   -8.3528   23.6683  H     
53   H        -1.8448   -8.0246   25.1455  H     
54   H         0.3161   -7.7426   24.1853  H     
55   H        -0.9096   -6.7767   23.3306  H     
56   H        -0.3254   -8.2756   22.6153  H     
57   H         0.7693  -11.7638   22.3201  H     
58   H         1.2314  -10.2284   21.5861  H     
59   H        -0.4779  -10.5511   21.9081  H     
60   H         2.4574  -11.1413   25.5481  H     
61   H         1.3600  -12.0963   26.4814  H     
62   H         2.2334  -10.7685   27.2593  H     
@<TRIPOS>BOND
     1    1    3 1
     2    1    6 1
     3    2    3 1
     4    2    4 2
     5    2    5 1
     6    5    6 2
     7    5    7 1
     8    6   17 1
     9    7    8 2
    10    7   10 1
    11    8   15 1
    12    8   16 1
    13    9   10 2
    14    9   11 1
    15    9   15 1
    16   10   14 1
    17   11   12 2
    18   12   13 1
    19   13   14 2
    20   26   15 1
    21   16   17 2
    22   16   24 1
    23   17   19 1
    24   18   19 2
    25   18   20 1
    26   18   24 1
    27   19   21 1
    28   20   23 2
    29   21   22 2
    30   22   23 1
    31   27   24 1
    32   25   26 1
    33   25   30 1
    34   26   29 1
    35   27   28 1
    36   27   29 1
    37   27   35 1
    38   28   30 1
    39   28   33 1
    40   30   31 1
    41   31   32 1
    42   33   34 1
    43    1   36 1
    44    1   37 1
    45    3   38 1
    46   11   39 1
    47   12   40 1
    48   13   41 1
    49   14   42 1
    50   20   43 1
    51   21   44 1
    52   22   45 1
    53   23   46 1
    54   25   47 1
    55   25   48 1
    56   26   49 1
    57   28   50 1
    58   30   51 1
    59   31   52 1
    60   31   53 1
    61   32   54 1
    62   32   55 1
    63   32   56 1
    64   34   57 1
    65   34   58 1
    66   34   59 1
    67   35   60 1
    68   35   61 1
    69   35   62 1
@<TRIPOS>PROPERTY_DATA
  Total_Score	| 8.0878
  Crash		| -2.5776
  Polar		| 2.9639
  FragIndex	| 1
  FragRMSD	| 1.399

