@<TRIPOS>MOLECULE
BindingDB_14316
 86 91 0 0 0
SMALL
NO_CHARGES


@<TRIPOS>ATOM
1    C        -0.1412   21.2980   70.4921  C     
2    O        -0.2643   21.9354   71.5322  O     
3    N        -0.4674   21.8237   69.3215  N     
4    C        -1.1147   23.0843   69.0593  C     
5    C        -2.5188   22.8659   68.6751  C     
6    O        -3.0881   23.7152   67.9937  O     
7    C        -0.2187   23.8497   68.0150  C     
8    C         0.4812   25.1184   68.5860  C     
9    C        -3.3217   21.8675   69.2235  C     
10   N        -2.9181   20.8337   69.9820  N     
11   N        -4.6416   21.7345   69.0136  N     
12   O        -5.0481   20.6425   69.5954  O     
13   C        -3.9898   20.0680   70.2078  C     
14   C        -3.9603   18.7782   70.9208  C     
15   C        -5.2178   18.0061   70.7230  C     
16   C        -6.4831   16.2316   69.5868  C     
17   C        -7.6652   16.5544   70.3022  C     
18   C        -7.5893   17.6357   71.2221  C     
19   C        -6.3896   18.3422   71.4348  C     
20   C        -5.2829   16.9386   69.7953  C     
21   C        -8.8668   15.8415   70.1264  C     
22   O        -9.8447   16.1369   70.8024  O     
23   N        -8.9928   14.8435   69.2482  N     
24   C       -10.1884   14.0772   69.0002  C     
25   C        -9.9753   12.8564   68.0644  C     
26   C       -10.8223   13.5117   70.3057  C     
27   C       -10.8163   11.8141   68.6576  C     
28   C       -12.0654   11.3082   70.6880  C     
29   C       -12.4119   10.0523   70.1561  C     
30   C       -11.9630    9.6796   68.8721  C     
31   C       -11.1448   10.5498   68.1207  C     
32   C       -11.2774   12.1802   69.9192  C     
33   C         1.8017   25.5150   67.8635  C     
34   C         1.7200   25.6798   66.3340  C     
35   C         2.4039   26.8743   68.2895  C     
36   C         2.9732   26.5068   65.9933  C     
37   N         3.3066   27.2827   67.1993  N     
38   C         0.3054   19.9100   70.5484  C     
39   C         1.6079   19.6723   69.7538  C     
40   C         2.6934   19.7392   70.8291  C     
41   C         1.9953   19.1786   72.0771  C     
42   N         0.5940   19.4259   71.8770  N     
43   C        -0.3444   19.1805   72.8067  C     
44   C        -0.0681   18.5660   74.0908  C     
45   O        -1.5213   19.4474   72.5691  O     
46   H        -0.2303   21.3033   68.5326  H     
47   H        -1.1855   23.6701   69.9740  H     
48   H         0.5590   23.1854   67.6267  H     
49   H        -0.8094   24.1386   67.1397  H     
50   H        -0.2384   25.9463   68.5437  H     
51   H         0.7365   24.9575   69.6378  H     
52   H        -3.1068   18.2162   70.5407  H     
53   H        -3.7875   18.9412   71.9866  H     
54   H        -6.4754   15.4744   68.9034  H     
55   H        -8.4072   17.9323   71.7553  H     
56   H        -6.3756   19.1121   72.1091  H     
57   H        -4.4598   16.6696   69.2534  H     
58   H        -8.2193   14.6083   68.7124  H     
59   H       -10.9229   14.7419   68.5239  H     
60   H       -10.2946   13.0860   67.0425  H     
61   H        -8.9336   12.5250   68.0531  H     
62   H       -10.0934   13.4283   71.1175  H     
63   H       -11.6670   14.1295   70.6333  H     
64   H       -12.3994   11.5871   71.6176  H     
65   H       -12.9955    9.4092   70.7010  H     
66   H       -12.2354    8.7711   68.4871  H     
67   H       -10.8074   10.2697   67.1987  H     
68   H         2.5439   24.7356   68.0820  H     
69   H         1.7258   24.7136   65.8212  H     
70   H         0.8179   26.2321   66.0618  H     
71   H         1.6267   27.6307   68.4069  H     
72   H         2.9616   26.7887   69.2269  H     
73   H         3.8114   25.8440   65.7642  H     
74   H         2.7979   27.1685   65.1397  H     
75   H         3.2171   28.2828   67.0049  H     
76   H         4.2728   27.0851   67.4723  H     
77   H        -0.4730   19.2757   70.1036  H     
78   H         1.6051   18.6732   69.3011  H     
79   H         1.7697   20.4057   68.9640  H     
80   H         3.5681   19.1533   70.5446  H     
81   H         2.9908   20.7796   70.9997  H     
82   H         2.1841   18.1048   72.1611  H     
83   H         2.3717   19.6910   72.9646  H     
84   H         0.3812   17.5818   73.9327  H     
85   H        -0.9735   18.4312   74.6866  H     
86   H         0.6251   19.1848   74.6666  H     
@<TRIPOS>BOND
     1    1    2 2
     2    1    3 am
     3   38    1 1
     4    3    4 1
     5    4    5 1
     6    4    7 1
     7    5    6 2
     8    5    9 1
     9    7    8 1
    10    8   33 1
    11    9   10 1
    12    9   11 2
    13   10   13 2
    14   11   12 1
    15   12   13 1
    16   13   14 1
    17   14   15 1
    18   15   19 1
    19   15   20 2
    20   16   17 2
    21   16   20 1
    22   17   18 1
    23   17   21 1
    24   18   19 2
    25   21   22 2
    26   21   23 am
    27   23   24 1
    28   24   25 1
    29   24   26 1
    30   25   27 1
    31   26   32 1
    32   27   31 1
    33   27   32 2
    34   28   29 2
    35   28   32 1
    36   29   30 1
    37   30   31 2
    38   33   34 1
    39   33   35 1
    40   34   36 1
    41   35   37 1
    42   36   37 1
    43   38   39 1
    44   38   42 1
    45   39   40 1
    46   40   41 1
    47   41   42 1
    48   42   43 am
    49   43   44 1
    50   43   45 2
    51    3   46 1
    52    4   47 1
    53    7   48 1
    54    7   49 1
    55    8   50 1
    56    8   51 1
    57   14   52 1
    58   14   53 1
    59   16   54 1
    60   18   55 1
    61   19   56 1
    62   20   57 1
    63   23   58 1
    64   24   59 1
    65   25   60 1
    66   25   61 1
    67   26   62 1
    68   26   63 1
    69   28   64 1
    70   29   65 1
    71   30   66 1
    72   31   67 1
    73   33   68 1
    74   34   69 1
    75   34   70 1
    76   35   71 1
    77   35   72 1
    78   36   73 1
    79   36   74 1
    80   37   75 1
    81   37   76 1
    82   38   77 1
    83   39   78 1
    84   39   79 1
    85   40   80 1
    86   40   81 1
    87   41   82 1
    88   41   83 1
    89   44   84 1
    90   44   85 1
    91   44   86 1
@<TRIPOS>PROPERTY_DATA
  Total_Score	| 9.8457
  Crash		| -4.5572
  Polar		| 6.6296
  FragIndex	| 1
  FragRMSD	| 0.875

