@<TRIPOS>MOLECULE
BindingDB_14315
 73 77 0 0 0
SMALL
NO_CHARGES


@<TRIPOS>ATOM
1    C         0.3347   21.5983   70.3061  C     
2    O         0.0854   22.0986   71.5346  O     
3    N        -0.2250   22.1148   69.1852  N     
4    C        -1.0790   23.2740   69.1123  C     
5    C        -2.4283   22.9159   68.6447  C     
6    O        -3.0295   23.6906   67.9075  O     
7    C        -0.3322   24.3135   68.2081  C     
8    C         0.7247   25.1756   68.9591  C     
9    C        -3.1804   21.8957   69.2159  C     
10   N        -2.7337   20.8492   69.9279  N     
11   N        -4.4994   21.7566   69.0609  N     
12   O        -4.8866   20.6532   69.6317  O     
13   C        -3.7919   20.0803   70.1833  C     
14   C        -3.7251   18.7969   70.8938  C     
15   C        -4.9720   18.0035   70.7381  C     
16   C        -6.4615   16.6132   69.3557  C     
17   C        -7.4376   16.5538   70.3934  C     
18   C        -7.1276   17.2344   71.6047  C     
19   C        -5.9273   17.9397   71.7793  C     
20   C        -5.2639   17.3377   69.5238  C     
21   C        -8.6615   15.8919   70.2298  C     
22   O        -9.5725   16.1369   71.0092  O     
23   N        -8.8773   14.9985   69.2601  N     
24   C       -10.0830   14.2373   69.0792  C     
25   C        -9.9630   13.1396   67.9947  C     
26   C       -10.5587   13.5057   70.3602  C     
27   C       -10.7668   12.0332   68.5221  C     
28   C       -11.8254   11.2649   70.5820  C     
29   C       -12.2398   10.0859   69.9205  C     
30   C       -11.9204    9.8902   68.5592  C     
31   C       -11.1742   10.8574   67.8537  C     
32   C       -11.1013   12.2361   69.8595  C     
33   C         1.9630   25.5855   68.0949  C     
34   C         1.7956   25.6880   66.5523  C     
35   C         2.5280   27.0000   68.4082  C     
36   C         2.9802   26.5570   66.1003  C     
37   N         3.3952   27.3513   67.2747  N     
38   O         1.1936   20.5547   70.1389  O     
39   C         1.9425   19.8939   71.1716  C     
40   H         0.0284   21.6977   68.3472  H     
41   H        -1.2288   23.7271   70.0967  H     
42   H         0.1292   23.7753   67.3636  H     
43   H        -1.0501   25.0226   67.7707  H     
44   H         0.2223   26.0740   69.3399  H     
45   H         1.1045   24.6299   69.8297  H     
46   H        -2.8800   18.2196   70.5237  H     
47   H        -3.5325   19.0142   71.9441  H     
48   H        -6.6310   16.1657   68.4572  H     
49   H        -7.7860   17.2150   72.3891  H     
50   H        -5.7565   18.4208   72.6674  H     
51   H        -4.5967   17.3824   68.7427  H     
52   H        -8.1496   14.8373   68.6349  H     
53   H       -10.8693   14.9292   68.7580  H     
54   H       -10.3699   13.4817   67.0360  H     
55   H        -8.9287   12.8058   67.8569  H     
56   H        -9.7231   13.3032   71.0417  H     
57   H       -11.3277   14.0851   70.8803  H     
58   H       -12.0492   11.4016   71.5613  H     
59   H       -12.7663    9.3747   70.4241  H     
60   H       -12.2184    9.0298   68.0869  H     
61   H       -10.9345   10.7056   66.8737  H     
62   H         2.7604   24.8530   68.2918  H     
63   H         1.8278   24.6901   66.0823  H     
64   H         0.8363   26.1814   66.3034  H     
65   H         1.7145   27.7386   68.4754  H     
66   H         3.0971   26.9989   69.3569  H     
67   H         3.8149   25.9293   65.7663  H     
68   H         2.6727   27.2041   65.2777  H     
69   H         3.3147   28.3534   67.0616  H     
70   H         4.3566   27.1225   67.5301  H     
71   H         2.6429   20.6032   71.6262  H     
72   H         2.5117   19.0721   70.7237  H     
73   H         1.2732   19.5019   71.9485  H     
@<TRIPOS>BOND
     1    1    2 2
     2    1    3 am
     3    1   38 1
     4    3    4 1
     5    4    5 1
     6    4    7 1
     7    5    6 2
     8    5    9 1
     9    7    8 1
    10    8   33 1
    11    9   10 1
    12    9   11 2
    13   10   13 2
    14   11   12 1
    15   12   13 1
    16   13   14 1
    17   14   15 1
    18   15   19 1
    19   15   20 2
    20   16   17 2
    21   16   20 1
    22   17   18 1
    23   17   21 1
    24   18   19 2
    25   21   22 2
    26   21   23 am
    27   23   24 1
    28   24   25 1
    29   24   26 1
    30   25   27 1
    31   26   32 1
    32   27   31 1
    33   27   32 2
    34   28   29 2
    35   28   32 1
    36   29   30 1
    37   30   31 2
    38   33   34 1
    39   33   35 1
    40   34   36 1
    41   35   37 1
    42   36   37 1
    43   38   39 1
    44    3   40 1
    45    4   41 1
    46    7   42 1
    47    7   43 1
    48    8   44 1
    49    8   45 1
    50   14   46 1
    51   14   47 1
    52   16   48 1
    53   18   49 1
    54   19   50 1
    55   20   51 1
    56   23   52 1
    57   24   53 1
    58   25   54 1
    59   25   55 1
    60   26   56 1
    61   26   57 1
    62   28   58 1
    63   29   59 1
    64   30   60 1
    65   31   61 1
    66   33   62 1
    67   34   63 1
    68   34   64 1
    69   35   65 1
    70   35   66 1
    71   36   67 1
    72   36   68 1
    73   37   69 1
    74   37   70 1
    75   39   71 1
    76   39   72 1
    77   39   73 1
@<TRIPOS>PROPERTY_DATA
  Total_Score	| 10.9376
  Crash		| -3.6001
  Polar		| 7.2395
  FragIndex	| 1
  FragRMSD	| 0.440

