@<TRIPOS>MOLECULE
BindingDB_14317
 79 84 0 0 0
SMALL
NO_CHARGES


@<TRIPOS>ATOM
1    C        -0.0521   21.3556   70.3173  C     
2    O        -0.3100   21.8936   71.3940  O     
3    N        -0.3405   21.9149   69.1417  N     
4    C        -0.9771   23.1911   68.9343  C     
5    C        -2.3957   23.0101   68.5936  C     
6    O        -2.9744   23.8556   67.9096  O     
7    C        -0.0985   23.9678   67.8769  C     
8    C         0.4394   25.3781   68.3011  C     
9    C        -3.2042   22.0091   69.1265  C     
10   N        -2.8316   20.9711   69.9050  N     
11   N        -4.5280   21.8802   68.8936  N     
12   O        -4.9691   20.7969   69.4753  O     
13   C        -3.9220   20.2219   70.1074  C     
14   C        -3.9556   18.9868   70.9181  C     
15   C        -5.1752   18.1635   70.6884  C     
16   C        -6.5447   16.6913   69.2622  C     
17   C        -7.5145   16.5280   70.2844  C     
18   C        -7.2708   17.1960   71.5123  C     
19   C        -6.1319   17.9958   71.7117  C     
20   C        -5.4019   17.5002   69.4643  C     
21   C        -8.6776   15.7678   70.0979  C     
22   O        -9.6378   16.0064   70.8284  O     
23   N        -8.7903   14.8009   69.1762  N     
24   C        -9.9670   13.9919   68.9842  C     
25   C        -9.7800   12.7964   68.0107  C     
26   C       -10.5326   13.3673   70.2892  C     
27   C       -10.7016   11.7904   68.5457  C     
28   C       -12.0061   11.2716   70.5420  C     
29   C       -12.4867   10.0992   69.9137  C     
30   C       -12.0750    9.7806   68.6082  C     
31   C       -11.1569   10.6042   67.9267  C     
32   C       -11.1236   12.1135   69.8363  C     
33   C         1.9903   25.5655   68.1203  C     
34   C         2.4814   25.6877   66.6645  C     
35   C         2.5507   26.8652   68.7472  C     
36   C         2.4982   27.1980   66.3799  C     
37   N         2.6443   27.8686   67.6809  N     
38   C         0.5702   20.1315   70.3377  C     
39   C         1.8642   17.6041   70.3637  C     
40   C         2.6217   18.7997   70.3385  C     
41   C         1.9815   20.0544   70.3395  C     
42   C        -0.2017   18.9326   70.3384  C     
43   C         0.4509   17.6823   70.3669  C     
44   F        -0.2630   16.5872   70.4070  F     
45   F         2.4719   16.4487   70.3950  F     
46   H        -0.0531   21.4398   68.3401  H     
47   H        -0.9955   23.7595   69.8653  H     
48   H         0.7689   23.3573   67.6105  H     
49   H        -0.6519   24.0816   66.9398  H     
50   H        -0.0905   26.1550   67.7295  H     
51   H         0.2243   25.5720   69.3530  H     
52   H        -3.0904   18.3818   70.6654  H     
53   H        -3.8464   19.2662   71.9712  H     
54   H        -6.6820   16.2543   68.3498  H     
55   H        -7.9302   17.1050   72.2910  H     
56   H        -6.0086   18.4531   72.6139  H     
57   H        -4.7302   17.5851   68.7034  H     
58   H        -8.0353   14.6382   68.5824  H     
59   H       -10.7405   14.6382   68.5554  H     
60   H       -10.0552   13.0734   66.9885  H     
61   H        -8.7572   12.4075   68.0339  H     
62   H        -9.7454   13.1555   71.0160  H     
63   H       -11.2850   14.0158   70.7442  H     
64   H       -12.3050   11.5054   71.4900  H     
65   H       -13.1489    9.4966   70.4063  H     
66   H       -12.4375    8.9369   68.1547  H     
67   H       -10.8486   10.3677   66.9820  H     
68   H         2.4675   24.7067   68.5976  H     
69   H         3.5002   25.3118   66.5975  H     
70   H         1.8553   25.1541   65.9468  H     
71   H         1.9267   27.2397   69.5604  H     
72   H         3.5567   26.6875   69.1302  H     
73   H         3.3193   27.4729   65.7103  H     
74   H         1.5537   27.5171   65.9246  H     
75   H         1.8840   28.5406   67.7869  H     
76   H         3.5273   28.3772   67.7273  H     
77   H         3.6375   18.7544   70.3101  H     
78   H         2.5522   20.9062   70.3447  H     
79   H        -1.2129   18.9763   70.3101  H     
@<TRIPOS>BOND
     1    1    2 2
     2    1    3 am
     3    1   38 1
     4    3    4 1
     5    4    5 1
     6    4    7 1
     7    5    6 2
     8    5    9 1
     9    7    8 1
    10    8   33 1
    11    9   10 1
    12    9   11 2
    13   10   13 2
    14   11   12 1
    15   12   13 1
    16   13   14 1
    17   14   15 1
    18   15   19 1
    19   15   20 2
    20   16   17 2
    21   16   20 1
    22   17   18 1
    23   17   21 1
    24   18   19 2
    25   21   22 2
    26   21   23 am
    27   23   24 1
    28   24   25 1
    29   24   26 1
    30   25   27 1
    31   26   32 1
    32   27   31 1
    33   27   32 2
    34   28   29 2
    35   28   32 1
    36   29   30 1
    37   30   31 2
    38   33   34 1
    39   33   35 1
    40   34   36 1
    41   35   37 1
    42   36   37 1
    43   38   41 2
    44   38   42 1
    45   39   40 2
    46   39   43 1
    47   39   45 1
    48   40   41 1
    49   42   43 2
    50   43   44 1
    51    3   46 1
    52    4   47 1
    53    7   48 1
    54    7   49 1
    55    8   50 1
    56    8   51 1
    57   14   52 1
    58   14   53 1
    59   16   54 1
    60   18   55 1
    61   19   56 1
    62   20   57 1
    63   23   58 1
    64   24   59 1
    65   25   60 1
    66   25   61 1
    67   26   62 1
    68   26   63 1
    69   28   64 1
    70   29   65 1
    71   30   66 1
    72   31   67 1
    73   33   68 1
    74   34   69 1
    75   34   70 1
    76   35   71 1
    77   35   72 1
    78   36   73 1
    79   36   74 1
    80   37   75 1
    81   37   76 1
    82   40   77 1
    83   41   78 1
    84   42   79 1
@<TRIPOS>PROPERTY_DATA
  Total_Score	| 12.2904
  Crash		| -4.3852
  Polar		| 6.6652
  FragIndex	| 1
  FragRMSD	| 0.683

