@<TRIPOS>MOLECULE
BindingDB_14314
 77 81 0 0 0
SMALL
NO_CHARGES


@<TRIPOS>ATOM
1    C         0.0700   21.5251   70.4249  C     
2    O         0.8357   20.4111   70.4130  O     
3    N        -0.3100   22.0507   69.2428  N     
4    C        -1.1267   23.2243   69.0480  C     
5    C        -2.4971   22.8706   68.6548  C     
6    O        -3.1251   23.6282   67.9147  O     
7    C        -0.3240   24.1163   68.0354  C     
8    C         0.6759   25.0928   68.7082  C     
9    C        -3.2535   21.8822   69.2827  C     
10   N        -2.8000   20.8297   69.9776  N     
11   N        -4.5912   21.7780   69.2080  N     
12   O        -4.9708   20.7024   69.8310  O     
13   C        -3.8637   20.0918   70.3162  C     
14   C        -3.8005   18.7958   71.0264  C     
15   C        -5.0344   17.9867   70.8176  C     
16   C        -7.2731   17.3033   71.5378  C     
17   C        -7.4676   16.5281   70.3620  C     
18   C        -6.4116   16.5166   69.4157  C     
19   C        -5.2210   17.2374   69.6351  C     
20   C        -6.0811   18.0153   71.7608  C     
21   C        -8.6707   15.8323   70.1517  C     
22   O        -9.6497   16.1194   70.8379  O     
23   N        -8.7958   14.8547   69.2473  N     
24   C        -9.9909   14.0875   69.0013  C     
25   C        -9.7923   12.9097   68.0068  C     
26   C       -10.6160   13.4457   70.2715  C     
27   C       -10.7212   11.8855   68.5044  C     
28   C       -12.0318   11.3225   70.4763  C     
29   C       -12.4611   10.1289   69.8520  C     
30   C       -12.0225    9.8257   68.5485  C     
31   C       -11.1296   10.6848   67.8771  C     
32   C       -11.1725   12.1934   69.7865  C     
33   C         1.8877   25.5303   67.8267  C     
34   C         1.6634   25.7687   66.3155  C     
35   C         2.5272   26.8731   68.2340  C     
36   C         2.8883   26.5818   65.8933  C     
37   N         3.3536   27.3015   67.0948  N     
38   O        -0.3533   22.0625   71.6021  O     
39   C        -0.1430   21.5881   72.9370  C     
40   C        -0.9967   22.3608   73.8215  C     
41   C        -2.1689   21.9193   74.3035  C     
42   H        -0.0142   21.5726   68.4515  H     
43   H        -1.2365   23.8025   69.9665  H     
44   H         0.1861   23.4574   67.3326  H     
45   H        -1.0090   24.7431   67.4471  H     
46   H         0.1054   25.9800   69.0184  H     
47   H         1.0794   24.6445   69.6153  H     
48   H        -2.9410   18.2332   70.6548  H     
49   H        -3.6328   18.9701   72.0933  H     
50   H        -7.9996   17.3533   72.2598  H     
51   H        -6.5073   16.0020   68.5359  H     
52   H        -4.4981   17.2277   68.9094  H     
53   H        -5.9896   18.5763   72.6139  H     
54   H        -8.0239   14.6399   68.6925  H     
55   H       -10.7357   14.7647   68.5658  H     
56   H       -10.0364   13.2165   66.9904  H     
57   H        -8.7729   12.5221   68.0374  H     
58   H        -9.8675   13.2413   71.0429  H     
59   H       -11.4013   14.0835   70.6893  H     
60   H       -12.3560   11.5478   71.4210  H     
61   H       -13.0888    9.4934   70.3438  H     
62   H       -12.3502    8.9729   68.0934  H     
63   H       -10.7890   10.4478   66.9412  H     
64   H         2.6508   24.7416   67.9142  H     
65   H         1.6077   24.8177   65.7595  H     
66   H         0.7397   26.3385   66.1547  H     
67   H         1.7543   27.6394   68.4023  H     
68   H         3.1335   26.7733   69.1387  H     
69   H         3.6940   25.9253   65.5560  H     
70   H         2.6433   27.2845   65.0910  H     
71   H         3.2822   28.3161   66.9389  H     
72   H         4.3204   27.0530   67.2900  H     
73   H        -0.3514   20.5125   73.0008  H     
74   H         0.9001   21.7540   73.2103  H     
75   H        -0.6980   23.2762   74.0772  H     
76   H        -2.7175   22.5019   74.8851  H     
77   H        -2.4957   21.0095   74.1070  H     
@<TRIPOS>BOND
     1    1    2 2
     2    1    3 am
     3    1   38 1
     4    3    4 1
     5    4    5 1
     6    4    7 1
     7    5    6 2
     8    5    9 1
     9    7    8 1
    10    8   33 1
    11    9   10 1
    12    9   11 2
    13   10   13 2
    14   11   12 1
    15   12   13 1
    16   13   14 1
    17   14   15 1
    18   15   19 1
    19   15   20 2
    20   16   17 2
    21   16   20 1
    22   17   18 1
    23   17   21 1
    24   18   19 2
    25   21   22 2
    26   21   23 am
    27   23   24 1
    28   24   25 1
    29   24   26 1
    30   25   27 1
    31   26   32 1
    32   27   31 1
    33   27   32 2
    34   28   29 2
    35   28   32 1
    36   29   30 1
    37   30   31 2
    38   33   34 1
    39   33   35 1
    40   34   36 1
    41   35   37 1
    42   36   37 1
    43   38   39 1
    44   39   40 1
    45   40   41 2
    46    3   42 1
    47    4   43 1
    48    7   44 1
    49    7   45 1
    50    8   46 1
    51    8   47 1
    52   14   48 1
    53   14   49 1
    54   16   50 1
    55   18   51 1
    56   19   52 1
    57   20   53 1
    58   23   54 1
    59   24   55 1
    60   25   56 1
    61   25   57 1
    62   26   58 1
    63   26   59 1
    64   28   60 1
    65   29   61 1
    66   30   62 1
    67   31   63 1
    68   33   64 1
    69   34   65 1
    70   34   66 1
    71   35   67 1
    72   35   68 1
    73   36   69 1
    74   36   70 1
    75   37   71 1
    76   37   72 1
    77   39   73 1
    78   39   74 1
    79   40   75 1
    80   41   76 1
    81   41   77 1
@<TRIPOS>PROPERTY_DATA
  Total_Score	| 11.4556
  Crash		| -3.4636
  Polar		| 7.3202
  FragIndex	| 1
  FragRMSD	| 0.712

