@<TRIPOS>MOLECULE
BindingDB_14318
 76 81 0 0 0
SMALL
NO_CHARGES


@<TRIPOS>ATOM
1    C        -0.0950   21.5043   70.2701  C     
2    O        -0.3814   21.9717   71.3712  O     
3    N        -0.3623   22.1435   69.1408  N     
4    C        -1.0934   23.3912   69.0325  C     
5    C        -2.4585   23.1282   68.5510  C     
6    O        -2.9855   23.9073   67.7677  O     
7    C        -0.2959   24.4559   68.2175  C     
8    C         1.2592   24.2890   68.2703  C     
9    C        -3.2655   22.0977   69.0405  C     
10   N        -2.8788   21.0384   69.7594  N     
11   N        -4.5886   21.9786   68.8157  N     
12   O        -5.0132   20.8664   69.3457  O     
13   C        -3.9577   20.2594   69.9285  C     
14   C        -3.9571   18.9470   70.6022  C     
15   C        -5.2520   18.2107   70.5098  C     
16   C        -7.5877   17.9123   71.1876  C     
17   C        -7.7184   16.7149   70.4282  C     
18   C        -6.5750   16.3045   69.6907  C     
19   C        -5.3715   17.0323   69.7375  C     
20   C        -6.3872   18.6443   71.2293  C     
21   C        -8.9104   15.9693   70.4353  C     
22   O        -9.8129   16.3043   71.1968  O     
23   N        -9.1194   14.9045   69.6572  N     
24   C       -10.3147   14.0977   69.6180  C     
25   C       -10.6016   13.4806   68.2188  C     
26   C       -10.3092   12.8934   70.6045  C     
27   C       -11.1431   12.1544   68.5191  C     
28   C       -11.3822   10.5585   70.3411  C     
29   C       -11.9896    9.6487   69.4507  C     
30   C       -12.1669    9.9881   68.0965  C     
31   C       -11.7362   11.2421   67.6157  C     
32   C       -10.9747   11.8214   69.8578  C     
33   C         0.5453   20.2932   70.2435  C     
34   C         1.8829   17.8094   70.4133  C     
35   C         2.6169   19.0088   70.3713  C     
36   C         1.9572   20.2476   70.3142  C     
37   C        -0.1974   19.0845   70.2599  C     
38   C         0.4700   17.8517   70.3630  C     
39   F        -0.2100   16.7430   70.4178  F     
40   F         2.5122   16.6722   70.5246  F     
41   C         2.2003   25.4838   67.9341  C     
42   C         2.4658   25.7735   66.4392  C     
43   C         1.7686   26.9533   68.0699  C     
44   N         2.0444   27.1738   66.6397  N     
45   H        -0.0397   21.7427   68.3173  H     
46   H        -1.2315   23.8269   70.0196  H     
47   H        -0.6028   24.4300   67.1601  H     
48   H        -0.5497   25.4338   68.6484  H     
49   H         1.5281   23.9296   69.2740  H     
50   H         1.5081   23.4985   67.5474  H     
51   H        -3.1614   18.3464   70.1551  H     
52   H        -3.6882   19.0878   71.6515  H     
53   H        -8.3767   18.2726   71.7277  H     
54   H        -6.5934   15.4554   69.1184  H     
55   H        -4.5639   16.6877   69.2090  H     
56   H        -6.3362   19.4925   71.8014  H     
57   H        -8.4127   14.6702   69.0342  H     
58   H       -11.1705   14.7394   69.8629  H     
59   H       -11.3429   14.0687   67.6732  H     
60   H        -9.6950   13.3756   67.6176  H     
61   H        -9.2947   12.5801   70.8623  H     
62   H       -10.8644   13.1284   71.5170  H     
63   H       -11.2450   10.3092   71.3231  H     
64   H       -12.2971    8.7331   69.7913  H     
65   H       -12.6047    9.3206   67.4550  H     
66   H       -11.8564   11.4898   66.6330  H     
67   H         3.6383   18.9858   70.3875  H     
68   H         2.5078   21.1091   70.3257  H     
69   H        -1.2151   19.1021   70.2269  H     
70   H         3.1683   25.3340   68.4246  H     
71   H         3.5259   25.7076   66.1573  H     
72   H         1.8049   25.2462   65.7399  H     
73   H         0.7301   27.1269   68.2973  H     
74   H         2.4247   27.5401   68.7069  H     
75   H         2.8010   27.8676   66.4919  H     
76   H         1.2042   27.4032   66.0885  H     
@<TRIPOS>BOND
     1    1    2 2
     2    1    3 am
     3    1   33 1
     4    3    4 1
     5    4    5 1
     6    4    7 1
     7    5    6 2
     8    5    9 1
     9    7    8 1
    10    8   41 1
    11    9   10 1
    12    9   11 2
    13   10   13 2
    14   11   12 1
    15   12   13 1
    16   13   14 1
    17   14   15 1
    18   15   19 1
    19   15   20 2
    20   16   17 2
    21   16   20 1
    22   17   18 1
    23   17   21 1
    24   18   19 2
    25   21   22 2
    26   21   23 am
    27   23   24 1
    28   24   25 1
    29   24   26 1
    30   25   27 1
    31   26   32 1
    32   27   31 1
    33   27   32 2
    34   28   29 2
    35   28   32 1
    36   29   30 1
    37   30   31 2
    38   33   36 2
    39   33   37 1
    40   34   35 2
    41   34   38 1
    42   34   40 1
    43   35   36 1
    44   37   38 2
    45   38   39 1
    46   41   42 1
    47   41   43 1
    48   42   44 1
    49   43   44 1
    50    3   45 1
    51    4   46 1
    52    7   47 1
    53    7   48 1
    54    8   49 1
    55    8   50 1
    56   14   51 1
    57   14   52 1
    58   16   53 1
    59   18   54 1
    60   19   55 1
    61   20   56 1
    62   23   57 1
    63   24   58 1
    64   25   59 1
    65   25   60 1
    66   26   61 1
    67   26   62 1
    68   28   63 1
    69   29   64 1
    70   30   65 1
    71   31   66 1
    72   35   67 1
    73   36   68 1
    74   37   69 1
    75   41   70 1
    76   42   71 1
    77   42   72 1
    78   43   73 1
    79   43   74 1
    80   44   75 1
    81   44   76 1
@<TRIPOS>PROPERTY_DATA
  Total_Score	| 10.7460
  Crash		| -4.1412
  Polar		| 6.3933
  FragIndex	| 1
  FragRMSD	| 0.718

