@<TRIPOS>MOLECULE
BindingDB_14313
 82 87 0 0 0
SMALL
NO_CHARGES


@<TRIPOS>ATOM
1    C         0.1758   21.4555   70.6111  C     
2    O         0.0475   22.0872   71.6563  O     
3    N        -0.3904   21.9400   69.5054  N     
4    C        -1.1761   23.1429   69.3891  C     
5    C        -2.5228   22.8389   68.8811  C     
6    O        -3.0114   23.5186   67.9843  O     
7    C        -0.3791   24.1871   68.5461  C     
8    C         1.1163   24.3616   68.9855  C     
9    C        -3.3415   21.8702   69.4453  C     
10   N        -2.9558   20.8449   70.2194  N     
11   N        -4.6625   21.7578   69.2338  N     
12   O        -5.0995   20.6870   69.8314  O     
13   C        -4.0456   20.1041   70.4461  C     
14   C        -4.0292   18.8027   71.1364  C     
15   C        -5.2428   17.9870   70.8592  C     
16   C        -7.5914   17.4680   71.3156  C     
17   C        -7.6154   16.4598   70.3139  C     
18   C        -6.4118   16.2351   69.5970  C     
19   C        -5.2491   16.9838   69.8659  C     
20   C        -6.4301   18.2119   71.5852  C     
21   C        -8.7904   15.7260   70.0534  C     
22   O        -9.8063   15.9986   70.6872  O     
23   N        -8.8644   14.7365   69.1604  N     
24   C       -10.0347   13.9481   68.8807  C     
25   C        -9.8166   12.8281   67.8298  C     
26   C       -10.6139   13.2262   70.1316  C     
27   C       -10.7484   11.7858   68.2690  C     
28   C       -12.0647   11.1094   70.2102  C     
29   C       -12.5061    9.9652   69.5026  C     
30   C       -12.0657    9.7378   68.1843  C     
31   C       -11.1644   10.6293   67.5671  C     
32   C       -11.1900   12.0087   69.5732  C     
33   C         0.8937   20.2529   70.6269  C     
34   C         2.3215   17.7796   70.6893  C     
35   C         1.6645   18.1908   69.5198  C     
36   C         0.9639   19.4097   69.4906  C     
37   C         1.5520   19.8043   71.8078  C     
38   C         2.2602   18.5853   71.8422  C     
39   F         2.8524   18.2082   72.9480  F     
40   F         2.9734   16.6487   70.7029  F     
41   C         1.9993   25.3688   68.2012  C     
42   C         1.9925   25.1424   66.6579  C     
43   C         2.9087   26.1656   65.9439  C     
44   C         2.6205   27.8121   67.7878  C     
45   C         1.6871   26.8543   68.5628  C     
46   N         2.5387   27.5452   66.3323  N     
47   H        -0.2338   21.4571   68.6775  H     
48   H        -1.3450   23.5954   70.3637  H     
49   H        -0.3944   23.8767   67.4955  H     
50   H        -0.8832   25.1577   68.6119  H     
51   H         1.1368   24.6284   70.0475  H     
52   H         1.5918   23.3767   68.8949  H     
53   H        -3.1355   18.2688   70.8046  H     
54   H        -3.9234   18.9741   72.2102  H     
55   H        -8.4268   17.6795   71.8735  H     
56   H        -6.3615   15.5262   68.8653  H     
57   H        -4.4071   16.7894   69.3195  H     
58   H        -6.4576   18.9259   72.3120  H     
59   H        -8.0772   14.5351   68.6308  H     
60   H       -10.8076   14.6139   68.4822  H     
61   H       -10.0523   13.1818   66.8223  H     
62   H        -8.7963   12.4351   67.8565  H     
63   H        -9.8284   12.9758   70.8562  H     
64   H       -11.3819   13.8388   70.6177  H     
65   H       -12.3764   11.2689   71.1686  H     
66   H       -13.1490    9.3034   69.9535  H     
67   H       -12.3907    8.9084   67.6787  H     
68   H       -10.8260   10.4487   66.6168  H     
69   H         1.6866   17.6031   68.6875  H     
70   H         0.4980   19.6663   68.6276  H     
71   H         1.5262   20.3625   72.6716  H     
72   H         3.0236   25.1809   68.5384  H     
73   H         2.3385   24.1279   66.4239  H     
74   H         0.9778   25.2512   66.2696  H     
75   H         3.9520   25.9787   66.2005  H     
76   H         2.8037   26.0713   64.8618  H     
77   H         2.3153   28.8484   67.9723  H     
78   H         3.6602   27.6964   68.1240  H     
79   H         0.6501   27.0787   68.3043  H     
80   H         1.8221   27.0144   69.6345  H     
81   H         3.1526   28.1984   65.8477  H     
82   H         1.5799   27.7104   66.0108  H     
@<TRIPOS>BOND
     1    1    2 2
     2    1    3 am
     3    1   33 1
     4    3    4 1
     5    4    5 1
     6    4    7 1
     7    5    6 2
     8    5    9 1
     9    7    8 1
    10    8   41 1
    11    9   10 1
    12    9   11 2
    13   10   13 2
    14   11   12 1
    15   12   13 1
    16   13   14 1
    17   14   15 1
    18   15   19 1
    19   15   20 2
    20   16   17 2
    21   16   20 1
    22   17   18 1
    23   17   21 1
    24   18   19 2
    25   21   22 2
    26   21   23 am
    27   23   24 1
    28   24   25 1
    29   24   26 1
    30   25   27 1
    31   26   32 1
    32   27   31 1
    33   27   32 2
    34   28   29 2
    35   28   32 1
    36   29   30 1
    37   30   31 2
    38   33   36 2
    39   33   37 1
    40   34   35 2
    41   34   38 1
    42   34   40 1
    43   35   36 1
    44   37   38 2
    45   38   39 1
    46   41   42 1
    47   41   45 1
    48   42   43 1
    49   43   46 1
    50   44   45 1
    51   44   46 1
    52    3   47 1
    53    4   48 1
    54    7   49 1
    55    7   50 1
    56    8   51 1
    57    8   52 1
    58   14   53 1
    59   14   54 1
    60   16   55 1
    61   18   56 1
    62   19   57 1
    63   20   58 1
    64   23   59 1
    65   24   60 1
    66   25   61 1
    67   25   62 1
    68   26   63 1
    69   26   64 1
    70   28   65 1
    71   29   66 1
    72   30   67 1
    73   31   68 1
    74   35   69 1
    75   36   70 1
    76   37   71 1
    77   41   72 1
    78   42   73 1
    79   42   74 1
    80   43   75 1
    81   43   76 1
    82   44   77 1
    83   44   78 1
    84   45   79 1
    85   45   80 1
    86   46   81 1
    87   46   82 1
@<TRIPOS>PROPERTY_DATA
  Total_Score	| 11.9311
  Crash		| -4.4381
  Polar		| 6.4316
  FragIndex	| 1
  FragRMSD	| 0.513

