@<TRIPOS>MOLECULE
BindingDB_14312
 72 75 0 0 0
SMALL
NO_CHARGES


@<TRIPOS>ATOM
1    C         0.3958   21.4882   70.2329  C     
2    O         1.1827   20.3770   70.1797  O     
3    N        -0.1041   21.9504   69.0774  N     
4    C        -0.8604   23.1665   68.8721  C     
5    C        -2.3057   22.9184   68.6821  C     
6    O        -2.9746   23.7459   68.0646  O     
7    C        -0.1976   23.8858   67.6460  C     
8    C         1.1881   24.5749   67.8666  C     
9    C         1.1762   26.1315   67.9963  C     
10   C         2.5133   26.8073   67.5789  C     
11   N         2.7084   28.0602   68.3255  N     
12   C        -3.0580   21.8665   69.2232  C     
13   N        -2.6399   20.8062   69.9337  N     
14   N        -4.3919   21.7501   69.0635  N     
15   O        -4.7975   20.6626   69.6429  O     
16   C        -3.7306   20.0569   70.1882  C     
17   C        -3.7691   18.7917   70.9442  C     
18   C        -5.0585   18.0537   70.7820  C     
19   C        -6.4863   16.5244   69.4896  C     
20   C        -7.5506   16.6481   70.4183  C     
21   C        -7.3393   17.5252   71.5219  C     
22   C        -6.1199   18.1999   71.7042  C     
23   C        -5.2693   17.2147   69.6662  C     
24   C        -8.7767   15.9608   70.2556  C     
25   O        -9.7342   16.2834   70.9602  O     
26   N        -8.9556   14.9671   69.3787  N     
27   C       -10.1818   14.2407   69.1714  C     
28   C       -10.1258   13.3184   67.9245  C     
29   C       -10.5845   13.3224   70.3639  C     
30   C       -10.7745   12.0867   68.3581  C     
31   C       -11.6318   10.9578   70.3340  C     
32   C       -11.9730    9.8447   69.5349  C     
33   C       -11.7212    9.8619   68.1501  C     
34   C       -11.1081   10.9803   67.5509  C     
35   C       -11.0379   12.0841   69.7257  C     
36   O         0.0268   21.9574   71.4523  O     
37   C         0.4538   21.4595   72.7238  C     
38   C         0.3206   19.9240   72.8563  C     
39   H         0.1326   21.4121   68.2831  H     
40   H        -0.7705   23.8197   69.7529  H     
41   H        -0.0574   23.1456   66.8446  H     
42   H        -0.8799   24.6300   67.2292  H     
43   H         1.6717   24.1538   68.7619  H     
44   H         1.8180   24.3043   67.0068  H     
45   H         0.3841   26.5464   67.3649  H     
46   H         0.9600   26.3990   69.0426  H     
47   H         3.3540   26.1409   67.7820  H     
48   H         2.4968   27.0444   66.5073  H     
49   H         1.8566   28.6141   68.2724  H     
50   H         3.4762   28.5989   67.9151  H     
51   H         2.9141   27.8411   69.3025  H     
52   H        -2.9472   18.1469   70.6068  H     
53   H        -3.5801   19.0065   72.0051  H     
54   H        -6.5903   15.9405   68.6562  H     
55   H        -8.0785   17.6701   72.2152  H     
56   H        -6.0177   18.8082   72.5181  H     
57   H        -4.5343   17.0945   68.9702  H     
58   H        -8.1977   14.7217   68.8179  H     
59   H       -10.9836   14.9671   69.0034  H     
60   H       -10.6873   13.7458   67.0920  H     
61   H        -9.1035   13.1019   67.5988  H     
62   H        -9.7378   13.1043   71.0214  H     
63   H       -11.3926   13.7728   70.9479  H     
64   H       -11.8127   10.9457   71.3395  H     
65   H       -12.4015    9.0233   69.9645  H     
66   H       -11.9816    9.0597   67.5711  H     
67   H       -10.9146   10.9922   66.5489  H     
68   H         1.4819   21.7545   72.9092  H     
69   H        -0.1554   21.9609   73.4673  H     
70   H        -0.6564   19.6072   72.4787  H     
71   H         0.4038   19.6639   73.9272  H     
72   H         1.1097   19.4214   72.2732  H     
@<TRIPOS>BOND
     1    1    2 2
     2    1    3 am
     3    1   36 1
     4    3    4 1
     5    4    5 1
     6    4    7 1
     7    5    6 2
     8    5   12 1
     9    7    8 1
    10    8    9 1
    11    9   10 1
    12   10   11 1
    13   12   13 1
    14   12   14 2
    15   13   16 2
    16   14   15 1
    17   15   16 1
    18   16   17 1
    19   17   18 1
    20   18   22 1
    21   18   23 2
    22   19   20 2
    23   19   23 1
    24   20   21 1
    25   20   24 1
    26   21   22 2
    27   24   25 2
    28   24   26 am
    29   26   27 1
    30   27   28 1
    31   27   29 1
    32   28   30 1
    33   29   35 1
    34   30   34 1
    35   30   35 2
    36   31   32 2
    37   31   35 1
    38   32   33 1
    39   33   34 2
    40   36   37 1
    41   37   38 1
    42    3   39 1
    43    4   40 1
    44    7   41 1
    45    7   42 1
    46    8   43 1
    47    8   44 1
    48    9   45 1
    49    9   46 1
    50   10   47 1
    51   10   48 1
    52   11   49 1
    53   11   50 1
    54   11   51 1
    55   17   52 1
    56   17   53 1
    57   19   54 1
    58   21   55 1
    59   22   56 1
    60   23   57 1
    61   26   58 1
    62   27   59 1
    63   28   60 1
    64   28   61 1
    65   29   62 1
    66   29   63 1
    67   31   64 1
    68   32   65 1
    69   33   66 1
    70   34   67 1
    71   37   68 1
    72   37   69 1
    73   38   70 1
    74   38   71 1
    75   38   72 1
@<TRIPOS>PROPERTY_DATA
  Total_Score	| 10.1097
  Crash		| -3.3432
  Polar		| 8.3423
  FragIndex	| 1
  FragRMSD	| 0.991

