@<TRIPOS>MOLECULE
BindingDB_14311
 75 79 0 0 0
SMALL
NO_CHARGES


@<TRIPOS>ATOM
1    C         1.8018   17.8134   70.3740  C     
2    C         2.5620   19.0053   70.3449  C     
3    C         1.9367   20.2659   70.2941  C     
4    C         0.5251   20.3418   70.2512  C     
5    C        -0.2525   19.1552   70.2725  C     
6    C         0.3876   17.8954   70.3443  C     
7    F        -0.3442   16.8151   70.4013  F     
8    F         2.4021   16.6481   70.4382  F     
9    C        -0.0709   21.5829   70.2473  C     
10   O        -0.3635   22.0639   71.3365  O     
11   N        -0.3334   22.1971   69.0953  N     
12   C        -1.0798   23.4229   68.9426  C     
13   C        -2.4457   23.1329   68.4742  C     
14   O        -3.0055   23.8945   67.6854  O     
15   C        -0.1999   24.4152   68.0829  C     
16   C         0.5662   25.4461   68.9628  C     
17   C         1.3276   26.5684   68.2075  C     
18   C         2.8541   26.3342   68.0366  C     
19   N         3.6124   27.5596   68.3379  N     
20   C        -3.2349   22.1266   69.0192  C     
21   N        -2.8459   21.1169   69.8001  N     
22   N        -4.5541   21.9830   68.7916  N     
23   O        -4.9891   20.9092   69.3876  O     
24   C        -3.9304   20.3504   70.0146  C     
25   C        -3.9261   19.1192   70.8292  C     
26   C        -5.1375   18.2673   70.6310  C     
27   C        -6.3513   16.4699   69.4654  C     
28   C        -7.4994   16.6393   70.2920  C     
29   C        -7.4192   17.6383   71.2949  C     
30   C        -6.2679   18.4318   71.4597  C     
31   C        -5.2028   17.2773   69.6180  C     
32   C        -8.6690   15.8652   70.1288  C     
33   O        -9.6458   16.1181   70.8300  O     
34   N        -8.7911   14.8917   69.2167  N     
35   C       -10.0056   14.1405   68.9575  C     
36   C        -9.9684   13.2885   67.6539  C     
37   C       -10.3993   13.1487   70.0932  C     
38   C       -10.6559   12.0517   68.0069  C     
39   C       -11.5401   10.8451   69.9141  C     
40   C       -11.9422    9.8066   69.0508  C     
41   C       -11.7009    9.8935   67.6685  C     
42   C       -11.0468   11.0205   67.1360  C     
43   C       -10.9028   11.9761   69.3778  C     
44   H         3.5794   18.9546   70.3697  H     
45   H         2.5062   21.1214   70.2970  H     
46   H        -1.2916   19.1949   70.2551  H     
47   H        -0.0272   21.7580   68.2746  H     
48   H        -1.2376   23.8914   69.9294  H     
49   H         0.5110   23.8610   67.4607  H     
50   H        -0.8232   24.9896   67.4015  H     
51   H        -0.1793   25.9366   69.5988  H     
52   H         1.2602   24.9153   69.6118  H     
53   H         0.8761   26.7110   67.2181  H     
54   H         1.1903   27.5005   68.7773  H     
55   H         3.2028   25.5509   68.7164  H     
56   H         3.0713   26.0253   67.0104  H     
57   H         3.3249   28.3174   67.7084  H     
58   H         4.6103   27.3800   68.2087  H     
59   H         3.4425   27.8272   69.3137  H     
60   H        -3.0251   18.5429   70.5762  H     
61   H        -3.8334   19.4136   71.8767  H     
62   H        -6.3561   15.7729   68.7163  H     
63   H        -8.2095   17.8160   71.9197  H     
64   H        -6.2689   19.1440   72.1962  H     
65   H        -4.4062   17.1243   68.9903  H     
66   H        -8.0320   14.7087   68.6337  H     
67   H       -10.8235   14.8685   68.8402  H     
68   H       -10.5212   13.7808   66.8506  H     
69   H        -8.9461   13.0772   67.3203  H     
70   H        -9.5407   12.8641   70.7105  H     
71   H       -11.1804   13.5790   70.7275  H     
72   H       -11.7165   10.7793   70.9148  H     
73   H       -12.4093    8.9828   69.4334  H     
74   H       -11.9950    9.1368   67.0501  H     
75   H       -10.8671   11.0885   66.1347  H     
@<TRIPOS>BOND
     1    1    2 1
     2    1    6 2
     3    1    8 1
     4    2    3 2
     5    3    4 1
     6    4    5 2
     7    4    9 1
     8    5    6 1
     9    6    7 1
    10    9   10 2
    11    9   11 am
    12   11   12 1
    13   12   13 1
    14   12   15 1
    15   13   14 2
    16   13   20 1
    17   15   16 1
    18   16   17 1
    19   17   18 1
    20   18   19 1
    21   20   21 1
    22   20   22 2
    23   21   24 2
    24   22   23 1
    25   23   24 1
    26   24   25 1
    27   25   26 1
    28   26   30 1
    29   26   31 2
    30   27   28 2
    31   27   31 1
    32   28   29 1
    33   28   32 1
    34   29   30 2
    35   32   33 2
    36   32   34 am
    37   34   35 1
    38   35   36 1
    39   35   37 1
    40   36   38 1
    41   37   43 1
    42   38   42 1
    43   38   43 2
    44   39   40 2
    45   39   43 1
    46   40   41 1
    47   41   42 2
    48    2   44 1
    49    3   45 1
    50    5   46 1
    51   11   47 1
    52   12   48 1
    53   15   49 1
    54   15   50 1
    55   16   51 1
    56   16   52 1
    57   17   53 1
    58   17   54 1
    59   18   55 1
    60   18   56 1
    61   19   57 1
    62   19   58 1
    63   19   59 1
    64   25   60 1
    65   25   61 1
    66   27   62 1
    67   29   63 1
    68   30   64 1
    69   31   65 1
    70   34   66 1
    71   35   67 1
    72   36   68 1
    73   36   69 1
    74   37   70 1
    75   37   71 1
    76   39   72 1
    77   40   73 1
    78   41   74 1
    79   42   75 1
@<TRIPOS>PROPERTY_DATA
  Total_Score	| 10.6369
  Crash		| -4.9138
  Polar		| 7.0860
  FragIndex	| 1
  FragRMSD	| 0.283

