@<TRIPOS>MOLECULE
BindingDB_29035
 35 36 0 0 0
SMALL
NO_CHARGES


@<TRIPOS>ATOM
1    C        38.8836   34.1752   36.3495  C     
2    C        39.2795   32.9570   36.9391  C     
3    C        38.6360   32.4858   38.1082  C     
4    C        37.6265   33.2687   38.6920  C     
5    C        37.2705   34.5009   38.1328  C     
6    C        37.8782   34.9690   36.9544  C     
7    C        39.1586   31.4282   38.8902  C     
8    N        37.4820   36.2091   36.5685  N     
9    C        37.4594   36.8026   35.3849  C     
10   C        37.0033   38.0820   35.2898  C     
11   O        37.7900   36.2055   34.3554  O     
12   C        37.3615   39.0453   36.1862  C     
13   C        36.2025   38.3457   34.3284  C     
14   N        35.5154   38.5903   33.4289  N     
15   C        36.9372   40.4440   36.1024  C     
16   O        38.2270   38.7570   37.1594  O     
17   C        38.5254   30.1690   38.9935  C     
18   C        39.0149   29.1957   39.8946  C     
19   C        40.1539   29.4738   40.6735  C     
20   C        40.7845   30.7275   40.5778  C     
21   C        40.2778   31.7104   39.7102  C     
22   Cl       38.2232   27.7115   40.0854  Cl    
23   Cl       40.6184   32.1508   36.3071  Cl    
24   H        39.3982   34.5174   35.5364  H     
25   H        37.1738   32.9945   39.5632  H     
26   H        36.6175   35.0972   38.6313  H     
27   H        37.1171   36.7569   37.2721  H     
28   H        37.3948   40.8781   35.1933  H     
29   H        37.2871   41.0110   36.9802  H     
30   H        35.8422   40.5306   36.0559  H     
31   H        39.0906   38.7096   36.6932  H     
32   H        37.7084   29.9485   38.4220  H     
33   H        40.5077   28.7854   41.3481  H     
34   H        41.6015   30.9530   41.1493  H     
35   H        40.7185   32.6379   39.6855  H     
@<TRIPOS>BOND
     1    1    2 1
     2    1    6 2
     3    2    3 2
     4    2   23 1
     5    3    4 1
     6    3    7 1
     7    4    5 2
     8    5    6 1
     9    6    8 1
    10    7   17 2
    11    7   21 1
    12    8    9 am
    13    9   10 1
    14    9   11 2
    15   10   12 2
    16   10   13 1
    17   12   15 1
    18   12   16 1
    19   13   14 3
    20   17   18 1
    21   18   19 2
    22   18   22 1
    23   19   20 1
    24   20   21 2
    25    1   24 1
    26    4   25 1
    27    5   26 1
    28    8   27 1
    29   15   28 1
    30   15   29 1
    31   15   30 1
    32   16   31 1
    33   17   32 1
    34   19   33 1
    35   20   34 1
    36   21   35 1
@<TRIPOS>PROPERTY_DATA
  Total_Score	| 0.7636
  Crash		| -10.0453
  Polar		| 4.5083
  FragIndex	| 1
  FragRMSD	| 0.783

