@<TRIPOS>MOLECULE
BindingDB_29028
 38 39 0 0 0
SMALL
NO_CHARGES


@<TRIPOS>ATOM
1    C        38.2970   34.9311   38.2942  C     
2    C        38.7426   33.6716   38.7371  C     
3    C        38.9489   32.5774   37.8759  C     
4    C        38.7258   32.7616   36.4987  C     
5    C        38.2604   34.0018   36.0187  C     
6    C        38.0148   35.0923   36.9059  C     
7    C        39.1994   31.3076   38.4683  C     
8    N        37.4334   36.2555   36.4874  N     
9    C        37.4073   36.8788   35.3160  C     
10   C        36.9639   38.1684   35.2869  C     
11   O        37.8396   36.3666   34.2902  O     
12   C        37.3474   39.0790   36.2143  C     
13   C        36.1503   38.4903   34.3505  C     
14   N        35.4393   38.7714   33.4990  N     
15   C        36.8009   40.4234   36.3518  C     
16   O        38.3066   38.7789   37.0855  O     
17   C        40.0504   31.2190   39.6038  C     
18   C        40.1220   30.0405   40.3666  C     
19   C        39.3854   28.9077   39.9866  C     
20   C        38.5675   28.9730   38.8483  C     
21   C        38.4650   30.1531   38.0759  C     
22   C        38.1409   35.9646   39.3727  C     
23   F        37.7821   37.2304   39.0118  F     
24   F        37.1754   35.5240   40.2349  F     
25   F        39.3210   36.1169   40.0626  F     
26   Cl       37.3623   30.1656   36.7849  Cl    
27   H        38.8573   33.5254   39.7470  H     
28   H        38.8233   31.9559   35.8593  H     
29   H        38.0364   34.0745   35.0235  H     
30   H        37.0326   36.7693   37.1920  H     
31   H        37.1016   41.0217   35.4891  H     
32   H        37.1652   40.9192   37.2536  H     
33   H        35.7080   40.3939   36.4038  H     
34   H        39.1275   38.7511   36.5559  H     
35   H        40.5984   32.0236   39.9171  H     
36   H        40.7081   30.0017   41.1993  H     
37   H        39.4443   28.0482   40.5366  H     
38   H        38.0154   28.1516   38.6042  H     
@<TRIPOS>BOND
     1    1    2 1
     2    1    6 2
     3    1   22 1
     4    2    3 2
     5    3    4 1
     6    3    7 1
     7    4    5 2
     8    5    6 1
     9    6    8 1
    10    7   17 2
    11    7   21 1
    12    8    9 am
    13    9   10 1
    14    9   11 2
    15   10   12 2
    16   10   13 1
    17   12   15 1
    18   12   16 1
    19   13   14 3
    20   17   18 1
    21   18   19 2
    22   19   20 1
    23   20   21 2
    24   21   26 1
    25   22   23 1
    26   22   24 1
    27   22   25 1
    28    2   27 1
    29    4   28 1
    30    5   29 1
    31    8   30 1
    32   15   31 1
    33   15   32 1
    34   15   33 1
    35   16   34 1
    36   17   35 1
    37   18   36 1
    38   19   37 1
    39   20   38 1
@<TRIPOS>PROPERTY_DATA
  Total_Score	| 1.5741
  Crash		| -10.2598
  Polar		| 3.9377
  FragIndex	| 1
  FragRMSD	| 0.671

