@<TRIPOS>MOLECULE
BindingDB_10885
 45 46 0 0 0
SMALL
NO_CHARGES


@<TRIPOS>ATOM
1    C        -2.7332    4.1988   14.2883  C     
2    C        -2.7907    5.4126   13.2886  C     
3    S        -5.3432    5.9406   13.7886  S     
4    O        -6.2052    6.8580   14.7407  O     
5    O        -6.1038    5.6764   12.4136  O     
6    N        -3.7320    6.4418   13.6042  N     
7    C        -3.4069    7.8146   13.3305  C     
8    C        -2.4541    8.3933   14.4265  C     
9    C        -1.7262    9.6893   13.9772  C     
10   O        -1.5103   10.6276   15.0531  O     
11   C        -0.6754   10.1912   16.1312  C     
12   N        -1.9444    3.0926   13.7045  N     
13   C        -2.1408    2.6629   12.3025  C     
14   C        -1.8198    1.1666   12.1116  C     
15   C        -4.0526    3.7370   14.8288  C     
16   C        -4.2141    2.6260   15.6902  C     
17   C        -5.2419    4.4387   14.6352  C     
18   S        -6.5075    3.6587   15.4879  S     
19   C        -5.5231    2.4073   16.1441  C     
20   S        -6.0824    1.1120   17.1296  S     
21   O        -6.1244   -0.2309   16.2711  O     
22   O        -5.0017    0.8944   18.2917  O     
23   N        -7.5740    1.3408   17.8567  N     
24   H        -2.1932    4.5452   15.1607  H     
25   H        -1.7659    5.7965   13.2085  H     
26   H        -3.0667    5.0683   12.2943  H     
27   H        -2.9281    7.8868   12.3500  H     
28   H        -4.2998    8.4484   13.3006  H     
29   H        -3.0646    8.5910   15.3092  H     
30   H        -1.7000    7.6500   14.6997  H     
31   H        -0.7842    9.4482   13.4718  H     
32   H        -2.3314   10.2321   13.2563  H     
33   H        -1.0728    9.2992   16.6191  H     
34   H        -0.6316   10.9871   16.8762  H     
35   H         0.3431    9.9918   15.7849  H     
36   H        -0.9362    3.3445   13.8278  H     
37   H        -2.0919    2.2741   14.2981  H     
38   H        -3.1927    2.8055   11.9776  H     
39   H        -1.5049    3.2425   11.6376  H     
40   H        -0.8029    0.9568   12.4620  H     
41   H        -1.8894    0.8920   11.0630  H     
42   H        -2.5274    0.5723   12.6870  H     
43   H        -3.4371    2.0187   15.9602  H     
44   H        -7.7225    1.0109   18.7549  H     
45   H        -8.2103    1.9452   17.4511  H     
@<TRIPOS>BOND
     1    1    2 1
     2    1   12 1
     3    1   15 1
     4    2    6 1
     5    3    4 2
     6    3    5 2
     7    3    6 1
     8    3   17 1
     9    6    7 1
    10    7    8 1
    11    8    9 1
    12    9   10 1
    13   10   11 1
    14   12   13 1
    15   13   14 1
    16   15   16 1
    17   15   17 2
    18   16   19 2
    19   17   18 1
    20   18   19 1
    21   19   20 1
    22   20   21 2
    23   20   22 2
    24   20   23 am
    25    1   24 1
    26    2   25 1
    27    2   26 1
    28    7   27 1
    29    7   28 1
    30    8   29 1
    31    8   30 1
    32    9   31 1
    33    9   32 1
    34   11   33 1
    35   11   34 1
    36   11   35 1
    37   12   36 1
    38   12   37 1
    39   13   38 1
    40   13   39 1
    41   14   40 1
    42   14   41 1
    43   14   42 1
    44   16   43 1
    45   23   44 1
    46   23   45 1
@<TRIPOS>PROPERTY_DATA
  Total_Score	| 7.0621
  Crash		| -2.5036
  Polar		| 4.9087
  FragIndex	| 1
  FragRMSD	| 1.070

