@<TRIPOS>MOLECULE
BindingDB_13596
 65 69 0 0 0
SMALL
NO_CHARGES


@<TRIPOS>ATOM
1    C        -1.4941   71.8875   73.3096  C     
2    C        -2.2966   71.5950   74.4336  C     
3    C        -3.0073   70.3772   74.5070  C     
4    C        -2.9301   69.4432   73.4550  C     
5    C        -1.4284   70.9557   72.2536  C     
6    C        -2.1249   69.7572   72.3465  C     
7    N        -1.8625   69.0825   71.2272  N     
8    N        -1.0919   69.7923   70.5255  N     
9    N        -0.7933   70.9200   71.0595  N     
10   C         1.2175   72.1899   71.3978  C     
11   C         2.0104   71.0988   71.8545  C     
12   C         3.1160   71.2856   72.7011  C     
13   C         3.4742   72.5813   73.1157  C     
14   C         2.7092   73.6849   72.6959  C     
15   C         1.5926   73.4875   71.8587  C     
16   C         0.6793   71.4205   69.0666  C     
17   C         1.4226   72.4059   68.2206  C     
18   C         0.7710   73.0646   67.1543  C     
19   C         1.4340   74.0323   66.3798  C     
20   C         2.7981   74.3425   66.5936  C     
21   C         3.4639   73.6446   67.6314  C     
22   C         2.7910   72.6934   68.4258  C     
23   C         3.4761   75.3811   65.7522  C     
24   F         2.6413   76.4637   65.6090  F     
25   F         4.6187   75.8809   66.3352  F     
26   P         3.9040   74.8197   64.2418  P     
27   O         4.2214   75.9209   63.3689  O     
28   O         5.1503   73.9172   64.2693  O     
29   O         2.7771   74.0604   63.5198  O     
30   C         0.0596   71.9380   70.4358  C     
31   C        -0.8441   73.2091   70.1383  C     
32   C        -1.9686   73.1291   69.1489  C     
33   C        -2.9938   72.1590   69.2419  C     
34   C        -4.0314   72.0923   68.2958  C     
35   C        -3.1271   74.0336   67.1693  C     
36   C        -2.0839   74.0909   68.1136  C     
37   C        -4.1170   73.0209   67.2256  C     
38   P        -6.1006   74.2720   65.9816  P     
39   O        -6.9608   74.4618   67.1199  O     
40   O        -5.2382   75.5414   65.8075  O     
41   O        -6.9786   74.1655   64.7110  O     
42   C        -5.1609   72.9068   66.1559  C     
43   F        -4.5560   72.6374   64.9519  F     
44   F        -6.0254   71.8597   66.3679  F     
45   F         4.5109   72.7454   73.8951  F     
46   F         3.0327   74.8931   73.0767  F     
47   H        -0.9745   72.7601   73.2720  H     
48   H        -2.3564   72.2655   75.2057  H     
49   H        -3.5936   70.1749   75.3233  H     
50   H        -3.4529   68.5636   73.4910  H     
51   H         1.7840   70.1412   71.5697  H     
52   H         3.6652   70.4793   73.0062  H     
53   H         1.0645   74.3187   71.5752  H     
54   H        -0.1390   70.9968   68.4769  H     
55   H         1.3523   70.5822   69.2486  H     
56   H        -0.2059   72.8568   66.9375  H     
57   H         0.9028   74.5150   65.6502  H     
58   H         4.4534   73.8212   67.8223  H     
59   H         3.3207   72.2054   69.1522  H     
60   H        -1.2846   73.5700   71.0654  H     
61   H        -0.1724   74.0035   69.8079  H     
62   H        -2.9994   71.4836   70.0113  H     
63   H        -4.7383   71.3597   68.4071  H     
64   H        -3.1504   74.7383   66.4289  H     
65   H        -1.4006   74.8449   68.0290  H     
@<TRIPOS>BOND
     1    1    2 2
     2    1    5 1
     3    2    3 1
     4    3    4 2
     5    4    6 1
     6    5    6 2
     7    5    9 1
     8    6    7 1
     9    7    8 2
    10    8    9 1
    11    9   30 1
    12   10   11 1
    13   10   15 2
    14   30   10 1
    15   11   12 2
    16   12   13 1
    17   13   14 2
    18   13   45 1
    19   14   15 1
    20   14   46 1
    21   16   17 1
    22   16   30 1
    23   17   18 2
    24   17   22 1
    25   18   19 1
    26   19   20 2
    27   20   21 1
    28   20   23 1
    29   21   22 2
    30   23   24 1
    31   23   25 1
    32   23   26 1
    33   26   27 2
    34   26   28 1
    35   26   29 1
    36   30   31 1
    37   31   32 1
    38   32   33 1
    39   32   36 2
    40   33   34 2
    41   34   37 1
    42   35   36 1
    43   35   37 2
    44   37   42 1
    45   38   39 2
    46   38   40 1
    47   38   41 1
    48   38   42 1
    49   42   43 1
    50   42   44 1
    51    1   47 1
    52    2   48 1
    53    3   49 1
    54    4   50 1
    55   11   51 1
    56   12   52 1
    57   15   53 1
    58   16   54 1
    59   16   55 1
    60   18   56 1
    61   19   57 1
    62   21   58 1
    63   22   59 1
    64   31   60 1
    65   31   61 1
    66   33   62 1
    67   34   63 1
    68   35   64 1
    69   36   65 1
@<TRIPOS>PROPERTY_DATA
  Total_Score	| 15.3376
  Crash		| -1.2631
  Polar		| 8.3381
  FragIndex	| 1
  FragRMSD	| 0.737

