@<TRIPOS>MOLECULE
BindingDB_13815
 63 67 0 0 0
SMALL
NO_CHARGES


@<TRIPOS>ATOM
1    C        -4.1927   73.1387   67.2295  C     
2    C        -4.2016   72.2617   68.3424  C     
3    C        -3.1772   72.2920   69.3096  C     
4    C        -2.1031   74.0927   68.1134  C     
5    C        -3.1330   74.0734   67.1555  C     
6    C        -5.2382   73.0884   66.1473  C     
7    F        -4.6212   72.8294   64.9436  F     
8    F        -6.1319   72.0555   66.3243  F     
9    P        -6.1556   74.4719   65.9945  P     
10   O        -7.1606   74.3090   64.8343  O     
11   O        -6.9887   74.7219   67.2668  O     
12   O        -5.3701   75.6513   65.7216  O     
13   C        -2.0800   73.1758   69.1932  C     
14   C        -0.9702   73.2026   70.2043  C     
15   C         1.0961   72.0689   71.3842  C     
16   C         1.8412   70.9239   71.7957  C     
17   C         3.0556   71.0369   72.4985  C     
18   C         3.5657   72.3068   72.8180  C     
19   C         2.8301   73.4534   72.4801  C     
20   C         1.6096   73.3345   71.7896  C     
21   N        -0.9844   70.8932   71.0785  N     
22   N        -1.3469   69.7993   70.5104  N     
23   N        -2.0485   69.0507   71.2491  N     
24   C        -1.5103   70.8740   72.3273  C     
25   C        -2.1881   69.6644   72.4232  C     
26   C        -1.4602   71.7358   73.4459  C     
27   C        -2.0868   71.3368   74.6464  C     
28   C        -2.7722   70.1057   74.7220  C     
29   C        -2.8345   69.2559   73.5957  C     
30   C        -0.1105   71.8923   70.4595  C     
31   C         0.4699   71.3693   69.0712  C     
32   C         1.6745   72.0249   68.5572  C     
33   C         1.6738   73.1318   67.7918  C     
34   C         2.7875   73.8434   67.3096  C     
35   C         5.2105   74.1847   66.9612  C     
36   C         4.1371   73.4088   67.4513  C     
37   C         2.5676   75.0776   66.6441  C     
38   C         3.6393   75.8512   66.1531  C     
39   C         4.9629   75.4064   66.3145  C     
40   H        -4.9527   71.5767   68.4603  H     
41   H        -3.2410   71.6497   70.0965  H     
42   H        -1.3612   74.7849   68.0029  H     
43   H        -3.0878   74.7388   66.3810  H     
44   H        -0.2721   73.9910   69.8960  H     
45   H        -1.4014   73.5375   71.1540  H     
46   H         1.5149   69.9822   71.5538  H     
47   H         3.5757   70.1956   72.7682  H     
48   H         4.4607   72.3959   73.3052  H     
49   H         3.1857   74.3808   72.7292  H     
50   H         1.1187   74.2004   71.5638  H     
51   H        -0.9597   72.6254   73.3980  H     
52   H        -2.0362   71.9437   75.4678  H     
53   H        -3.2109   69.8160   75.5966  H     
54   H        -3.3170   68.3555   73.6372  H     
55   H         0.7486   70.3178   69.1854  H     
56   H        -0.3164   71.3858   68.3111  H     
57   H         2.5401   71.6187   68.8092  H     
58   H         0.7760   73.5003   67.5619  H     
59   H         6.1724   73.8606   67.0776  H     
60   H         4.3702   72.5224   67.9056  H     
61   H         1.6172   75.4370   66.5121  H     
62   H         3.4527   76.7360   65.6798  H     
63   H         5.7395   75.9674   65.9600  H     
@<TRIPOS>BOND
     1    1    2 1
     2    1    5 2
     3    1    6 1
     4    2    3 2
     5    3   13 1
     6    4    5 1
     7    4   13 2
     8    6    7 1
     9    6    8 1
    10    6    9 1
    11    9   10 1
    12    9   11 1
    13    9   12 2
    14   13   14 1
    15   14   30 1
    16   15   16 2
    17   15   20 1
    18   15   30 1
    19   16   17 1
    20   17   18 2
    21   18   19 1
    22   19   20 2
    23   21   22 1
    24   21   24 1
    25   21   30 1
    26   22   23 2
    27   23   25 1
    28   24   25 2
    29   24   26 1
    30   25   29 1
    31   26   27 2
    32   27   28 1
    33   28   29 2
    34   30   31 1
    35   31   32 1
    36   32   33 2
    37   33   34 1
    38   34   36 2
    39   34   37 1
    40   35   36 1
    41   35   39 2
    42   37   38 2
    43   38   39 1
    44    2   40 1
    45    3   41 1
    46    4   42 1
    47    5   43 1
    48   14   44 1
    49   14   45 1
    50   16   46 1
    51   17   47 1
    52   18   48 1
    53   19   49 1
    54   20   50 1
    55   26   51 1
    56   27   52 1
    57   28   53 1
    58   29   54 1
    59   31   55 1
    60   31   56 1
    61   32   57 1
    62   33   58 1
    63   35   59 1
    64   36   60 1
    65   37   61 1
    66   38   62 1
    67   39   63 1
@<TRIPOS>PROPERTY_DATA
  Total_Score	| 10.0758
  Crash		| -0.8864
  Polar		| 2.6760
  FragIndex	| 1
  FragRMSD	| 0.430

