@<TRIPOS>MOLECULE
BindingDB_50142328
 71 75 0 0 0
SMALL
NO_CHARGES


@<TRIPOS>ATOM
1    N        -0.8106   70.9062   71.0728  N     
2    N        -1.2048   69.8458   70.4465  N     
3    C         0.0731   71.9416   70.5161  C     
4    P        -6.0086   74.2994   65.9976  P     
5    P         3.9691   74.7991   64.2805  P     
6    C         3.5218   75.3703   65.7857  C     
7    C        -5.1239   72.9003   66.1962  C     
8    N        -2.0189   69.1340   71.1072  N     
9    C        -1.3998   70.8630   72.2913  C     
10   C        -2.1919   69.7197   72.2922  C     
11   C         3.8700   72.6282   74.8644  C     
12   C         1.1679   72.1818   71.5464  C     
13   C         2.8482   74.3425   66.6463  C     
14   C        -4.0814   72.9897   67.2826  C     
15   C         0.7719   71.4462   69.1733  C     
16   C        -0.8390   73.2112   70.2243  C     
17   O        -5.2189   75.4879   65.7849  O     
18   O         5.0841   73.8883   64.3038  O     
19   C         3.0641   72.4879   73.7122  C     
20   F        -4.5024   72.5809   64.9960  F     
21   F         2.6625   76.4305   65.6176  F     
22   F        -6.0335   71.8845   66.4201  F     
23   F         4.6623   75.9064   66.3539  F     
24   O         4.2561   73.8533   75.2950  O     
25   O        -6.9248   74.1596   64.7660  O     
26   O         2.8223   74.1379   63.4967  O     
27   O         4.4025   75.9821   63.3902  O     
28   O        -6.9335   74.5471   67.2130  O     
29   C         1.5324   73.4632   72.0585  C     
30   C         1.8735   71.0725   72.0999  C     
31   C         2.7923   71.2140   73.1493  C     
32   C         2.4496   73.6148   73.1063  C     
33   C         3.5171   73.6860   67.7129  C     
34   C        -3.0701   73.9803   67.2090  C     
35   C         1.4855   74.0080   66.4341  C     
36   C        -4.0206   72.0771   68.3771  C     
37   C        -1.9437   73.1097   69.2157  C     
38   C         1.4919   72.4378   68.3243  C     
39   O         4.2090   71.5353   75.6080  O     
40   C        -2.0310   74.0499   68.1571  C     
41   C         0.8309   73.0493   67.2284  C     
42   C         2.8558   72.7515   68.5374  C     
43   C        -2.9780   72.1357   69.3215  C     
44   C        -1.3819   71.6890   73.4347  C     
45   C        -2.9922   69.3433   73.3852  C     
46   C         4.9231   71.5323   76.8440  C     
47   C        -2.1795   71.3451   74.5527  C     
48   C        -2.9733   70.1762   74.5262  C     
49   H         1.4681   70.6306   69.3990  H     
50   H         0.0012   70.9782   68.5544  H     
51   H        -1.2919   73.5471   71.1645  H     
52   H        -0.1744   74.0208   69.9065  H     
53   H         1.0990   74.3138   71.6971  H     
54   H         1.7042   70.1303   71.7451  H     
55   H         3.2307   70.3696   73.5319  H     
56   H         2.6457   74.5585   73.4576  H     
57   H         4.5063   73.8705   67.8896  H     
58   H        -3.0906   74.6891   66.4648  H     
59   H         0.9358   74.4729   65.7010  H     
60   H        -4.7450   71.3593   68.5027  H     
61   H        -1.3548   74.8251   68.0809  H     
62   H        -0.1390   72.8104   67.0047  H     
63   H         3.3777   72.2882   69.2864  H     
64   H        -3.0040   71.4824   70.1102  H     
65   H        -0.7967   72.5260   73.4703  H     
66   H        -3.5716   68.5020   73.3513  H     
67   H         5.9116   71.9786   76.7133  H     
68   H         5.0422   70.5065   77.1888  H     
69   H         4.3665   72.1011   77.5966  H     
70   H        -2.1736   71.9433   75.3863  H     
71   H        -3.5510   69.9371   75.3344  H     
@<TRIPOS>BOND
     1    1    2 1
     2    1    3 1
     3    1    9 1
     4    2    8 2
     5    3   12 1
     6    3   15 1
     7    3   16 1
     8    4    7 1
     9    4   17 2
    10    4   25 1
    11    4   28 1
    12    5    6 1
    13    5   18 2
    14    5   26 1
    15    5   27 1
    16    6   13 1
    17    6   21 1
    18    6   23 1
    19    7   14 1
    20    7   20 1
    21    7   22 1
    22    8   10 1
    23    9   10 2
    24    9   44 1
    25   10   45 1
    26   11   19 1
    27   11   24 2
    28   11   39 1
    29   12   29 2
    30   12   30 1
    31   13   33 2
    32   13   35 1
    33   14   34 1
    34   14   36 2
    35   15   38 1
    36   16   37 1
    37   19   31 1
    38   19   32 2
    39   29   32 1
    40   30   31 2
    41   33   42 1
    42   34   40 2
    43   35   41 2
    44   36   43 1
    45   37   40 1
    46   37   43 2
    47   38   41 1
    48   38   42 2
    49   39   46 1
    50   44   47 2
    51   45   48 2
    52   47   48 1
    53   15   49 1
    54   15   50 1
    55   16   51 1
    56   16   52 1
    57   29   53 1
    58   30   54 1
    59   31   55 1
    60   32   56 1
    61   33   57 1
    62   34   58 1
    63   35   59 1
    64   36   60 1
    65   40   61 1
    66   41   62 1
    67   42   63 1
    68   43   64 1
    69   44   65 1
    70   45   66 1
    71   46   67 1
    72   46   68 1
    73   46   69 1
    74   47   70 1
    75   48   71 1
@<TRIPOS>PROPERTY_DATA
  Total_Score	| 15.4474
  Crash		| -1.1780
  Polar		| 8.3293
  FragIndex	| 1
  FragRMSD	| 0.565

