@<TRIPOS>MOLECULE
BindingDB_13595
 65 69 0 0 0
SMALL
NO_CHARGES


@<TRIPOS>ATOM
1    C        -1.2775   71.5636   73.5184  C     
2    C        -2.0044   71.1109   74.6422  C     
3    C        -2.8146   69.9552   74.5408  C     
4    C        -2.8806   69.2331   73.3254  C     
5    C        -1.3322   70.8309   72.3009  C     
6    C        -2.1086   69.6789   72.2370  C     
7    N        -1.9602   69.1723   71.0032  N     
8    N        -1.1835   69.9412   70.3843  N     
9    N        -0.7686   70.9506   71.0714  N     
10   C         1.2467   72.2493   71.4277  C     
11   C         1.6398   73.5086   71.9630  C     
12   C         2.7908   73.6402   72.7671  C     
13   C         3.5781   72.5228   73.0792  C     
14   C         3.2043   71.2620   72.5974  C     
15   C         2.0564   71.1308   71.7939  C     
16   C         0.6020   71.6242   69.0674  C     
17   C         1.3575   72.6269   68.2453  C     
18   C         2.6764   73.0333   68.5582  C     
19   C         3.3677   73.9592   67.7500  C     
20   C         2.7750   74.4895   66.5781  C     
21   C         1.4634   74.0664   66.2608  C     
22   C         0.7892   73.1352   67.0578  C     
23   C         3.4895   75.4569   65.6888  C     
24   F         2.6858   76.5537   65.5004  F     
25   F         4.6497   75.9501   66.2488  F     
26   P         3.9021   74.8154   64.2010  P     
27   O         4.2384   75.8776   63.2905  O     
28   O         5.1442   73.9167   64.2631  O     
29   O         2.7892   74.0188   63.5003  O     
30   C         0.0479   72.0356   70.5051  C     
31   C        -0.9007   73.3063   70.3453  C     
32   C        -2.0318   73.2405   69.3621  C     
33   C        -3.0500   72.2635   69.4524  C     
34   C        -4.0307   72.1380   68.4511  C     
35   C        -3.0972   74.0525   67.2993  C     
36   C        -2.1132   74.1690   68.2925  C     
37   C        -4.0604   73.0159   67.3358  C     
38   P        -6.0321   74.1979   66.0071  P     
39   O        -6.9142   74.3933   67.1256  O     
40   O        -5.2121   75.4942   65.8433  O     
41   O        -6.8947   74.0623   64.7329  O     
42   C        -5.0533   72.8684   66.2192  C     
43   F        -4.3961   72.6152   65.0364  F     
44   F        -5.8893   71.7914   66.4013  F     
45   H        -0.6988   72.3949   73.6175  H     
46   H        -1.9356   71.6170   75.5340  H     
47   H        -3.3523   69.6364   75.3532  H     
48   H        -3.4668   68.3995   73.2430  H     
49   H         1.1071   74.3596   71.7764  H     
50   H         3.0525   74.5608   73.1251  H     
51   H         4.4111   72.6151   73.6705  H     
52   H         3.7665   70.4364   72.8279  H     
53   H         1.8090   70.1870   71.4838  H     
54   H        -0.2564   71.2825   68.4836  H     
55   H         1.2416   70.7402   69.1471  H     
56   H         3.1564   72.6477   69.3707  H     
57   H         4.3150   74.2360   68.0222  H     
58   H         0.9861   74.4139   65.4283  H     
59   H        -0.1377   72.8348   66.7560  H     
60   H        -1.3243   73.5652   71.3215  H     
61   H        -0.2743   74.1569   70.0518  H     
62   H        -3.0810   71.6249   70.2490  H     
63   H        -4.7233   71.3948   68.5413  H     
64   H        -3.0887   74.7242   66.5257  H     
65   H        -1.4262   74.9231   68.1998  H     
@<TRIPOS>BOND
     1    1    2 2
     2    1    5 1
     3    2    3 1
     4    3    4 2
     5    4    6 1
     6    5    6 2
     7    5    9 1
     8    6    7 1
     9    7    8 2
    10    8    9 1
    11    9   30 1
    12   10   11 1
    13   10   15 2
    14   30   10 1
    15   11   12 2
    16   12   13 1
    17   13   14 2
    18   14   15 1
    19   16   17 1
    20   16   30 1
    21   17   18 2
    22   17   22 1
    23   18   19 1
    24   19   20 2
    25   20   21 1
    26   20   23 1
    27   21   22 2
    28   23   24 1
    29   23   25 1
    30   23   26 1
    31   26   27 2
    32   26   28 1
    33   26   29 1
    34   30   31 1
    35   31   32 1
    36   32   33 1
    37   32   36 2
    38   33   34 2
    39   34   37 1
    40   35   36 1
    41   35   37 2
    42   37   42 1
    43   38   39 2
    44   38   40 1
    45   38   41 1
    46   38   42 1
    47   42   43 1
    48   42   44 1
    49    1   45 1
    50    2   46 1
    51    3   47 1
    52    4   48 1
    53   11   49 1
    54   12   50 1
    55   13   51 1
    56   14   52 1
    57   15   53 1
    58   16   54 1
    59   16   55 1
    60   18   56 1
    61   19   57 1
    62   21   58 1
    63   22   59 1
    64   31   60 1
    65   31   61 1
    66   33   62 1
    67   34   63 1
    68   35   64 1
    69   36   65 1
@<TRIPOS>PROPERTY_DATA
  Total_Score	| 15.4395
  Crash		| -1.1199
  Polar		| 8.3170
  FragIndex	| 1
  FragRMSD	| 0.737

