@<TRIPOS>MOLECULE
BindingDB_50142335
 69 73 0 0 0
SMALL
NO_CHARGES


@<TRIPOS>ATOM
1    N        -1.2715   71.1242   72.2553  N     
2    N        -2.0618   71.8567   72.9575  N     
3    P         4.3597   75.0178   64.0257  P     
4    P        -5.9883   74.2497   66.1766  P     
5    C        -5.0797   72.8580   66.3237  C     
6    C         4.4273   75.8103   65.4898  C     
7    N        -2.6904   71.2422   73.8588  N     
8    C        -0.3677   71.7658   71.2890  C     
9    C        -1.3939   69.8599   72.7453  C     
10   C        -2.3098   69.9715   73.7888  C     
11   C         3.5471   75.0905   66.4477  C     
12   C        -4.1003   72.8786   67.4633  C     
13   O         4.7568   75.9044   62.9662  O     
14   O        -6.8232   74.4536   67.3321  O     
15   C        -1.1234   73.0351   70.6807  C     
16   C         0.8716   72.1335   72.1249  C     
17   C         1.1157   71.4059   69.2055  C     
18   F        -4.4055   72.6561   65.1418  F     
19   F         4.0439   77.1273   65.3195  F     
20   F        -5.9806   71.8203   66.4149  F     
21   F         5.7335   75.8568   65.9208  F     
22   C         0.8589   72.4518   68.3975  C     
23   O         5.2680   73.7769   64.0281  O     
24   O         2.9616   74.5051   63.6322  O     
25   O        -5.1214   75.5143   66.0041  O     
26   O        -6.9098   74.1751   64.9398  O     
27   C        -4.1359   71.9401   68.5260  C     
28   C         2.1460   75.1957   66.2953  C     
29   C        -3.0783   73.8553   67.5028  C     
30   C         4.0535   74.1102   67.3347  C     
31   C         0.1036   70.8348   70.0865  C     
32   C        -2.1583   72.9369   69.5957  C     
33   C         1.7887   73.3020   67.8039  C     
34   C        -3.1913   71.9719   69.5752  C     
35   C        -2.1563   73.9026   68.5601  C     
36   C         3.1887   73.2426   68.0222  C     
37   C         1.2868   74.3066   66.9451  C     
38   C        -0.8164   68.5911   72.5030  C     
39   C        -2.6677   68.8956   74.6200  C     
40   C         1.0429   73.3729   72.8100  C     
41   C         1.9187   71.1843   72.3001  C     
42   C        -1.1277   67.5042   73.3463  C     
43   C        -2.0547   67.6508   74.3948  C     
44   C         3.0837   71.4696   73.0372  C     
45   C         2.2027   73.6681   73.5550  C     
46   C         3.2303   72.7229   73.6519  C     
47   H        -1.5970   73.6052   71.4812  H     
48   H        -0.3360   73.6866   70.3032  H     
49   H         2.0461   71.0293   69.2591  H     
50   H        -0.1005   72.6708   68.2576  H     
51   H        -4.8541   71.2157   68.5473  H     
52   H         1.7442   75.8784   65.6505  H     
53   H        -2.9936   74.5480   66.7575  H     
54   H         5.0619   73.9785   67.4395  H     
55   H         0.5712   69.9379   70.4823  H     
56   H        -0.7571   70.4989   69.4997  H     
57   H        -3.2656   71.2816   70.3252  H     
58   H        -1.4651   74.6554   68.5597  H     
59   H         3.6046   72.5286   68.6225  H     
60   H         0.2844   74.3931   66.7564  H     
61   H        -0.1596   68.4298   71.7475  H     
62   H        -3.3321   69.0285   75.3863  H     
63   H         0.3158   74.0847   72.8037  H     
64   H         1.8487   70.2523   71.8930  H     
65   H        -0.6625   66.6094   73.1997  H     
66   H        -2.2723   66.8576   75.0001  H     
67   H         3.8263   70.7705   73.1254  H     
68   H         2.2906   74.5657   74.0367  H     
69   H         4.0755   72.9317   74.1921  H     
@<TRIPOS>BOND
     1    1    2 1
     2    1    8 1
     3    1    9 1
     4    2    7 2
     5    3    6 1
     6    3   13 2
     7    3   23 1
     8    3   24 1
     9    4    5 1
    10    4   14 2
    11    4   25 1
    12    4   26 1
    13    5   12 1
    14    5   18 1
    15    5   20 1
    16    6   11 1
    17    6   19 1
    18    6   21 1
    19    7   10 1
    20    8   15 1
    21    8   16 1
    22    8   31 1
    23    9   10 2
    24    9   38 1
    25   10   39 1
    26   11   28 2
    27   11   30 1
    28   12   27 1
    29   12   29 2
    30   15   32 1
    31   16   40 2
    32   16   41 1
    33   17   22 2
    34   17   31 1
    35   22   33 1
    36   27   34 2
    37   28   37 1
    38   29   35 1
    39   30   36 2
    40   32   34 1
    41   32   35 2
    42   33   36 1
    43   33   37 2
    44   38   42 2
    45   39   43 2
    46   40   45 1
    47   41   44 2
    48   42   43 1
    49   44   46 1
    50   45   46 2
    51   15   47 1
    52   15   48 1
    53   17   49 1
    54   22   50 1
    55   27   51 1
    56   28   52 1
    57   29   53 1
    58   30   54 1
    59   31   55 1
    60   31   56 1
    61   34   57 1
    62   35   58 1
    63   36   59 1
    64   37   60 1
    65   38   61 1
    66   39   62 1
    67   40   63 1
    68   41   64 1
    69   42   65 1
    70   43   66 1
    71   44   67 1
    72   45   68 1
    73   46   69 1
@<TRIPOS>PROPERTY_DATA
  Total_Score	| 10.0205
  Crash		| -3.9208
  Polar		| 5.6683
  FragIndex	| 1
  FragRMSD	| 1.167

