@<TRIPOS>MOLECULE
BindingDB_50142323
 65 69 0 0 0
SMALL
NO_CHARGES


@<TRIPOS>ATOM
1    N        -0.7542   70.9081   71.0602  N     
2    N        -1.0618   69.7893   70.5099  N     
3    C         3.3115   75.3742   65.5959  C     
4    C         0.0932   71.9351   70.4412  C     
5    P         3.8367   74.7484   64.1425  P     
6    C         2.7007   74.3244   66.4820  C     
7    P        -6.0497   74.3386   66.0119  P     
8    C        -5.1329   72.9553   66.1928  C     
9    N        -1.8321   69.0681   71.2059  N     
10   C        -1.3625   70.9173   72.2717  C     
11   C         3.4417   73.5186   67.3941  C     
12   C        -2.0768   69.7286   72.3369  C     
13   C         1.3062   74.0862   66.3976  C     
14   C        -4.0933   73.0498   67.2707  C     
15   C         0.6868   71.4252   69.0579  C     
16   C        -0.8232   73.2101   70.1814  C     
17   O         4.0946   75.8205   63.2108  O     
18   O        -5.2256   75.5069   65.8296  O     
19   C         1.2742   72.1632   71.3857  C     
20   C         2.7852   72.6129   68.2530  C     
21   F         2.4151   76.3851   65.3302  F     
22   F         4.3561   76.0506   66.1799  F     
23   C         1.3863   72.4163   68.1855  C     
24   F        -4.5197   72.6782   64.9937  F     
25   F        -6.0177   71.9186   66.3909  F     
26   O         5.1550   73.9530   64.2423  O     
27   O         2.7802   73.8433   63.4708  O     
28   O        -6.9795   74.2189   64.7859  O     
29   O        -6.9503   74.5667   67.2405  O     
30   C        -3.1224   74.0799   67.2467  C     
31   C        -3.9950   72.0908   68.3125  C     
32   Br        5.3043   73.5270   67.4643  Br    
33   C         0.6653   73.1334   67.2078  C     
34   C        -1.9514   73.1418   69.1945  C     
35   C        -2.0859   74.1332   68.1977  C     
36   C        -2.9537   72.1407   69.2564  C     
37   C        -1.4094   71.8181   73.3563  C     
38   C        -2.8829   69.3933   73.4371  C     
39   C         2.0256   71.0424   71.8479  C     
40   C         1.6977   73.4371   71.8582  C     
41   C        -2.2207   71.5141   74.4664  C     
42   C        -2.9573   70.3054   74.5086  C     
43   C         2.7833   73.5800   72.7410  C     
44   C         3.1079   71.1775   72.7336  C     
45   C         3.4855   72.4491   73.1877  C     
46   H         0.7297   74.6057   65.7275  H     
47   H         1.3673   70.5861   69.2294  H     
48   H        -0.1329   70.9948   68.4761  H     
49   H        -1.2630   73.5400   71.1227  H     
50   H        -0.1700   74.0219   69.8598  H     
51   H         3.3431   72.0593   68.9107  H     
52   H        -3.1479   74.7935   66.5186  H     
53   H        -4.6913   71.3427   68.4003  H     
54   H        -0.3499   72.9922   67.0997  H     
55   H        -1.4290   74.9148   68.1483  H     
56   H        -2.9331   71.4317   69.9948  H     
57   H        -0.8675   72.6853   73.3405  H     
58   H        -3.4015   68.5135   73.4570  H     
59   H         1.7727   70.0978   71.5526  H     
60   H         1.2256   74.2936   71.5733  H     
61   H        -2.2805   72.1712   75.2487  H     
62   H        -3.5427   70.0939   75.3173  H     
63   H         3.0628   74.5088   73.0615  H     
64   H         3.6182   70.3499   73.0515  H     
65   H         4.2665   72.5541   73.8380  H     
@<TRIPOS>BOND
     1    1    2 1
     2    1    4 1
     3    1   10 1
     4    2    9 2
     5    3    5 1
     6    3    6 1
     7    3   21 1
     8    3   22 1
     9    4   15 1
    10    4   16 1
    11    4   19 1
    12    5   17 2
    13    5   26 1
    14    5   27 1
    15    6   11 1
    16    6   13 2
    17    7    8 1
    18    7   18 2
    19    7   28 1
    20    7   29 1
    21    8   14 1
    22    8   24 1
    23    8   25 1
    24    9   12 1
    25   10   12 2
    26   10   37 1
    27   11   20 2
    28   11   32 1
    29   12   38 1
    30   13   33 1
    31   14   30 2
    32   14   31 1
    33   15   23 1
    34   16   34 1
    35   19   39 1
    36   19   40 2
    37   20   23 1
    38   23   33 2
    39   30   35 1
    40   31   36 2
    41   34   35 2
    42   34   36 1
    43   37   41 2
    44   38   42 2
    45   39   44 2
    46   40   43 1
    47   41   42 1
    48   43   45 2
    49   44   45 1
    50   13   46 1
    51   15   47 1
    52   15   48 1
    53   16   49 1
    54   16   50 1
    55   20   51 1
    56   30   52 1
    57   31   53 1
    58   33   54 1
    59   35   55 1
    60   36   56 1
    61   37   57 1
    62   38   58 1
    63   39   59 1
    64   40   60 1
    65   41   61 1
    66   42   62 1
    67   43   63 1
    68   44   64 1
    69   45   65 1
@<TRIPOS>PROPERTY_DATA
  Total_Score	| 13.9758
  Crash		| -2.9797
  Polar		| 8.3520
  FragIndex	| 1
  FragRMSD	| 0.559

