@<TRIPOS>MOLECULE
BindingDB_50142334
 73 78 0 0 0
SMALL
NO_CHARGES


@<TRIPOS>ATOM
1    N        -0.8329   70.6877   71.1436  N     
2    N        -1.1724   69.6351   70.4806  N     
3    C        -0.0878   71.8132   70.5343  C     
4    P         3.8154   74.6671   64.2873  P     
5    C         3.3964   75.2262   65.8060  C     
6    N        -1.9260   68.8333   71.0977  N     
7    C        -1.4263   70.5572   72.3598  C     
8    C        -2.1296   69.3544   72.3081  C     
9    C         2.7052   74.1940   66.6533  C     
10   C         1.0407   72.2102   71.6018  C     
11   C         0.6151   71.3095   69.1958  C     
12   O         2.7724   73.9364   63.6147  O     
13   C        -1.0831   72.9011   70.1005  C     
14   F         2.5844   76.3307   65.6635  F     
15   F         4.5475   75.7140   66.3812  F     
16   O         4.1359   75.8515   63.3513  O     
17   O         5.0908   73.7995   64.2939  O     
18   C         1.3258   73.9228   66.4868  C     
19   C         3.3997   73.4604   67.6444  C     
20   O         1.9140   77.5444   73.5076  O     
21   C         1.3506   72.2773   68.3191  C     
22   C         1.2573   73.6295   72.0514  C     
23   C         1.7158   76.2737   73.0327  C     
24   C         2.7383   72.5105   68.4493  C     
25   C         0.6717   72.9695   67.2876  C     
26   C         2.6245   78.4638   72.6489  C     
27   C        -1.4760   71.3121   73.5628  C     
28   C         2.5707   74.1624   72.1412  C     
29   C         0.1950   74.4417   72.5161  C     
30   C         0.4079   75.7540   72.9788  C     
31   C         2.7976   75.4517   72.6625  C     
32   C         1.7668   79.1640   71.6494  C     
33   C        -2.8641   68.8457   73.3944  C     
34   C        -2.4947   72.6582   69.9731  C     
35   C        -0.6433   74.1928   69.7150  C     
36   C         0.5343   78.6027   71.2276  C     
37   C         2.1987   80.3790   71.0547  C     
38   C        -2.1765   70.8098   74.6803  C     
39   C        -2.8708   69.5790   74.5990  C     
40   C        -1.5352   75.2117   69.3153  C     
41   C        -3.3927   73.6648   69.5486  C     
42   C         1.4169   81.0059   70.0673  C     
43   C        -0.2399   79.2318   70.2323  C     
44   C         0.2044   80.4315   69.6424  C     
45   C        -2.9151   74.9465   69.2442  C     
46   H         0.8954   71.6793   72.5461  H     
47   H         1.9987   71.8089   71.2504  H     
48   H         1.3186   70.5163   69.4591  H     
49   H        -0.1377   70.8270   68.5721  H     
50   H         0.7812   74.4277   65.7772  H     
51   H         4.4067   73.5909   67.7744  H     
52   H         3.2941   71.9876   69.1242  H     
53   H        -0.3274   72.8028   67.1320  H     
54   H         3.0832   79.1893   73.3284  H     
55   H         3.4477   77.9760   72.1225  H     
56   H        -0.9704   72.1879   73.6620  H     
57   H         3.3792   73.5986   71.8565  H     
58   H        -0.7693   74.1208   72.4684  H     
59   H        -0.3946   76.3331   73.2626  H     
60   H         3.7576   75.7981   72.7603  H     
61   H        -3.3706   67.9609   73.3162  H     
62   H        -2.9027   71.7358   70.1582  H     
63   H         0.3447   74.4559   69.7885  H     
64   H         0.1955   77.7162   71.6242  H     
65   H         3.0912   80.8042   71.3298  H     
66   H        -2.1647   71.3242   75.5721  H     
67   H        -3.3517   69.2046   75.4197  H     
68   H        -1.1816   76.1444   69.0940  H     
69   H        -4.3951   73.4480   69.4844  H     
70   H         1.7367   81.8819   69.6451  H     
71   H        -1.1243   78.8130   69.9272  H     
72   H        -0.3648   80.8930   68.9206  H     
73   H        -3.5697   75.6785   68.9435  H     
@<TRIPOS>BOND
     1    1    2 1
     2    1    3 1
     3    1    7 1
     4    2    6 2
     5    3   10 1
     6    3   11 1
     7    3   13 1
     8    4    5 1
     9    4   12 2
    10    4   16 1
    11    4   17 1
    12    5    9 1
    13    5   14 1
    14    5   15 1
    15    6    8 1
    16    7    8 2
    17    7   27 1
    18    8   33 1
    19    9   18 1
    20    9   19 2
    21   10   22 1
    22   11   21 1
    23   13   34 2
    24   13   35 1
    25   18   25 2
    26   19   24 1
    27   20   23 1
    28   20   26 1
    29   21   24 2
    30   21   25 1
    31   22   28 1
    32   22   29 2
    33   23   30 2
    34   23   31 1
    35   26   32 1
    36   27   38 2
    37   28   31 2
    38   29   30 1
    39   32   36 2
    40   32   37 1
    41   33   39 2
    42   34   41 1
    43   35   40 2
    44   36   43 1
    45   37   42 2
    46   38   39 1
    47   40   45 1
    48   41   45 2
    49   42   44 1
    50   43   44 2
    51   10   46 1
    52   10   47 1
    53   11   48 1
    54   11   49 1
    55   18   50 1
    56   19   51 1
    57   24   52 1
    58   25   53 1
    59   26   54 1
    60   26   55 1
    61   27   56 1
    62   28   57 1
    63   29   58 1
    64   30   59 1
    65   31   60 1
    66   33   61 1
    67   34   62 1
    68   35   63 1
    69   36   64 1
    70   37   65 1
    71   38   66 1
    72   39   67 1
    73   40   68 1
    74   41   69 1
    75   42   70 1
    76   43   71 1
    77   44   72 1
    78   45   73 1
@<TRIPOS>PROPERTY_DATA
  Total_Score	| 11.5526
  Crash		| -2.2728
  Polar		| 6.5803
  FragIndex	| 1
  FragRMSD	| 1.433

