@<TRIPOS>MOLECULE
BindingDB_13599
 72 77 0 0 0
SMALL
NO_CHARGES


@<TRIPOS>ATOM
1    C         3.5224   72.4477   73.0449  C     
2    C         2.8164   73.5922   72.6439  C     
3    C         1.6928   73.4721   71.8027  C     
4    C         1.2433   72.2058   71.3293  C     
5    C         1.9974   71.0704   71.7396  C     
6    C         3.1156   71.1829   72.5878  C     
7    C        -0.8729   73.3095   70.2375  C     
8    C        -2.1467   73.2070   69.4446  C     
9    C        -2.2968   73.8624   68.1991  C     
10   C        -3.5017   73.7942   67.4702  C     
11   C        -4.6287   73.1106   67.9879  C     
12   C        -4.4965   72.4875   69.2518  C     
13   C        -3.2844   72.5433   69.9666  C     
14   C        -5.8685   73.0722   67.2699  C     
15   C        -6.6332   71.8823   67.2381  C     
16   C        -7.8564   71.8228   66.5501  C     
17   C        -8.3472   72.9586   65.8823  C     
18   C        -7.6173   74.1723   65.8999  C     
19   C        -6.3737   74.2085   66.5858  C     
20   C         0.0349   72.0194   70.4163  C     
21   C         0.5712   71.5658   68.9918  C     
22   C         1.3482   72.5446   68.1696  C     
23   C         2.7032   72.8456   68.4451  C     
24   C         3.4116   73.7740   67.6582  C     
25   C         2.7968   74.4291   66.5592  C     
26   C         1.4537   74.0934   66.2674  C     
27   C         0.7579   73.1515   67.0353  C     
28   C         3.5141   75.4388   65.7209  C     
29   F         2.7227   76.5583   65.5796  F     
30   F         4.6816   75.8891   66.3060  F     
31   P         3.9100   74.8482   64.2092  P     
32   O         4.2314   75.9348   63.3198  O     
33   O         5.1536   73.9351   64.2345  O     
34   O         2.7712   74.0820   63.5185  O     
35   N        -0.8164   70.9836   71.0133  N     
36   N        -1.2140   69.9305   70.3947  N     
37   N        -2.0031   69.2091   71.0615  N     
38   C        -2.1606   69.7906   72.2515  C     
39   C        -1.3777   70.9386   72.2461  C     
40   C        -2.1174   71.4175   74.5125  C     
41   C        -1.3343   71.7616   73.3915  C     
42   C        -2.9561   69.4309   73.3509  C     
43   C        -2.9323   70.2606   74.4888  C     
44   P        -8.1897   75.4714   65.1483  P     
45   O        -7.7465   75.4852   63.7765  O     
46   O        -9.7306   75.5075   65.1446  O     
47   O        -7.7234   76.7761   65.8308  O     
48   H         4.3329   72.5306   73.6664  H     
49   H         3.1210   74.5128   72.9678  H     
50   H         1.2214   74.3349   71.5345  H     
51   H         1.7281   70.1356   71.4264  H     
52   H         3.6276   70.3462   72.8774  H     
53   H        -0.2668   74.0977   69.7899  H     
54   H        -1.1469   73.6864   71.2244  H     
55   H        -1.5378   74.4190   67.8163  H     
56   H        -3.5510   74.2618   66.5590  H     
57   H        -5.2917   72.0098   69.6858  H     
58   H        -3.2568   72.1242   70.8988  H     
59   H        -6.3055   71.0400   67.7119  H     
60   H        -8.3901   70.9471   66.5262  H     
61   H        -9.2414   72.8779   65.3836  H     
62   H        -5.8339   75.0812   66.6039  H     
63   H         1.1931   70.6714   69.1016  H     
64   H        -0.2972   71.2430   68.4114  H     
65   H         3.1952   72.3733   69.2066  H     
66   H         4.3929   73.9535   67.8849  H     
67   H         0.9709   74.5278   65.4769  H     
68   H        -0.1948   72.9016   66.7534  H     
69   H        -2.1013   72.0070   75.3466  H     
70   H        -0.7520   72.5984   73.4138  H     
71   H        -3.5434   68.5963   73.3182  H     
72   H        -3.5166   70.0313   75.2969  H     
@<TRIPOS>BOND
     1    1    2 2
     2    1    6 1
     3    2    3 1
     4    3    4 2
     5    4    5 1
     6    4   20 1
     7    5    6 2
     8    7    8 1
     9    7   20 1
    10    8    9 1
    11    8   13 2
    12    9   10 2
    13   10   11 1
    14   11   12 2
    15   11   14 1
    16   12   13 1
    17   14   15 2
    18   14   19 1
    19   15   16 1
    20   16   17 2
    21   17   18 1
    22   18   19 2
    23   18   44 1
    24   20   21 1
    25   20   35 1
    26   21   22 1
    27   22   23 1
    28   22   27 2
    29   23   24 2
    30   24   25 1
    31   25   26 2
    32   25   28 1
    33   26   27 1
    34   28   29 1
    35   28   30 1
    36   28   31 1
    37   31   32 2
    38   31   33 1
    39   31   34 1
    40   35   36 1
    41   35   39 1
    42   36   37 2
    43   37   38 1
    44   38   39 2
    45   38   42 1
    46   39   41 1
    47   40   41 2
    48   40   43 1
    49   42   43 2
    50   44   45 2
    51   44   46 1
    52   44   47 1
    53    1   48 1
    54    2   49 1
    55    3   50 1
    56    5   51 1
    57    6   52 1
    58    7   53 1
    59    7   54 1
    60    9   55 1
    61   10   56 1
    62   12   57 1
    63   13   58 1
    64   15   59 1
    65   16   60 1
    66   17   61 1
    67   19   62 1
    68   21   63 1
    69   21   64 1
    70   23   65 1
    71   24   66 1
    72   26   67 1
    73   27   68 1
    74   40   69 1
    75   41   70 1
    76   42   71 1
    77   43   72 1
@<TRIPOS>PROPERTY_DATA
  Total_Score	| 14.1329
  Crash		| -1.4572
  Polar		| 8.6748
  FragIndex	| 1
  FragRMSD	| 0.649

