@<TRIPOS>MOLECULE
BindingDB_34010
 42 44 0 0 0
SMALL
NO_CHARGES


@<TRIPOS>ATOM
1    C        15.7994    7.6109    3.7533  C     
2    C        14.8826    8.4244    3.0587  C     
3    C        14.3615    7.9927    1.8289  C     
4    C        14.7694    6.7619    1.2827  C     
5    C        15.6924    5.9344    1.9646  C     
6    C        16.2009    6.3776    3.2096  C     
7    C        16.1252    4.6250    1.3957  C     
8    C        15.3729    3.4160    2.0309  C     
9    C        15.7931    2.0623    1.3893  C     
10   O        17.2000    1.7725    1.5601  O     
11   P        17.5873    0.7458    2.6658  P     
12   O        16.9922   -0.5423    2.4267  O     
13   O        19.1116    0.5531    2.6796  O     
14   O        17.2152    1.2109    4.0804  O     
15   N        13.9643    3.5904    1.8151  N     
16   C        13.1007    4.2314    2.5941  C     
17   O        13.4423    4.6821    3.6809  O     
18   C        11.8377    4.5149    2.1101  C     
19   C        10.9083    5.4457    2.6075  C     
20   S        11.1307    3.8236    0.6954  S     
21   C         9.6757    4.7302    0.7313  C     
22   C         7.5664    6.4908    1.1917  C     
23   C         7.5290    5.6251    0.0770  C     
24   C         8.5884    4.7290   -0.1600  C     
25   C         9.7298    5.5790    1.8448  C     
26   C         8.6655    6.4695    2.0800  C     
27   H        16.1828    7.9220    4.6485  H     
28   H        14.5881    9.3150    3.4615  H     
29   H        13.6820    8.5773    1.3268  H     
30   H        14.3616    6.4567    0.3929  H     
31   H        16.8569    5.7951    3.7365  H     
32   H        15.9549    4.6204    0.3132  H     
33   H        17.2041    4.5225    1.5453  H     
34   H        15.6085    3.3758    3.0978  H     
35   H        15.1318    1.2667    1.7537  H     
36   H        15.6254    2.1174    0.3104  H     
37   H        13.6424    3.3330    0.9360  H     
38   H        11.0867    6.0215    3.4365  H     
39   H         6.7928    7.1417    1.3562  H     
40   H         6.7380    5.6583   -0.5681  H     
41   H         8.5820    4.1103   -0.9704  H     
42   H         8.6812    7.0974    2.8861  H     
@<TRIPOS>BOND
     1    1    2 2
     2    1    6 1
     3    2    3 1
     4    3    4 2
     5    4    5 1
     6    5    6 2
     7    5    7 1
     8    7    8 1
     9    8    9 1
    10    8   15 1
    11    9   10 1
    12   10   11 1
    13   11   12 2
    14   11   13 1
    15   11   14 1
    16   15   16 am
    17   16   17 2
    18   16   18 1
    19   18   19 2
    20   18   20 1
    21   19   25 1
    22   20   21 1
    23   21   24 1
    24   21   25 2
    25   22   23 1
    26   22   26 2
    27   23   24 2
    28   25   26 1
    29    1   27 1
    30    2   28 1
    31    3   29 1
    32    4   30 1
    33    6   31 1
    34    7   32 1
    35    7   33 1
    36    8   34 1
    37    9   35 1
    38    9   36 1
    39   15   37 1
    40   19   38 1
    41   22   39 1
    42   23   40 1
    43   24   41 1
    44   26   42 1
@<TRIPOS>PROPERTY_DATA
  Total_Score	| 7.2130
  Crash		| -1.1185
  Polar		| 3.9471
  FragIndex	| 1
  FragRMSD	| 1.221

