@<TRIPOS>MOLECULE
BindingDB_34011
 45 47 0 0 0
SMALL
NO_CHARGES


@<TRIPOS>ATOM
1    C        14.3276    7.8908    1.7667  C     
2    C        14.8797    8.3317    2.9833  C     
3    C        15.8249    7.5388    3.6536  C     
4    C        16.2158    6.3006    3.1101  C     
5    C        15.6695    5.8393    1.8908  C     
6    C        14.7159    6.6498    1.2287  C     
7    C        16.0833    4.5265    1.3144  C     
8    C        15.3085    3.2961    1.8840  C     
9    C        15.9037    1.9659    1.3108  C     
10   O        17.3131    1.8131    1.6008  O     
11   P        17.7039    0.7519    2.6727  P     
12   O        17.0489   -0.5025    2.4044  O     
13   O        19.2339    0.5405    2.6726  O     
14   O        17.3096    1.1864    4.0978  O     
15   N        13.8925    3.5485    1.7164  N     
16   C        12.9717    2.9588    0.9666  C     
17   O        13.2722    1.9493    0.3504  O     
18   C        11.6892    3.5042    0.7942  C     
19   C         9.5941    3.6307   -0.5129  C     
20   C        10.8610    3.0698   -0.2764  C     
21   C        11.1663    4.5047    1.6556  C     
22   C         9.8940    5.0780    1.4375  C     
23   C         9.1017    4.6403    0.3366  C     
24   C         7.4265    6.2288    0.9314  C     
25   C         7.8600    5.2471    0.1184  C     
26   C         9.3825    6.0845    2.2621  C     
27   C         8.1840    6.6434    1.9917  C     
28   F        13.4463    8.6195    1.1400  F     
29   H        14.5864    9.2242    3.3883  H     
30   H        16.2239    7.8623    4.5383  H     
31   H        16.9029    5.7402    3.6162  H     
32   H        14.2883    6.3278    0.3594  H     
33   H        15.9488    4.5355    0.2275  H     
34   H        17.1546    4.3983    1.4870  H     
35   H        15.4627    3.2619    2.9615  H     
36   H        15.3088    1.1044    1.6507  H     
37   H        15.8110    1.9867    0.2175  H     
38   H        13.5840    4.3416    2.1787  H     
39   H         9.0390    3.3016   -1.3128  H     
40   H        11.1847    2.3491   -0.9255  H     
41   H        11.7129    4.8294    2.4587  H     
42   H         6.5480    6.6614    0.7574  H     
43   H         7.2896    4.9565   -0.6405  H     
44   H         9.9033    6.4009    3.0498  H     
45   H         7.8457    7.3695    2.5760  H     
@<TRIPOS>BOND
     1    1    2 2
     2    1    6 1
     3    1   28 1
     4    2    3 1
     5    3    4 2
     6    4    5 1
     7    5    6 2
     8    5    7 1
     9    7    8 1
    10    8    9 1
    11    8   15 1
    12    9   10 1
    13   10   11 1
    14   11   12 2
    15   11   13 1
    16   11   14 1
    17   15   16 am
    18   16   17 2
    19   16   18 1
    20   18   20 2
    21   18   21 1
    22   19   20 1
    23   19   23 2
    24   21   22 2
    25   22   23 1
    26   22   26 1
    27   23   25 1
    28   24   25 2
    29   24   27 1
    30   26   27 2
    31    2   29 1
    32    3   30 1
    33    4   31 1
    34    6   32 1
    35    7   33 1
    36    7   34 1
    37    8   35 1
    38    9   36 1
    39    9   37 1
    40   15   38 1
    41   19   39 1
    42   20   40 1
    43   21   41 1
    44   24   42 1
    45   25   43 1
    46   26   44 1
    47   27   45 1
@<TRIPOS>PROPERTY_DATA
  Total_Score	| 7.1003
  Crash		| -1.4156
  Polar		| 4.0016
  FragIndex	| 1
  FragRMSD	| 1.049

