@<TRIPOS>MOLECULE
BindingDB_34013
 48 50 0 0 0
SMALL
NO_CHARGES


@<TRIPOS>ATOM
1    C        15.6000    7.5793    3.3440  C     
2    C        14.6760    8.2933    2.5514  C     
3    C        14.1493    7.7257    1.3745  C     
4    C        14.5623    6.4433    0.9721  C     
5    C        15.5071    5.7144    1.7351  C     
6    C        15.9991    6.2864    2.9313  C     
7    C        15.9917    4.3748    1.2908  C     
8    C        15.2339    3.1618    1.9318  C     
9    C        15.7549    1.8292    1.3064  C     
10   O        17.1777    1.6659    1.5435  O     
11   P        17.6226    0.6948    2.6906  P     
12   O        17.0263   -0.6015    2.4767  O     
13   O        19.1506    0.5135    2.7015  O     
14   O        17.2402    1.1669    4.1038  O     
15   N        13.8205    3.4355    1.7891  N     
16   C        12.8953    2.9259    0.9663  C     
17   O        13.1859    1.9482    0.2806  O     
18   C        11.6302    3.5235    0.8371  C     
19   C         9.5398    3.8090   -0.4689  C     
20   C        10.7910    3.1941   -0.2659  C     
21   C        11.1392    4.5042    1.7398  C     
22   C         9.8791    5.1344    1.5631  C     
23   C         9.0795    4.7849    0.4354  C     
24   C         7.4136    6.3443    1.1603  C     
25   C         7.8402    5.4295    0.2674  C     
26   C         9.3785    6.0901    2.4603  C     
27   C         8.1710    6.6702    2.2521  C     
28   C        16.1348    8.2071    4.5682  C     
29   H        14.3742    9.2323    2.8252  H     
30   H        13.4740    8.2514    0.8134  H     
31   H        14.1746    6.0491    0.1091  H     
32   H        16.6758    5.7637    3.4929  H     
33   H        15.9209    4.2969    0.1951  H     
34   H        17.0561    4.3167    1.5467  H     
35   H        15.4535    3.1417    3.0028  H     
36   H        15.2033    0.9583    1.6776  H     
37   H        15.5934    1.8703    0.2194  H     
38   H        13.4897    4.1289    2.3799  H     
39   H         8.9684    3.5485   -1.2766  H     
40   H        11.0841    2.5039   -0.9537  H     
41   H        11.6911    4.7791    2.5604  H     
42   H         6.5210    6.7769    1.0416  H     
43   H         7.2635    5.2105   -0.5137  H     
44   H         9.8986    6.3470    3.2710  H     
45   H         7.8292    7.3442    2.9023  H     
46   H        16.6533    9.1286    4.3051  H     
47   H        16.8409    7.5565    5.0911  H     
48   H        15.3143    8.4433    5.2465  H     
@<TRIPOS>BOND
     1    1    2 2
     2    1    6 1
     3    1   28 1
     4    2    3 1
     5    3    4 2
     6    4    5 1
     7    5    6 2
     8    5    7 1
     9    7    8 1
    10    8    9 1
    11    8   15 1
    12    9   10 1
    13   10   11 1
    14   11   12 2
    15   11   13 1
    16   11   14 1
    17   15   16 am
    18   16   17 2
    19   16   18 1
    20   18   20 2
    21   18   21 1
    22   19   20 1
    23   19   23 2
    24   21   22 2
    25   22   23 1
    26   22   26 1
    27   23   25 1
    28   24   25 2
    29   24   27 1
    30   26   27 2
    31    2   29 1
    32    3   30 1
    33    4   31 1
    34    6   32 1
    35    7   33 1
    36    7   34 1
    37    8   35 1
    38    9   36 1
    39    9   37 1
    40   15   38 1
    41   19   39 1
    42   20   40 1
    43   21   41 1
    44   24   42 1
    45   25   43 1
    46   26   44 1
    47   27   45 1
    48   28   46 1
    49   28   47 1
    50   28   48 1
@<TRIPOS>PROPERTY_DATA
  Total_Score	| 7.7482
  Crash		| -1.5854
  Polar		| 3.9057
  FragIndex	| 1
  FragRMSD	| 1.039

