@<TRIPOS>MOLECULE
BindingDB_34009
 45 47 0 0 0
SMALL
NO_CHARGES


@<TRIPOS>ATOM
1    C        15.6167    7.4279    4.2439  C     
2    C        14.8792    8.3981    3.5366  C     
3    C        14.5489    8.1758    2.1896  C     
4    C        14.9615    6.9961    1.5498  C     
5    C        15.7360    6.0278    2.2334  C     
6    C        16.0305    6.2495    3.5976  C     
7    C        16.2482    4.8227    1.5236  C     
8    C        15.4739    3.5133    1.8673  C     
9    C        16.0509    2.2840    1.1059  C     
10   O        17.4121    1.9730    1.4733  O     
11   P        17.6399    0.8836    2.5756  P     
12   O        19.0464    0.5807    2.6736  O     
13   O        17.2257    1.2800    3.9971  O     
14   O        16.9574   -0.4529    2.2261  O     
15   N        14.1092    3.6803    1.4575  N     
16   C        13.0208    3.7403    2.2247  C     
17   O        13.0965    3.6190    3.4497  O     
18   C        11.7927    4.0073    1.6344  C     
19   C        10.1763    3.6200   -0.1827  C     
20   C        11.4014    3.3396    0.4384  C     
21   C        10.9129    4.9771    2.1785  C     
22   C         9.6956    5.2920    1.5428  C     
23   C         9.3211    4.5989    0.3555  C     
24   C         7.2964    5.8516    0.2854  C     
25   C         8.0912    4.9023   -0.2483  C     
26   C         8.8277    6.2701    2.0404  C     
27   C         7.6654    6.5366    1.4115  C     
28   H        15.8498    7.5843    5.2268  H     
29   H        14.5802    9.2558    4.0051  H     
30   H        14.0040    8.8741    1.6756  H     
31   H        14.7002    6.8475    0.5734  H     
32   H        16.5711    5.5599    4.1296  H     
33   H        16.1905    4.9883    0.4401  H     
34   H        17.3031    4.6989    1.7536  H     
35   H        15.5525    3.3345    2.9442  H     
36   H        15.3618    1.4361    1.2095  H     
37   H        16.0627    2.5301    0.0383  H     
38   H        13.9723    3.8496    0.5044  H     
39   H         9.9195    3.1125   -1.0325  H     
40   H        11.9960    2.6157    0.0326  H     
41   H        11.1927    5.4826    3.0234  H     
42   H         6.4158    6.0455   -0.1465  H     
43   H         7.7971    4.4187   -1.0673  H     
44   H         9.0643    6.7847    2.8568  H     
45   H         7.0638    7.2466    1.7606  H     
@<TRIPOS>BOND
     1    1    2 2
     2    1    6 1
     3    2    3 1
     4    3    4 2
     5    4    5 1
     6    5    6 2
     7    5    7 1
     8    7    8 1
     9    8    9 1
    10    8   15 1
    11    9   10 1
    12   10   11 1
    13   11   12 2
    14   11   13 1
    15   11   14 1
    16   15   16 am
    17   16   17 2
    18   16   18 1
    19   18   20 2
    20   18   21 1
    21   19   20 1
    22   19   23 2
    23   21   22 2
    24   22   23 1
    25   22   26 1
    26   23   25 1
    27   24   25 2
    28   24   27 1
    29   26   27 2
    30    1   28 1
    31    2   29 1
    32    3   30 1
    33    4   31 1
    34    6   32 1
    35    7   33 1
    36    7   34 1
    37    8   35 1
    38    9   36 1
    39    9   37 1
    40   15   38 1
    41   19   39 1
    42   20   40 1
    43   21   41 1
    44   24   42 1
    45   25   43 1
    46   26   44 1
    47   27   45 1
@<TRIPOS>PROPERTY_DATA
  Total_Score	| 7.2250
  Crash		| -1.4131
  Polar		| 4.0167
  FragIndex	| 1
  FragRMSD	| 0.979

