@<TRIPOS>MOLECULE
BindingDB_34015
 45 47 0 0 0
SMALL
NO_CHARGES


@<TRIPOS>ATOM
1    C        15.5799    7.8230    3.7411  C     
2    C        14.5892    8.4932    2.9985  C     
3    C        14.1497    7.9662    1.7738  C     
4    C        14.6988    6.7657    1.2935  C     
5    C        15.6867    6.0663    2.0278  C     
6    C        16.1250    6.6122    3.2621  C     
7    C        16.2365    4.7953    1.4693  C     
8    C        15.4140    3.5249    1.8547  C     
9    C        15.9596    2.2427    1.1627  C     
10   O        17.3288    1.9145    1.4983  O     
11   P        17.5864    0.8284    2.5867  P     
12   O        16.9392   -0.4326    2.3037  O     
13   O        19.0958    0.5438    2.6714  O     
14   O        17.2094    1.2945    3.9996  O     
15   N        14.0524    3.6873    1.4259  N     
16   C        12.9703    3.7978    2.1860  C     
17   O        13.0591    3.7622    3.4081  O     
18   F        15.9755    8.3339    4.8765  F     
19   F        17.0307    6.0045    3.9788  F     
20   C        11.7345    4.0631    1.5960  C     
21   C        10.0753    3.6722   -0.1800  C     
22   C        11.3170    3.3923    0.4189  C     
23   C        10.8689    5.0342    2.1522  C     
24   C         9.6254    5.3373    1.5569  C     
25   C         9.2202    4.6438    0.3794  C     
26   C         7.1912    5.8972    0.3792  C     
27   C         7.9764    4.9540   -0.1828  C     
28   C         8.7718    6.3114    2.0899  C     
29   C         7.5872    6.5734    1.4988  C     
30   H        14.1778    9.3594    3.3562  H     
31   H        13.4280    8.4539    1.2351  H     
32   H        14.3603    6.4012    0.3984  H     
33   H        16.2853    4.8790    0.3817  H     
34   H        17.2655    4.6601    1.8072  H     
35   H        15.4813    3.3881    2.9408  H     
36   H        15.2627    1.4145    1.3437  H     
37   H        15.9438    2.4193    0.0850  H     
38   H        13.9227    3.7913    0.4680  H     
39   H         9.7986    3.1566   -1.0209  H     
40   H        11.9048    2.6704   -0.0050  H     
41   H        11.1542    5.5529    2.9908  H     
42   H         6.3036    6.0963   -0.0194  H     
43   H         7.6559    4.4753   -0.9924  H     
44   H         9.0328    6.8161    2.9054  H     
45   H         6.9945    7.2714    1.8866  H     
@<TRIPOS>BOND
     1    1    2 2
     2    1    6 1
     3    1   18 1
     4    2    3 1
     5    3    4 2
     6    4    5 1
     7    5    6 2
     8    5    7 1
     9    6   19 1
    10    7    8 1
    11    8    9 1
    12    8   15 1
    13    9   10 1
    14   10   11 1
    15   11   12 2
    16   11   13 1
    17   11   14 1
    18   15   16 am
    19   16   17 2
    20   16   20 1
    21   20   22 2
    22   20   23 1
    23   21   22 1
    24   21   25 2
    25   23   24 2
    26   24   25 1
    27   24   28 1
    28   25   27 1
    29   26   27 2
    30   26   29 1
    31   28   29 2
    32    2   30 1
    33    3   31 1
    34    4   32 1
    35    7   33 1
    36    7   34 1
    37    8   35 1
    38    9   36 1
    39    9   37 1
    40   15   38 1
    41   21   39 1
    42   22   40 1
    43   23   41 1
    44   26   42 1
    45   27   43 1
    46   28   44 1
    47   29   45 1
@<TRIPOS>PROPERTY_DATA
  Total_Score	| 6.9682
  Crash		| -1.7078
  Polar		| 4.0608
  FragIndex	| 1
  FragRMSD	| 0.635

