@<TRIPOS>MOLECULE
BindingDB_34016
 42 44 0 0 0
SMALL
NO_CHARGES


@<TRIPOS>ATOM
1    C        15.6372    7.8103    3.6369  C     
2    C        14.7253    8.5657    2.8824  C     
3    C        14.2282    8.0642    1.6680  C     
4    C        14.6598    6.8128    1.1971  C     
5    C        15.6312    6.0582    1.9081  C     
6    C        16.0727    6.5527    3.1698  C     
7    C        16.0910    4.7334    1.3809  C     
8    C        15.3973    3.4604    1.9955  C     
9    C        15.9590    2.1732    1.2959  C     
10   O        17.3583    1.9040    1.6091  O     
11   P        17.6412    0.8220    2.7107  P     
12   O        17.3103    1.2007    4.0652  O     
13   O        16.9449   -0.5360    2.4314  O     
14   O        19.1601    0.5071    2.7566  O     
15   N        13.9814    3.7035    2.0458  N     
16   C        12.9995    3.2469    1.2790  C     
17   O        13.1381    2.3553    0.4554  O     
18   C        11.7627    3.8661    1.3990  C     
19   C        10.6996    3.7662    0.4749  C     
20   S        11.2805    5.0316    2.5711  S     
21   C         9.7511    5.4085    1.8720  C     
22   C         7.5082    5.7400    0.2289  C     
23   C         7.6372    6.4895    1.4219  C     
24   C         8.7681    6.3306    2.2586  C     
25   C         9.6196    4.6351    0.7063  C     
26   C         8.4953    4.7942   -0.1336  C     
27   F        16.0751    8.2753    4.7762  F     
28   F        16.9214    5.8654    3.8951  F     
29   H        14.4280    9.4733    3.2222  H     
30   H        13.5533    8.6100    1.1372  H     
31   H        14.2700    6.4592    0.3189  H     
32   H        15.9552    4.7386    0.2900  H     
33   H        17.1806    4.6505    1.5548  H     
34   H        15.6864    3.4315    3.0530  H     
35   H        15.3278    1.3100    1.5044  H     
36   H        15.9275    2.3226    0.2093  H     
37   H        13.7083    4.3479    2.7061  H     
38   H        10.7290    3.1285   -0.3255  H     
39   H         6.7037    5.8677   -0.3723  H     
40   H         6.9013    7.1447    1.6907  H     
41   H         8.8732    6.8939    3.1028  H     
42   H         8.4101    4.2436   -0.9911  H     
@<TRIPOS>BOND
     1    1    2 2
     2    1    6 1
     3    1   27 1
     4    2    3 1
     5    3    4 2
     6    4    5 1
     7    5    6 2
     8    5    7 1
     9    6   28 1
    10    7    8 1
    11    8    9 1
    12    8   15 1
    13    9   10 1
    14   10   11 1
    15   11   12 2
    16   11   13 1
    17   11   14 1
    18   15   16 am
    19   16   17 2
    20   16   18 1
    21   18   19 2
    22   18   20 1
    23   19   25 1
    24   20   21 1
    25   21   24 1
    26   21   25 2
    27   22   23 1
    28   22   26 2
    29   23   24 2
    30   25   26 1
    31    2   29 1
    32    3   30 1
    33    4   31 1
    34    7   32 1
    35    7   33 1
    36    8   34 1
    37    9   35 1
    38    9   36 1
    39   15   37 1
    40   19   38 1
    41   22   39 1
    42   23   40 1
    43   24   41 1
    44   26   42 1
@<TRIPOS>PROPERTY_DATA
  Total_Score	| 7.5053
  Crash		| -1.3893
  Polar		| 4.1175
  FragIndex	| 1
  FragRMSD	| 1.168

