@<TRIPOS>MOLECULE
BindingDB_34008
 39 40 0 0 0
SMALL
NO_CHARGES


@<TRIPOS>ATOM
1    C        14.4517    8.0651    2.0209  C     
2    C        14.8977    8.4104    3.3094  C     
3    C        15.7835    7.5632    3.9963  C     
4    C        16.2259    6.3656    3.3954  C     
5    C        15.7632    5.9931    2.1117  C     
6    C        14.8755    6.8587    1.4329  C     
7    C        16.1601    4.6930    1.4983  C     
8    C        15.3581    3.4765    2.0507  C     
9    C        15.7667    2.1577    1.3270  C     
10   O        17.1629    1.8118    1.5077  O     
11   P        17.5033    0.7738    2.6283  P     
12   O        16.8621   -0.4961    2.4250  O     
13   O        19.0244    0.5254    2.6773  O     
14   O        17.1745    1.2821    4.0320  O     
15   N        13.9477    3.6774    1.8106  N     
16   C        13.0376    4.1599    2.6495  C     
17   O        13.3697    4.4383    3.7974  O     
18   C        11.7302    4.4437    2.2255  C     
19   C         9.0610    5.0179    1.4136  C     
20   C         9.6453    5.7405    2.4677  C     
21   C        10.9659    5.4529    2.8686  C     
22   C        11.1219    3.7342    1.1603  C     
23   C         9.7962    4.0165    0.7602  C     
24   H        13.8086    8.6810    1.5186  H     
25   H        14.5654    9.2730    3.7506  H     
26   H        16.1003    7.8098    4.9396  H     
27   H        16.8682    5.7617    3.9135  H     
28   H        14.5034    6.6075    0.5148  H     
29   H        16.0040    4.7407    0.4155  H     
30   H        17.2290    4.5405    1.6468  H     
31   H        15.5618    3.3554    3.1197  H     
32   H        15.0838    1.3479    1.6162  H     
33   H        15.6304    2.2999    0.2565  H     
34   H        13.6634    3.5368    0.8925  H     
35   H         8.0950    5.2152    1.1307  H     
36   H         9.1083    6.4709    2.9461  H     
37   H        11.3638    6.0059    3.6305  H     
38   H        11.6108    2.9786    0.6813  H     
39   H         9.3656    3.4825    0.0028  H     
@<TRIPOS>BOND
     1    1    2 2
     2    1    6 1
     3    2    3 1
     4    3    4 2
     5    4    5 1
     6    5    6 2
     7    5    7 1
     8    7    8 1
     9    8    9 1
    10    8   15 1
    11    9   10 1
    12   10   11 1
    13   11   12 2
    14   11   13 1
    15   11   14 1
    16   15   16 am
    17   16   17 2
    18   16   18 1
    19   18   21 2
    20   18   22 1
    21   19   20 2
    22   19   23 1
    23   20   21 1
    24   22   23 2
    25    1   24 1
    26    2   25 1
    27    3   26 1
    28    4   27 1
    29    6   28 1
    30    7   29 1
    31    7   30 1
    32    8   31 1
    33    9   32 1
    34    9   33 1
    35   15   34 1
    36   19   35 1
    37   20   36 1
    38   21   37 1
    39   22   38 1
    40   23   39 1
@<TRIPOS>PROPERTY_DATA
  Total_Score	| 5.7994
  Crash		| -1.2230
  Polar		| 3.9814
  FragIndex	| 1
  FragRMSD	| 0.538

