@<TRIPOS>MOLECULE
BindingDB_34012
 42 44 0 0 0
SMALL
NO_CHARGES


@<TRIPOS>ATOM
1    C        15.7373    7.7207    3.6762  C     
2    C        14.7654    8.4516    2.9644  C     
3    C        14.2549    7.9507    1.7532  C     
4    C        14.7157    6.7195    1.2537  C     
5    C        15.6922    5.9655    1.9581  C     
6    C        16.1982    6.4866    3.1737  C     
7    C        16.1369    4.6340    1.4587  C     
8    C        15.4080    3.4326    2.1415  C     
9    C        15.8586    2.0850    1.4881  C     
10   O        17.2671    1.8139    1.6405  O     
11   P        17.6859    0.7551    2.6997  P     
12   O        19.1188    0.6081    2.7141  O     
13   O        17.2719    1.1599    4.1210  O     
14   O        17.0629   -0.6206    2.3886  O     
15   N        13.9919    3.7237    2.1512  N     
16   C        13.0226    3.3836    1.3128  C     
17   O        13.1898    2.5541    0.4211  O     
18   C        11.8006    4.0288    1.3909  C     
19   C        10.7384    3.9018    0.4754  C     
20   S        11.3027    5.2145    2.5540  S     
21   C         9.7566    5.5331    1.8714  C     
22   C         7.4759    5.7499    0.2686  C     
23   C         7.6046    6.5446    1.4394  C     
24   C         8.7490    6.4256    2.2606  C     
25   C         9.6349    4.7296    0.7195  C     
26   C         8.4810    4.8295   -0.0856  C     
27   F        16.1977    8.1757    4.8110  F     
28   H        14.4148    9.3393    3.3344  H     
29   H        13.5404    8.4808    1.2429  H     
30   H        14.3099    6.3587    0.3886  H     
31   H        16.8916    5.9609    3.7092  H     
32   H        15.9875    4.5798    0.3671  H     
33   H        17.2175    4.5567    1.6314  H     
34   H        15.7150    3.3971    3.1909  H     
35   H        15.2221    1.2721    1.8576  H     
36   H        15.6832    2.1538    0.4108  H     
37   H        13.7199    4.3516    2.8444  H     
38   H        10.7789    3.2754   -0.3363  H     
39   H         6.6508    5.8523   -0.3314  H     
40   H         6.8704    7.2110    1.6773  H     
41   H         8.8521    6.9904    3.1068  H     
42   H         8.3781    4.2389   -0.9220  H     
@<TRIPOS>BOND
     1    1    2 2
     2    1    6 1
     3    1   27 1
     4    2    3 1
     5    3    4 2
     6    4    5 1
     7    5    6 2
     8    5    7 1
     9    7    8 1
    10    8    9 1
    11    8   15 1
    12    9   10 1
    13   10   11 1
    14   11   12 2
    15   11   13 1
    16   11   14 1
    17   15   16 am
    18   16   17 2
    19   16   18 1
    20   18   19 2
    21   18   20 1
    22   19   25 1
    23   20   21 1
    24   21   24 1
    25   21   25 2
    26   22   23 1
    27   22   26 2
    28   23   24 2
    29   25   26 1
    30    2   28 1
    31    3   29 1
    32    4   30 1
    33    6   31 1
    34    7   32 1
    35    7   33 1
    36    8   34 1
    37    9   35 1
    38    9   36 1
    39   15   37 1
    40   19   38 1
    41   22   39 1
    42   23   40 1
    43   24   41 1
    44   26   42 1
@<TRIPOS>PROPERTY_DATA
  Total_Score	| 6.9794
  Crash		| -1.3424
  Polar		| 3.8785
  FragIndex	| 1
  FragRMSD	| 1.152

