@<TRIPOS>MOLECULE
BindingDB_50330586
 57 59 0 0 0
SMALL
NO_CHARGES


@<TRIPOS>ATOM
1    C       -25.6560   22.8726  -20.2391  C     
2    C       -25.9254   21.6059  -19.6820  C     
3    N       -25.4192   21.4085  -18.4317  N     
4    C       -24.7003   22.2840  -17.6629  C     
5    C       -24.5048   23.5597  -18.2641  C     
6    N       -24.9781   23.7906  -19.5169  N     
7    N       -23.9878   24.6449  -17.6636  N     
8    N       -24.2483   21.8539  -16.4204  N     
9    C       -25.1112   21.0056  -15.5930  C     
10   C       -24.3767   20.0565  -14.5945  C     
11   C       -23.1764   20.6625  -13.8164  C     
12   C       -22.2778   21.4260  -14.8311  C     
13   C       -23.0136   22.3570  -15.8365  C     
14   C       -23.5651   21.3615  -12.5567  C     
15   O       -24.3468   20.7168  -11.6628  O     
16   O       -23.0699   22.5642  -12.1819  O     
17   C       -26.6156   20.5566  -20.3754  C     
18   C       -27.3445   20.7889  -21.5720  C     
19   C       -27.9186   19.7346  -22.3079  C     
20   C       -27.8315   18.4127  -21.8232  C     
21   C       -27.1459   18.1582  -20.6186  C     
22   C       -26.5652   19.2231  -19.8988  C     
23   O       -27.0666   16.8855  -20.1242  O     
24   C       -26.1328   16.0541  -20.8413  C     
25   O       -28.3074   17.3676  -22.5694  O     
26   C       -29.7147   17.1344  -22.4365  C     
27   O       -28.6000   19.9991  -23.4651  O     
28   C       -27.7466   20.3732  -24.5600  C     
29   C       -26.2767   21.8502  -14.9778  C     
30   C       -25.9500   22.7801  -13.7844  C     
31   H       -25.9398   23.1251  -21.1816  H     
32   H       -23.9817   25.4960  -18.1361  H     
33   H       -23.7360   24.6246  -16.7337  H     
34   H       -25.6200   20.2902  -16.2507  H     
35   H       -25.0961   19.6146  -13.9033  H     
36   H       -23.9728   19.2209  -15.1764  H     
37   H       -22.5722   19.8260  -13.4567  H     
38   H       -21.5178   21.9955  -14.2872  H     
39   H       -21.7387   20.6768  -15.4170  H     
40   H       -22.2979   22.5602  -16.6407  H     
41   H       -23.1928   23.3057  -15.3430  H     
42   H       -27.4731   21.7366  -21.9276  H     
43   H       -26.0811   18.9992  -19.0255  H     
44   H       -26.4363   15.9183  -21.8832  H     
45   H       -26.1110   15.0721  -20.3653  H     
46   H       -25.1266   16.4773  -20.8098  H     
47   H       -29.9884   16.9334  -21.3971  H     
48   H       -29.9722   16.2568  -23.0286  H     
49   H       -30.2914   17.9840  -22.8110  H     
50   H       -27.2238   21.3076  -24.3494  H     
51   H       -28.3679   20.5242  -25.4429  H     
52   H       -27.0151   19.5906  -24.7884  H     
53   H       -26.6858   22.4827  -15.7724  H     
54   H       -27.0857   21.1750  -14.6741  H     
55   H       -26.0995   22.2396  -12.8455  H     
56   H       -26.6003   23.6597  -13.7799  H     
57   H       -24.9077   23.1157  -13.8278  H     
@<TRIPOS>BOND
     1    1    2 2
     2    1    6 1
     3    2    3 1
     4    2   17 1
     5    3    4 2
     6    4    5 1
     7    4    8 1
     8    5    6 2
     9    5    7 1
    10    8    9 1
    11    8   13 1
    12    9   10 1
    13    9   29 1
    14   10   11 1
    15   11   12 1
    16   11   14 1
    17   12   13 1
    18   14   15 1
    19   14   16 2
    20   17   18 2
    21   17   22 1
    22   18   19 1
    23   19   20 2
    24   19   27 1
    25   20   21 1
    26   20   25 1
    27   21   22 2
    28   21   23 1
    29   23   24 1
    30   25   26 1
    31   27   28 1
    32   29   30 1
    33    1   31 1
    34    7   32 1
    35    7   33 1
    36    9   34 1
    37   10   35 1
    38   10   36 1
    39   11   37 1
    40   12   38 1
    41   12   39 1
    42   13   40 1
    43   13   41 1
    44   18   42 1
    45   22   43 1
    46   24   44 1
    47   24   45 1
    48   24   46 1
    49   26   47 1
    50   26   48 1
    51   26   49 1
    52   28   50 1
    53   28   51 1
    54   28   52 1
    55   29   53 1
    56   29   54 1
    57   30   55 1
    58   30   56 1
    59   30   57 1
@<TRIPOS>PROPERTY_DATA
  Total_Score	| 7.9337
  Crash		| -1.7008
  Polar		| 3.7361
  FragIndex	| 1
  FragRMSD	| 0.931

