@<TRIPOS>MOLECULE
BindingDB_50330591
 57 59 0 0 0
SMALL
NO_CHARGES


@<TRIPOS>ATOM
1    C       -26.9268   21.9296  -13.6343  C     
2    C       -25.5597   22.4026  -14.1788  C     
3    C       -24.5431   21.2385  -14.4878  C     
4    C       -24.6676   20.7744  -15.9904  C     
5    N       -24.1106   21.7777  -16.8922  N     
6    C       -24.7793   22.1977  -18.0177  C     
7    N       -25.4901   21.2870  -18.7455  N     
8    C       -26.1020   21.5062  -19.9514  C     
9    C       -26.7686   20.4436  -20.6446  C     
10   C       -26.6578   19.1078  -20.1943  C     
11   C       -27.2478   18.0341  -20.8889  C     
12   O       -27.1558   16.7767  -20.3654  O     
13   C       -26.0682   16.0134  -20.9116  C     
14   C       -27.9859   18.2646  -22.0646  C     
15   O       -28.5787   17.2088  -22.7046  O     
16   C       -27.9785   16.8600  -23.9686  C     
17   C       -28.1749   19.5968  -22.4970  C     
18   O       -28.9138   19.8830  -23.6022  O     
19   C       -30.3165   19.6072  -23.4327  C     
20   C       -27.5618   20.6582  -21.8024  C     
21   C       -25.9610   22.8186  -20.4687  C     
22   N       -25.2993   23.7516  -19.7576  N     
23   C       -24.7230   23.5090  -18.5560  C     
24   N       -24.2065   24.5855  -17.9418  N     
25   C       -22.7204   22.1436  -16.6539  C     
26   C       -22.4771   22.6122  -15.1967  C     
27   C       -23.0271   21.5520  -14.1934  C     
28   C       -22.6846   21.8905  -12.7846  C     
29   O       -21.4684   21.5573  -12.3008  O     
30   O       -23.3758   22.8200  -12.0749  O     
31   H       -27.3445   21.1414  -14.2755  H     
32   H       -27.6217   22.7725  -13.6073  H     
33   H       -26.8060   21.5394  -12.6183  H     
34   H       -25.7352   22.9993  -15.0884  H     
35   H       -25.1638   23.0995  -13.4338  H     
36   H       -24.7998   20.3802  -13.8561  H     
37   H       -24.1332   19.8316  -16.1213  H     
38   H       -25.7220   20.5763  -16.1982  H     
39   H       -26.1223   18.8885  -19.3522  H     
40   H       -26.2384   15.7599  -21.9568  H     
41   H       -25.9988   15.0768  -20.3581  H     
42   H       -25.1144   16.5416  -20.8189  H     
43   H       -28.1542   17.6249  -24.7254  H     
44   H       -28.4288   15.9336  -24.3221  H     
45   H       -26.9040   16.7021  -23.8793  H     
46   H       -30.5151   18.5369  -23.3361  H     
47   H       -30.8452   19.9623  -24.3170  H     
48   H       -30.7214   20.1301  -22.5636  H     
49   H       -27.7356   21.5941  -22.1615  H     
50   H       -26.3225   23.1005  -21.3789  H     
51   H       -24.2457   25.4476  -18.3859  H     
52   H       -23.8375   24.5240  -17.0440  H     
53   H       -22.1144   21.2500  -16.8290  H     
54   H       -22.3403   22.8915  -17.3518  H     
55   H       -21.4004   22.7585  -15.0399  H     
56   H       -22.9826   23.5662  -15.0388  H     
57   H       -22.4715   20.6279  -14.4040  H     
@<TRIPOS>BOND
     1    1    2 1
     2    3    2 1
     3    3    4 1
     4    3   27 1
     5    4    5 1
     6    5    6 1
     7    5   25 1
     8    6    7 2
     9    6   23 1
    10    7    8 1
    11    8    9 1
    12    8   21 2
    13    9   10 1
    14    9   20 2
    15   10   11 2
    16   11   12 1
    17   11   14 1
    18   12   13 1
    19   14   15 1
    20   14   17 2
    21   15   16 1
    22   17   18 1
    23   17   20 1
    24   18   19 1
    25   21   22 1
    26   22   23 2
    27   23   24 1
    28   25   26 1
    29   26   27 1
    30   27   28 1
    31   28   29 2
    32   28   30 1
    33    1   31 1
    34    1   32 1
    35    1   33 1
    36    2   34 1
    37    2   35 1
    38    3   36 1
    39    4   37 1
    40    4   38 1
    41   10   39 1
    42   13   40 1
    43   13   41 1
    44   13   42 1
    45   16   43 1
    46   16   44 1
    47   16   45 1
    48   19   46 1
    49   19   47 1
    50   19   48 1
    51   20   49 1
    52   21   50 1
    53   24   51 1
    54   24   52 1
    55   25   53 1
    56   25   54 1
    57   26   55 1
    58   26   56 1
    59   27   57 1
@<TRIPOS>PROPERTY_DATA
  Total_Score	| 9.2675
  Crash		| -1.5012
  Polar		| 4.8085
  FragIndex	| 1
  FragRMSD	| 0.806

