@<TRIPOS>MOLECULE
BindingDB_50330592
 54 56 0 0 0
SMALL
NO_CHARGES


@<TRIPOS>ATOM
1    C       -26.0153   22.8326  -20.4825  C     
2    C       -26.1634   21.5421  -19.9245  C     
3    N       -25.5277   21.3671  -18.7260  N     
4    C       -24.7754   22.2820  -18.0365  C     
5    C       -24.6788   23.5642  -18.6468  C     
6    N       -25.2978   23.7685  -19.8331  N     
7    N       -24.1266   24.6669  -18.1163  N     
8    N       -24.1690   21.8678  -16.8729  N     
9    C       -24.8248   20.9353  -15.9765  C     
10   C       -24.7261   21.4158  -14.4905  C     
11   C       -23.2797   21.9144  -14.0923  C     
12   C       -22.2435   21.6328  -15.2254  C     
13   C       -22.7882   22.2230  -16.5551  C     
14   C       -22.8378   21.4039  -12.7727  C     
15   O       -23.3620   21.9293  -11.6449  O     
16   O       -21.6952   20.6896  -12.6409  O     
17   C       -26.8181   20.4381  -20.5752  C     
18   C       -26.7424   19.1265  -20.0426  C     
19   C       -27.2711   18.0079  -20.7213  C     
20   C       -27.8982   18.1685  -21.9734  C     
21   C       -28.0304   19.4679  -22.5145  C     
22   C       -27.5331   20.5807  -21.7963  C     
23   O       -28.6933   19.6539  -23.7005  O     
24   C       -27.8930   20.2593  -24.7360  C     
25   O       -28.5007   17.0884  -22.5709  O     
26   C       -27.7984   16.5050  -23.6826  C     
27   O       -27.2641   16.7753  -20.1216  O     
28   C       -26.0341   16.0463  -20.2645  C     
29   C       -25.7919   22.5187  -14.2134  C     
30   H       -26.4234   23.0971  -21.3799  H     
31   H       -24.1788   25.5072  -18.6029  H     
32   H       -23.7690   24.6645  -17.2178  H     
33   H       -25.8735   20.7577  -16.2254  H     
34   H       -24.3242   19.9594  -16.0734  H     
35   H       -24.9983   20.5517  -13.8754  H     
36   H       -23.2970   23.0068  -13.9791  H     
37   H       -21.2804   22.0932  -14.9933  H     
38   H       -22.0914   20.5566  -15.3336  H     
39   H       -22.1359   21.9010  -17.3718  H     
40   H       -22.6796   23.3028  -16.4403  H     
41   H       -26.2898   18.9674  -19.1424  H     
42   H       -27.6996   21.5041  -22.1935  H     
43   H       -27.6600   21.3003  -24.5081  H     
44   H       -28.4613   20.2398  -25.6687  H     
45   H       -26.9586   19.7164  -24.8959  H     
46   H       -27.7310   17.1997  -24.5201  H     
47   H       -28.3572   15.6310  -24.0209  H     
48   H       -26.7935   16.1764  -23.4083  H     
49   H       -25.7788   15.8980  -21.3158  H     
50   H       -26.1614   15.0646  -19.8054  H     
51   H       -25.2100   16.5544  -19.7606  H     
52   H       -25.6298   23.3755  -14.8713  H     
53   H       -25.7264   22.8577  -13.1800  H     
54   H       -26.7964   22.1324  -14.3844  H     
@<TRIPOS>BOND
     1    1    2 2
     2    1    6 1
     3    2    3 1
     4    2   17 1
     5    3    4 2
     6    4    5 1
     7    4    8 1
     8    5    6 2
     9    5    7 1
    10    8    9 1
    11    8   13 1
    12    9   10 1
    13   10   11 1
    14   10   29 1
    15   11   12 1
    16   11   14 1
    17   12   13 1
    18   14   15 1
    19   14   16 2
    20   17   18 2
    21   17   22 1
    22   18   19 1
    23   19   20 2
    24   19   27 1
    25   20   21 1
    26   20   25 1
    27   21   22 2
    28   21   23 1
    29   23   24 1
    30   25   26 1
    31   27   28 1
    32    1   30 1
    33    7   31 1
    34    7   32 1
    35    9   33 1
    36    9   34 1
    37   10   35 1
    38   11   36 1
    39   12   37 1
    40   12   38 1
    41   13   39 1
    42   13   40 1
    43   18   41 1
    44   22   42 1
    45   24   43 1
    46   24   44 1
    47   24   45 1
    48   26   46 1
    49   26   47 1
    50   26   48 1
    51   28   49 1
    52   28   50 1
    53   28   51 1
    54   29   52 1
    55   29   53 1
    56   29   54 1
@<TRIPOS>PROPERTY_DATA
  Total_Score	| 9.2573
  Crash		| -0.7263
  Polar		| 4.3939
  FragIndex	| 1
  FragRMSD	| 0.857

