@<TRIPOS>MOLECULE
BindingDB_50330575
 57 59 0 0 0
SMALL
NO_CHARGES


@<TRIPOS>ATOM
1    C       -25.3569   22.7204  -20.2505  C     
2    C       -25.8444   21.5920  -19.5610  C     
3    N       -25.5421   21.5328  -18.2288  N     
4    C       -24.8433   22.4687  -17.5076  C     
5    C       -24.4567   23.6175  -18.2463  C     
6    N       -24.7109   23.6827  -19.5721  N     
7    N       -23.9463   24.7395  -17.7170  N     
8    N       -24.5880   22.2574  -16.1705  N     
9    C       -25.6154   21.7385  -15.2792  C     
10   C       -25.1154   20.4355  -14.5549  C     
11   C       -23.7058   20.5963  -13.8704  C     
12   C       -22.7136   21.2416  -14.8793  C     
13   C       -23.2781   22.5078  -15.5809  C     
14   C       -23.7163   21.2468  -12.5259  C     
15   O       -23.3028   22.5196  -12.3074  O     
16   O       -23.8338   20.4688  -11.4280  O     
17   C       -26.5527   20.5539  -20.2361  C     
18   C       -27.2833   20.7980  -21.4274  C     
19   C       -27.9232   19.7629  -22.1333  C     
20   C       -27.8985   18.4472  -21.6311  C     
21   C       -27.1859   18.1629  -20.4296  C     
22   C       -26.5584   19.2301  -19.7305  C     
23   O       -27.1833   16.8707  -19.9485  O     
24   C       -25.9097   16.1730  -20.0168  C     
25   O       -28.7106   17.5450  -22.3005  O     
26   C       -28.0639   16.6748  -23.2521  C     
27   O       -28.6340   20.0447  -23.2696  O     
28   C       -27.8175   20.5393  -24.3549  C     
29   C       -26.1589   22.8643  -14.3468  C     
30   C       -26.2013   19.7847  -13.6471  C     
31   H       -25.4804   22.8381  -21.2572  H     
32   H       -23.8140   25.5144  -18.2827  H     
33   H       -23.8259   24.8232  -16.7557  H     
34   H       -26.4908   21.4221  -15.8436  H     
35   H       -24.9585   19.7014  -15.3614  H     
36   H       -23.3211   19.5800  -13.6848  H     
37   H       -21.7653   21.4835  -14.3831  H     
38   H       -22.4814   20.5089  -15.6621  H     
39   H       -22.5324   22.8079  -16.3168  H     
40   H       -23.3485   23.3171  -14.8443  H     
41   H       -27.3649   21.7477  -21.7925  H     
42   H       -26.0627   19.0143  -18.8606  H     
43   H       -25.4663   16.2490  -21.0187  H     
44   H       -26.0916   15.1209  -19.8017  H     
45   H       -25.1957   16.5569  -19.2752  H     
46   H       -27.4461   17.2334  -23.9699  H     
47   H       -28.8350   16.1270  -23.8197  H     
48   H       -27.4601   15.9389  -22.6989  H     
49   H       -27.4633   21.5564  -24.1408  H     
50   H       -28.4244   20.5707  -25.2594  H     
51   H       -26.9552   19.8845  -24.5454  H     
52   H       -25.4132   23.1878  -13.6157  H     
53   H       -27.0444   22.5282  -13.8113  H     
54   H       -26.4483   23.7271  -14.9479  H     
55   H       -26.4451   20.4240  -12.7943  H     
56   H       -25.8511   18.8216  -13.2711  H     
57   H       -27.1161   19.6185  -14.2227  H     
@<TRIPOS>BOND
     1    1    2 2
     2    1    6 1
     3    2    3 1
     4    2   17 1
     5    3    4 2
     6    4    5 1
     7    4    8 1
     8    5    6 2
     9    5    7 1
    10    8    9 1
    11    8   13 1
    12    9   10 1
    13    9   29 1
    14   10   11 1
    15   10   30 1
    16   11   12 1
    17   11   14 1
    18   12   13 1
    19   14   15 1
    20   14   16 2
    21   17   18 2
    22   17   22 1
    23   18   19 1
    24   19   20 2
    25   19   27 1
    26   20   21 1
    27   20   25 1
    28   21   22 2
    29   21   23 1
    30   23   24 1
    31   25   26 1
    32   27   28 1
    33    1   31 1
    34    7   32 1
    35    7   33 1
    36    9   34 1
    37   10   35 1
    38   11   36 1
    39   12   37 1
    40   12   38 1
    41   13   39 1
    42   13   40 1
    43   18   41 1
    44   22   42 1
    45   24   43 1
    46   24   44 1
    47   24   45 1
    48   26   46 1
    49   26   47 1
    50   26   48 1
    51   28   49 1
    52   28   50 1
    53   28   51 1
    54   29   52 1
    55   29   53 1
    56   29   54 1
    57   30   55 1
    58   30   56 1
    59   30   57 1
@<TRIPOS>PROPERTY_DATA
  Total_Score	| 7.8090
  Crash		| -1.1059
  Polar		| 3.5336
  FragIndex	| 1
  FragRMSD	| 0.687

