@<TRIPOS>MOLECULE
BindingDB_50330590
 60 62 0 0 0
SMALL
NO_CHARGES


@<TRIPOS>ATOM
1    C       -25.9372   22.8627  -20.4693  C     
2    C       -26.1351   21.5578  -19.9270  C     
3    N       -25.5156   21.3441  -18.7287  N     
4    C       -24.7425   22.2210  -18.0316  C     
5    C       -24.6131   23.5224  -18.6011  C     
6    N       -25.2045   23.7738  -19.8002  N     
7    N       -24.0038   24.5556  -18.0084  N     
8    N       -24.0935   21.7851  -16.8923  N     
9    C       -24.7252   20.8580  -15.9577  C     
10   C       -24.5620   21.3554  -14.4669  C     
11   C       -23.0261   21.5325  -14.1827  C     
12   C       -22.3912   22.5200  -15.2105  C     
13   C       -22.6805   22.0479  -16.6614  C     
14   C       -22.7037   21.8747  -12.7810  C     
15   O       -23.4854   22.7123  -12.0553  O     
16   O       -21.4952   21.5137  -12.2700  O     
17   C       -26.8424   20.5124  -20.6123  C     
18   C       -27.6081   20.7352  -21.7898  C     
19   C       -28.2292   19.6915  -22.4890  C     
20   C       -28.0553   18.3562  -22.0552  C     
21   C       -27.3607   18.1172  -20.8576  C     
22   C       -26.7882   19.1826  -20.1375  C     
23   O       -27.2903   16.8468  -20.3556  O     
24   C       -26.0342   16.1920  -20.6343  C     
25   O       -28.6609   17.3196  -22.7215  O     
26   C       -27.9057   16.8225  -23.8487  C     
27   O       -28.9152   19.9944  -23.6306  O     
28   C       -30.2009   20.5953  -23.3865  C     
29   C       -25.3973   22.6482  -14.1806  C     
30   C       -26.9059   22.4180  -13.8598  C     
31   C       -27.7723   23.6712  -14.2257  C     
32   H       -26.3048   23.1358  -21.3776  H     
33   H       -23.9987   25.4378  -18.4284  H     
34   H       -23.6174   24.4511  -17.1166  H     
35   H       -25.7911   20.7181  -16.1703  H     
36   H       -24.2485   19.8738  -16.0594  H     
37   H       -24.9281   20.5499  -13.8135  H     
38   H       -22.5611   20.5544  -14.3701  H     
39   H       -22.7789   23.5340  -15.0816  H     
40   H       -21.3044   22.5522  -15.0641  H     
41   H       -22.1391   21.1073  -16.8178  H     
42   H       -22.2498   22.7623  -17.3696  H     
43   H       -27.7433   21.6721  -22.1510  H     
44   H       -26.2978   18.9591  -19.2705  H     
45   H       -25.8791   16.0322  -21.6940  H     
46   H       -26.0527   15.2129  -20.1613  H     
47   H       -25.1790   16.7380  -20.2360  H     
48   H       -27.7840   17.5720  -24.6303  H     
49   H       -28.4442   15.9833  -24.2769  H     
50   H       -26.9222   16.4628  -23.5664  H     
51   H       -30.8899   19.8832  -22.9280  H     
52   H       -30.6280   20.9092  -24.3389  H     
53   H       -30.1216   21.4809  -22.7549  H     
54   H       -24.9727   23.1933  -13.3438  H     
55   H       -25.3233   23.2928  -15.0632  H     
56   H       -27.2882   21.5503  -14.4191  H     
57   H       -27.0281   22.2054  -12.7744  H     
58   H       -27.3855   24.5657  -13.7259  H     
59   H       -28.8066   23.5004  -13.9107  H     
60   H       -27.7308   23.8127  -15.3172  H     
@<TRIPOS>BOND
     1    1    2 2
     2    1    6 1
     3    2    3 1
     4    2   17 1
     5    3    4 2
     6    4    5 1
     7    4    8 1
     8    5    6 2
     9    5    7 1
    10    8    9 1
    11    8   13 1
    12    9   10 1
    13   10   11 1
    14   10   29 1
    15   11   12 1
    16   11   14 1
    17   12   13 1
    18   14   15 1
    19   14   16 2
    20   17   18 2
    21   17   22 1
    22   18   19 1
    23   19   20 2
    24   19   27 1
    25   20   21 1
    26   20   25 1
    27   21   22 2
    28   21   23 1
    29   23   24 1
    30   25   26 1
    31   27   28 1
    32   29   30 1
    33   30   31 1
    34    1   32 1
    35    7   33 1
    36    7   34 1
    37    9   35 1
    38    9   36 1
    39   10   37 1
    40   11   38 1
    41   12   39 1
    42   12   40 1
    43   13   41 1
    44   13   42 1
    45   18   43 1
    46   22   44 1
    47   24   45 1
    48   24   46 1
    49   24   47 1
    50   26   48 1
    51   26   49 1
    52   26   50 1
    53   28   51 1
    54   28   52 1
    55   28   53 1
    56   29   54 1
    57   29   55 1
    58   30   56 1
    59   30   57 1
    60   31   58 1
    61   31   59 1
    62   31   60 1
@<TRIPOS>PROPERTY_DATA
  Total_Score	| 9.9786
  Crash		| -2.8054
  Polar		| 4.8702
  FragIndex	| 1
  FragRMSD	| 0.727

