@<TRIPOS>MOLECULE
BindingDB_50330589
 57 59 0 0 0
SMALL
NO_CHARGES


@<TRIPOS>ATOM
1    C       -25.8990   22.8452  -20.5961  C     
2    C       -26.0993   21.5382  -20.0918  C     
3    N       -25.5273   21.2985  -18.8789  N     
4    C       -24.7854   22.1742  -18.1411  C     
5    C       -24.6451   23.4800  -18.6720  C     
6    N       -25.2022   23.7542  -19.8751  N     
7    N       -24.0840   24.5008  -18.0091  N     
8    N       -24.2167   21.7443  -16.9769  N     
9    C       -25.0040   20.9852  -16.0212  C     
10   C       -24.3614   20.8396  -14.5993  C     
11   C       -23.5073   22.1109  -14.2470  C     
12   C       -22.4732   22.4914  -15.3580  C     
13   C       -22.7979   21.8768  -16.7365  C     
14   C       -22.8186   21.9935  -12.9402  C     
15   O       -21.6436   21.3388  -12.8324  O     
16   O       -23.3290   22.5831  -11.8324  O     
17   C       -26.7939   20.4844  -20.7790  C     
18   C       -26.7443   19.1478  -20.2955  C     
19   C       -27.3791   18.0811  -20.9679  C     
20   C       -28.1212   18.3363  -22.1376  C     
21   C       -28.2390   19.6610  -22.6124  C     
22   C       -27.5537   20.7025  -21.9566  C     
23   O       -28.9773   19.9349  -23.7334  O     
24   C       -30.2530   20.5366  -23.4522  C     
25   O       -28.8038   17.3250  -22.7611  O     
26   C       -28.0809   16.7229  -23.8517  C     
27   O       -27.3626   16.8066  -20.4513  O     
28   C       -26.1123   16.1081  -20.5941  C     
29   C       -25.4115   20.4350  -13.5078  C     
30   C       -26.5825   21.4178  -13.2377  C     
31   H       -26.2617   23.1470  -21.4974  H     
32   H       -24.0666   25.3869  -18.4008  H     
33   H       -23.7533   24.3792  -17.1059  H     
34   H       -25.9610   21.5047  -15.9154  H     
35   H       -25.2143   19.9882  -16.4297  H     
36   H       -23.6572   20.0035  -14.6685  H     
37   H       -24.2060   22.9481  -14.1785  H     
38   H       -22.4409   23.5792  -15.4512  H     
39   H       -21.4604   22.1723  -15.0997  H     
40   H       -22.3846   20.8710  -16.7569  H     
41   H       -22.2708   22.4250  -17.5196  H     
42   H       -26.2348   18.9218  -19.4415  H     
43   H       -27.6480   21.6426  -22.3434  H     
44   H       -30.8761   19.8736  -22.8489  H     
45   H       -30.7617   20.7178  -24.3989  H     
46   H       -30.1428   21.4948  -22.9398  H     
47   H       -27.8576   17.4506  -24.6383  H     
48   H       -28.7059   15.9400  -24.2835  H     
49   H       -27.1495   16.2652  -23.5095  H     
50   H       -25.8045   16.0464  -21.6398  H     
51   H       -26.2451   15.0919  -20.2194  H     
52   H       -25.3207   16.5819  -20.0108  H     
53   H       -25.8438   19.4685  -13.7832  H     
54   H       -24.8828   20.2788  -12.5616  H     
55   H       -26.2203   22.4295  -13.0583  H     
56   H       -27.1248   21.0973  -12.3446  H     
57   H       -27.2805   21.4345  -14.0759  H     
@<TRIPOS>BOND
     1    1    2 2
     2    1    6 1
     3    2    3 1
     4    2   17 1
     5    3    4 2
     6    4    5 1
     7    4    8 1
     8    5    6 2
     9    5    7 1
    10    8    9 1
    11    8   13 1
    12    9   10 1
    13   10   11 1
    14   10   29 1
    15   11   12 1
    16   11   14 1
    17   12   13 1
    18   14   15 1
    19   14   16 2
    20   17   18 2
    21   17   22 1
    22   18   19 1
    23   19   20 2
    24   19   27 1
    25   20   21 1
    26   20   25 1
    27   21   22 2
    28   21   23 1
    29   23   24 1
    30   25   26 1
    31   27   28 1
    32   29   30 1
    33    1   31 1
    34    7   32 1
    35    7   33 1
    36    9   34 1
    37    9   35 1
    38   10   36 1
    39   11   37 1
    40   12   38 1
    41   12   39 1
    42   13   40 1
    43   13   41 1
    44   18   42 1
    45   22   43 1
    46   24   44 1
    47   24   45 1
    48   24   46 1
    49   26   47 1
    50   26   48 1
    51   26   49 1
    52   28   50 1
    53   28   51 1
    54   28   52 1
    55   29   53 1
    56   29   54 1
    57   30   55 1
    58   30   56 1
    59   30   57 1
@<TRIPOS>PROPERTY_DATA
  Total_Score	| 8.8646
  Crash		| -1.4326
  Polar		| 5.2831
  FragIndex	| 1
  FragRMSD	| 0.881

