@<TRIPOS>MOLECULE
BindingDB_50330585
 60 62 0 0 0
SMALL
NO_CHARGES


@<TRIPOS>ATOM
1    C       -25.7573   22.6681  -20.4839  C     
2    C       -26.1341   21.3888  -20.0114  C     
3    N       -25.9182   21.1514  -18.6906  N     
4    C       -25.3999   22.0295  -17.7916  C     
5    C       -25.0396   23.3067  -18.3003  C     
6    N       -25.2156   23.5620  -19.6254  N     
7    N       -24.4262   24.2690  -17.5881  N     
8    N       -25.3766   21.6051  -16.4875  N     
9    C       -24.8438   20.2836  -16.1112  C     
10   C       -23.8399   20.3854  -14.8979  C     
11   C       -23.6974   21.8144  -14.3071  C     
12   C       -25.1116   22.4322  -14.1245  C     
13   C       -25.9485   22.4265  -15.4412  C     
14   C       -22.8873   21.8307  -13.0713  C     
15   O       -23.2327   22.5522  -11.9752  O     
16   O       -21.6774   21.2436  -13.0644  O     
17   C       -26.7885   20.3934  -20.7945  C     
18   C       -26.7468   19.0243  -20.4267  C     
19   C       -27.4040   18.0355  -21.1868  C     
20   C       -28.1881   18.4083  -22.3013  C     
21   C       -28.2688   19.7672  -22.6733  C     
22   C       -27.5589   20.7381  -21.9333  C     
23   O       -28.9802   20.1319  -23.7905  O     
24   C       -30.2532   20.7452  -23.4958  C     
25   O       -28.7656   17.4604  -23.1072  O     
26   C       -30.0779   17.0380  -22.6957  C     
27   O       -27.3348   16.7213  -20.7980  O     
28   C       -26.1904   16.0309  -21.3254  C     
29   C       -25.9413   19.1509  -15.9636  C     
30   C       -25.3066   17.7277  -15.9557  C     
31   C       -26.9226   19.2490  -14.7465  C     
32   H       -25.8547   22.9365  -21.4641  H     
33   H       -24.2169   25.1235  -18.0081  H     
34   H       -24.1939   24.1282  -16.6546  H     
35   H       -24.2158   19.9659  -16.9551  H     
36   H       -24.1396   19.7156  -14.0906  H     
37   H       -22.8493   20.0452  -15.2164  H     
38   H       -23.1706   22.4325  -15.0450  H     
39   H       -25.6628   21.8831  -13.3429  H     
40   H       -25.0200   23.4649  -13.7693  H     
41   H       -26.1565   23.4547  -15.7495  H     
42   H       -26.9433   22.0267  -15.2140  H     
43   H       -26.2097   18.7257  -19.6086  H     
44   H       -27.6465   21.7125  -22.2302  H     
45   H       -30.9225   20.0552  -22.9745  H     
46   H       -30.7184   21.0191  -24.4444  H     
47   H       -30.1383   21.6547  -22.8997  H     
48   H       -30.0626   16.5601  -21.7115  H     
49   H       -30.4344   16.3075  -23.4198  H     
50   H       -30.7849   17.8715  -22.6772  H     
51   H       -26.1921   16.0256  -22.4200  H     
52   H       -26.2285   14.9961  -20.9796  H     
53   H       -25.2632   16.4811  -20.9595  H     
54   H       -26.5657   19.1992  -16.8692  H     
55   H       -24.6756   17.5829  -16.8290  H     
56   H       -26.0898   16.9664  -15.9729  H     
57   H       -24.6946   17.5709  -15.0653  H     
58   H       -26.4620   18.9056  -13.8112  H     
59   H       -27.8009   18.6215  -14.9373  H     
60   H       -27.2874   20.2666  -14.5788  H     
@<TRIPOS>BOND
     1    1    2 2
     2    1    6 1
     3    2    3 1
     4    2   17 1
     5    3    4 2
     6    4    5 1
     7    4    8 1
     8    5    6 2
     9    5    7 1
    10    8    9 1
    11    8   13 1
    12    9   10 1
    13    9   29 1
    14   10   11 1
    15   11   12 1
    16   11   14 1
    17   12   13 1
    18   14   15 1
    19   14   16 2
    20   17   18 2
    21   17   22 1
    22   18   19 1
    23   19   20 2
    24   19   27 1
    25   20   21 1
    26   20   25 1
    27   21   22 2
    28   21   23 1
    29   23   24 1
    30   25   26 1
    31   27   28 1
    32   29   30 1
    33   29   31 1
    34    1   32 1
    35    7   33 1
    36    7   34 1
    37    9   35 1
    38   10   36 1
    39   10   37 1
    40   11   38 1
    41   12   39 1
    42   12   40 1
    43   13   41 1
    44   13   42 1
    45   18   43 1
    46   22   44 1
    47   24   45 1
    48   24   46 1
    49   24   47 1
    50   26   48 1
    51   26   49 1
    52   26   50 1
    53   28   51 1
    54   28   52 1
    55   28   53 1
    56   29   54 1
    57   30   55 1
    58   30   56 1
    59   30   57 1
    60   31   58 1
    61   31   59 1
    62   31   60 1
@<TRIPOS>PROPERTY_DATA
  Total_Score	| 8.3148
  Crash		| -1.5715
  Polar		| 4.8583
  FragIndex	| 1
  FragRMSD	| 0.693

