@<TRIPOS>MOLECULE
BindingDB_50330588
 58 61 0 0 0
SMALL
NO_CHARGES


@<TRIPOS>ATOM
1    C       -25.6174   22.8135  -20.3853  C     
2    C       -25.9191   21.5508  -19.8102  C     
3    N       -25.3895   21.3303  -18.5750  N     
4    C       -24.6518   22.2078  -17.8282  C     
5    C       -24.4602   23.4951  -18.4096  C     
6    N       -24.9336   23.7267  -19.6631  N     
7    N       -23.9525   24.5754  -17.7971  N     
8    N       -24.1120   21.7669  -16.6427  N     
9    C       -24.7767   20.7393  -15.8462  C     
10   C       -24.7844   21.1076  -14.3189  C     
11   C       -23.2943   21.2882  -13.8581  C     
12   C       -22.6027   22.3798  -14.7318  C     
13   C       -22.7401   22.0598  -16.2436  C     
14   C       -23.1535   21.5391  -12.3970  C     
15   O       -22.9907   22.7841  -11.8866  O     
16   O       -23.3395   20.5216  -11.5269  O     
17   C       -26.6528   20.5314  -20.5032  C     
18   C       -27.4638   20.8093  -21.6342  C     
19   C       -28.0585   19.7856  -22.4026  C     
20   C       -27.9340   18.4389  -22.0047  C     
21   C       -27.1871   18.1328  -20.8317  C     
22   C       -26.5790   19.1748  -20.0919  C     
23   O       -27.1232   16.8479  -20.3520  O     
24   C       -26.0701   16.0918  -20.9936  C     
25   O       -28.4356   17.5124  -22.9029  O     
26   C       -29.2056   16.4116  -22.3976  C     
27   O       -28.8314   20.1169  -23.4922  O     
28   C       -28.0591   20.3459  -24.6822  C     
29   C       -25.6723   22.3462  -13.9168  C     
30   C       -26.5893   23.0979  -14.9099  C     
31   C       -27.1898   22.1024  -13.9021  C     
32   H       -25.8969   23.0585  -21.3406  H     
33   H       -23.9228   25.4340  -18.2666  H     
34   H       -23.7155   24.5403  -16.8546  H     
35   H       -25.8072   20.5541  -16.1516  H     
36   H       -24.2433   19.7963  -15.9814  H     
37   H       -25.1745   20.2438  -13.7749  H     
38   H       -22.7550   20.3500  -14.0404  H     
39   H       -23.0575   23.3532  -14.5449  H     
40   H       -21.5370   22.4436  -14.4793  H     
41   H       -22.1410   21.1694  -16.4526  H     
42   H       -22.2704   22.8605  -16.8096  H     
43   H       -27.6201   21.7735  -21.9367  H     
44   H       -26.0320   18.9112  -19.2744  H     
45   H       -26.2469   15.9964  -22.0762  H     
46   H       -26.0665   15.0844  -20.5585  H     
47   H       -25.0784   16.5451  -20.8275  H     
48   H       -28.5437   15.6918  -21.9172  H     
49   H       -29.6903   15.9172  -23.2442  H     
50   H       -29.9754   16.7562  -21.6930  H     
51   H       -27.4099   21.2158  -24.5686  H     
52   H       -28.7582   20.5455  -25.4955  H     
53   H       -27.4595   19.4748  -24.9543  H     
54   H       -25.3653   22.9569  -13.0589  H     
55   H       -26.7850   24.1648  -14.6956  H     
56   H       -26.5890   22.7540  -15.9541  H     
57   H       -27.5547   21.1613  -14.3344  H     
58   H       -27.7413   22.5557  -13.0711  H     
@<TRIPOS>BOND
     1    1    2 2
     2    1    6 1
     3    2    3 1
     4    2   17 1
     5    3    4 2
     6    4    5 1
     7    4    8 1
     8    5    6 2
     9    5    7 1
    10    8    9 1
    11    8   13 1
    12    9   10 1
    13   10   11 1
    14   10   29 1
    15   11   12 1
    16   11   14 1
    17   12   13 1
    18   14   15 1
    19   14   16 2
    20   17   18 2
    21   17   22 1
    22   18   19 1
    23   19   20 2
    24   19   27 1
    25   20   21 1
    26   20   25 1
    27   21   22 2
    28   21   23 1
    29   23   24 1
    30   25   26 1
    31   27   28 1
    32   29   30 1
    33   29   31 1
    34   30   31 1
    35    1   32 1
    36    7   33 1
    37    7   34 1
    38    9   35 1
    39    9   36 1
    40   10   37 1
    41   11   38 1
    42   12   39 1
    43   12   40 1
    44   13   41 1
    45   13   42 1
    46   18   43 1
    47   22   44 1
    48   24   45 1
    49   24   46 1
    50   24   47 1
    51   26   48 1
    52   26   49 1
    53   26   50 1
    54   28   51 1
    55   28   52 1
    56   28   53 1
    57   29   54 1
    58   30   55 1
    59   30   56 1
    60   31   57 1
    61   31   58 1
@<TRIPOS>PROPERTY_DATA
  Total_Score	| 8.6271
  Crash		| -1.4986
  Polar		| 4.1106
  FragIndex	| 1
  FragRMSD	| 0.719

