@<TRIPOS>MOLECULE
BindingDB_50330578
 51 53 0 0 0
SMALL
NO_CHARGES


@<TRIPOS>ATOM
1    C       -30.0267   20.4847  -23.4690  C     
2    O       -28.7834   19.7764  -23.6082  O     
3    C       -28.1048   19.5893  -22.4341  C     
4    C       -27.4651   20.6748  -21.7901  C     
5    C       -26.7043   20.5004  -20.6029  C     
6    C       -26.0603   21.5886  -19.9258  C     
7    C       -25.7634   22.8417  -20.5155  C     
8    N       -25.1395   23.8011  -19.7805  N     
9    C       -24.7758   23.6323  -18.4926  C     
10   N       -24.1947   24.6568  -17.8426  N     
11   C       -25.0517   22.3954  -17.8784  C     
12   N       -24.6756   22.1345  -16.6010  N     
13   C       -25.6702   22.1880  -15.5486  C     
14   C       -25.0287   22.1662  -14.1358  C     
15   C       -23.9858   21.0173  -13.9257  C     
16   C       -22.9924   21.4246  -12.8874  C     
17   O       -23.3912   22.1028  -11.7946  O     
18   O       -21.7094   20.9604  -12.8805  O     
19   C       -23.3580   20.5421  -15.2846  C     
20   C       -23.3323   21.6803  -16.3395  C     
21   N       -25.6769   21.4462  -18.6243  N     
22   C       -26.5981   19.1800  -20.0945  C     
23   C       -27.2000   18.0821  -20.7463  C     
24   O       -27.0574   16.8248  -20.2119  O     
25   C       -26.0678   16.0326  -20.8881  C     
26   C       -27.9736   18.2871  -21.9092  C     
27   O       -28.4986   17.2166  -22.5807  O     
28   C       -29.8827   16.9577  -22.2891  C     
29   H       -30.6930   19.9990  -22.7508  H     
30   H       -30.5185   20.4960  -24.4431  H     
31   H       -29.8591   21.5210  -23.1665  H     
32   H       -27.5702   21.6076  -22.2000  H     
33   H       -25.9873   23.0558  -21.4857  H     
34   H       -23.9617   24.5832  -16.9026  H     
35   H       -24.0553   25.4954  -18.3058  H     
36   H       -26.2599   23.1076  -15.6431  H     
37   H       -26.3495   21.3387  -15.6635  H     
38   H       -24.5374   23.1317  -14.0065  H     
39   H       -25.8179   22.0981  -13.3877  H     
40   H       -24.5213   20.1557  -13.5068  H     
41   H       -22.3502   20.1416  -15.1505  H     
42   H       -23.9716   19.7253  -15.6912  H     
43   H       -22.8343   21.3212  -17.2497  H     
44   H       -22.7490   22.5170  -15.9510  H     
45   H       -26.0498   18.9873  -19.2473  H     
46   H       -26.3400   15.8547  -21.9317  H     
47   H       -26.0081   15.0697  -20.3839  H     
48   H       -25.0855   16.5074  -20.8430  H     
49   H       -30.0525   16.7954  -21.2209  H     
50   H       -30.1695   16.0516  -22.8218  H     
51   H       -30.5154   17.7770  -22.6385  H     
@<TRIPOS>BOND
     1    1    2 1
     2    2    3 1
     3    3    4 1
     4    3   26 2
     5    4    5 2
     6    5    6 1
     7    5   22 1
     8    6    7 1
     9    6   21 2
    10    7    8 2
    11    8    9 1
    12    9   10 1
    13    9   11 2
    14   11   12 1
    15   11   21 1
    16   12   13 1
    17   12   20 1
    18   13   14 1
    19   14   15 1
    20   15   16 1
    21   15   19 1
    22   16   17 2
    23   16   18 1
    24   19   20 1
    25   22   23 2
    26   23   24 1
    27   23   26 1
    28   24   25 1
    29   26   27 1
    30   27   28 1
    31    1   29 1
    32    1   30 1
    33    1   31 1
    34    4   32 1
    35    7   33 1
    36   10   34 1
    37   10   35 1
    38   13   36 1
    39   13   37 1
    40   14   38 1
    41   14   39 1
    42   15   40 1
    43   19   41 1
    44   19   42 1
    45   20   43 1
    46   20   44 1
    47   22   45 1
    48   25   46 1
    49   25   47 1
    50   25   48 1
    51   28   49 1
    52   28   50 1
    53   28   51 1
@<TRIPOS>PROPERTY_DATA
  Total_Score	| 9.2139
  Crash		| -0.9722
  Polar		| 5.3876
  FragIndex	| 1
  FragRMSD	| 0.950

