@<TRIPOS>MOLECULE
BindingDB_50330594
 54 56 0 0 0
SMALL
NO_CHARGES


@<TRIPOS>ATOM
1    C       -25.7736   22.7609  -20.5044  C     
2    C       -26.1625   21.5087  -19.9857  C     
3    N       -25.9679   21.3198  -18.6612  N     
4    C       -25.4665   22.2344  -17.7698  C     
5    C       -25.1104   23.5018  -18.3200  C     
6    N       -25.2662   23.6958  -19.6574  N     
7    N       -24.5125   24.5030  -17.6530  N     
8    N       -25.3804   21.8192  -16.4635  N     
9    C       -24.7608   20.5407  -16.1348  C     
10   C       -23.5155   20.8111  -15.2317  C     
11   C       -24.0148   21.4793  -13.9047  C     
12   C       -24.8160   22.7860  -14.2189  C     
13   C       -25.8783   22.5758  -15.3359  C     
14   C       -22.9695   21.7192  -12.8715  C     
15   O       -21.7197   21.1998  -12.9118  O     
16   O       -23.3030   22.4034  -11.7521  O     
17   C       -26.7746   20.4689  -20.7465  C     
18   C       -26.7473   19.1212  -20.3183  C     
19   C       -27.3228   18.0880  -21.0927  C     
20   C       -27.9925   18.3845  -22.3029  C     
21   C       -28.1224   19.7463  -22.6795  C     
22   C       -27.4870   20.7596  -21.9291  C     
23   O       -28.8597   20.1077  -23.7755  O     
24   C       -30.2004   20.5079  -23.4304  C     
25   O       -28.3296   17.3102  -23.1036  O     
26   C       -29.7140   17.1174  -23.4602  C     
27   O       -27.2618   16.7933  -20.6509  O     
28   C       -26.2176   16.0310  -21.2776  C     
29   C       -22.4595   21.6560  -16.0111  C     
30   H       -25.8355   22.9786  -21.5010  H     
31   H       -24.2924   25.3209  -18.1275  H     
32   H       -24.2791   24.4014  -16.7240  H     
33   H       -25.4769   19.9033  -15.6082  H     
34   H       -24.4348   19.9728  -17.0094  H     
35   H       -23.0662   19.8452  -14.9900  H     
36   H       -24.7185   20.7773  -13.4389  H     
37   H       -25.3268   23.1238  -13.3109  H     
38   H       -24.1278   23.5729  -14.5241  H     
39   H       -26.3020   23.5399  -15.6218  H     
40   H       -26.7071   22.0107  -14.8961  H     
41   H       -26.2661   18.8623  -19.4563  H     
42   H       -27.6131   21.7253  -22.2268  H     
43   H       -30.7373   19.7099  -22.9033  H     
44   H       -30.7254   20.7246  -24.3547  H     
45   H       -30.2093   21.4163  -22.8173  H     
46   H       -30.3530   17.0931  -22.5648  H     
47   H       -29.8281   16.1528  -23.9747  H     
48   H       -30.0499   17.9231  -24.1459  H     
49   H       -26.3780   15.9514  -22.3518  H     
50   H       -26.2288   15.0321  -20.8568  H     
51   H       -25.2354   16.4655  -21.0874  H     
52   H       -22.2981   21.2234  -16.9982  H     
53   H       -21.5029   21.6741  -15.4861  H     
54   H       -22.7875   22.6842  -16.1617  H     
@<TRIPOS>BOND
     1    1    2 2
     2    1    6 1
     3    2    3 1
     4    2   17 1
     5    3    4 2
     6    4    5 1
     7    4    8 1
     8    5    6 2
     9    5    7 1
    10    8    9 1
    11    8   13 1
    12    9   10 1
    13   10   11 1
    14   10   29 1
    15   11   12 1
    16   11   14 1
    17   12   13 1
    18   14   15 1
    19   14   16 2
    20   17   18 2
    21   17   22 1
    22   18   19 1
    23   19   20 2
    24   19   27 1
    25   20   21 1
    26   20   25 1
    27   21   22 2
    28   21   23 1
    29   23   24 1
    30   25   26 1
    31   27   28 1
    32    1   30 1
    33    7   31 1
    34    7   32 1
    35    9   33 1
    36    9   34 1
    37   10   35 1
    38   11   36 1
    39   12   37 1
    40   12   38 1
    41   13   39 1
    42   13   40 1
    43   18   41 1
    44   22   42 1
    45   24   43 1
    46   24   44 1
    47   24   45 1
    48   26   46 1
    49   26   47 1
    50   26   48 1
    51   28   49 1
    52   28   50 1
    53   28   51 1
    54   29   52 1
    55   29   53 1
    56   29   54 1
@<TRIPOS>PROPERTY_DATA
  Total_Score	| 8.4603
  Crash		| -1.9055
  Polar		| 5.2529
  FragIndex	| 1
  FragRMSD	| 1.380

