@<TRIPOS>MOLECULE
BindingDB_50330595
 54 56 0 0 0
SMALL
NO_CHARGES


@<TRIPOS>ATOM
1    C       -25.7487   22.8070  -20.4562  C     
2    C       -25.9839   21.5177  -19.9250  C     
3    N       -25.4704   21.3055  -18.6812  N     
4    C       -24.7898   22.1968  -17.9024  C     
5    C       -24.6458   23.4995  -18.4507  C     
6    N       -25.1156   23.7349  -19.7046  N     
7    N       -24.1680   24.5719  -17.8006  N     
8    N       -24.2483   21.7302  -16.7259  N     
9    C       -24.8793   20.6497  -15.9822  C     
10   C       -24.9030   20.9318  -14.4448  C     
11   C       -23.4481   21.2319  -13.9429  C     
12   C       -22.8039   22.3719  -14.7924  C     
13   C       -22.8960   22.0530  -16.3060  C     
14   C       -23.3873   21.4601  -12.4796  C     
15   O       -23.5684   20.4257  -11.6278  O     
16   O       -23.2193   22.6906  -11.9439  O     
17   C       -26.6552   20.4563  -20.6173  C     
18   C       -27.3625   20.6698  -21.8281  C     
19   C       -27.9645   19.6132  -22.5375  C     
20   C       -27.9473   18.3098  -21.9980  C     
21   C       -27.2579   18.0610  -20.7935  C     
22   C       -26.6215   19.1284  -20.1221  C     
23   O       -27.2861   16.7949  -20.2613  O     
24   C       -26.0530   16.0615  -20.3855  C     
25   O       -28.7007   17.3164  -22.5759  O     
26   C       -28.0476   16.6236  -23.6554  C     
27   O       -28.6433   19.8744  -23.7017  O     
28   C       -27.7872   20.3855  -24.7545  C     
29   C       -25.9430   22.0363  -14.0900  C     
30   H       -26.0362   23.0733  -21.4013  H     
31   H       -24.1260   25.4324  -18.2542  H     
32   H       -23.9395   24.5193  -16.8593  H     
33   H       -25.9093   20.4611  -16.3029  H     
34   H       -24.3219   19.7268  -16.1642  H     
35   H       -25.2427   20.0094  -13.9529  H     
36   H       -22.8455   20.3350  -14.1173  H     
37   H       -23.3009   23.3204  -14.5864  H     
38   H       -21.7523   22.4843  -14.5164  H     
39   H       -22.2690   21.1789  -16.5026  H     
40   H       -22.4328   22.8648  -16.8597  H     
41   H       -27.4713   21.6058  -22.2143  H     
42   H       -26.1312   18.9184  -19.2497  H     
43   H       -25.6668   16.0718  -21.4087  H     
44   H       -26.2344   15.0233  -20.1012  H     
45   H       -25.2928   16.4662  -19.7139  H     
46   H       -27.8312   17.3122  -24.4927  H     
47   H       -28.7316   15.8487  -24.0171  H     
48   H       -27.1189   16.1385  -23.3298  H     
49   H       -27.2797   21.3173  -24.4652  H     
50   H       -28.4134   20.5948  -25.6288  H     
51   H       -27.0218   19.6405  -25.0484  H     
52   H       -25.7029   22.9777  -14.5897  H     
53   H       -25.9691   22.2128  -13.0129  H     
54   H       -26.9422   21.7261  -14.4012  H     
@<TRIPOS>BOND
     1    1    2 2
     2    1    6 1
     3    2    3 1
     4    2   17 1
     5    3    4 2
     6    4    5 1
     7    4    8 1
     8    5    6 2
     9    5    7 1
    10    8    9 1
    11    8   13 1
    12    9   10 1
    13   10   11 1
    14   10   29 1
    15   11   12 1
    16   11   14 1
    17   12   13 1
    18   14   15 1
    19   14   16 2
    20   17   18 2
    21   17   22 1
    22   18   19 1
    23   19   20 2
    24   19   27 1
    25   20   21 1
    26   20   25 1
    27   21   22 2
    28   21   23 1
    29   23   24 1
    30   25   26 1
    31   27   28 1
    32    1   30 1
    33    7   31 1
    34    7   32 1
    35    9   33 1
    36    9   34 1
    37   10   35 1
    38   11   36 1
    39   12   37 1
    40   12   38 1
    41   13   39 1
    42   13   40 1
    43   18   41 1
    44   22   42 1
    45   24   43 1
    46   24   44 1
    47   24   45 1
    48   26   46 1
    49   26   47 1
    50   26   48 1
    51   28   49 1
    52   28   50 1
    53   28   51 1
    54   29   52 1
    55   29   53 1
    56   29   54 1
@<TRIPOS>PROPERTY_DATA
  Total_Score	| 8.4127
  Crash		| -0.8138
  Polar		| 4.1116
  FragIndex	| 1
  FragRMSD	| 0.842

