@<TRIPOS>MOLECULE
BindingDB_50330583
 57 59 0 0 0
SMALL
NO_CHARGES


@<TRIPOS>ATOM
1    C       -25.6772   22.7436  -20.5217  C     
2    C       -25.9732   21.4821  -19.9566  C     
3    N       -25.4994   21.2841  -18.6905  N     
4    C       -24.7534   22.1576  -17.9564  C     
5    C       -24.4978   23.4159  -18.5672  C     
6    N       -24.9719   23.6484  -19.8111  N     
7    N       -23.9066   24.4648  -17.9748  N     
8    N       -24.2998   21.7524  -16.7238  N     
9    C       -25.2025   21.0963  -15.7819  C     
10   C       -25.2203   21.9203  -14.4465  C     
11   C       -23.7875   22.1804  -13.8447  C     
12   C       -22.9024   22.8179  -14.9686  C     
13   C       -22.9350   21.9948  -16.2833  C     
14   C       -23.0860   21.0544  -13.1566  C     
15   O       -21.7584   21.1579  -12.9010  O     
16   O       -23.7464   20.1852  -12.3574  O     
17   C       -26.6714   20.4340  -20.6520  C     
18   C       -27.4130   20.6709  -21.8372  C     
19   C       -28.1056   19.6442  -22.5121  C     
20   C       -28.0164   18.3168  -22.0370  C     
21   C       -27.2967   18.0500  -20.8550  C     
22   C       -26.6515   19.1023  -20.1684  C     
23   O       -27.3061   16.7825  -20.3315  O     
24   C       -26.0718   16.0579  -20.4811  C     
25   O       -28.7085   17.3137  -22.6610  O     
26   C       -28.0171   16.7225  -23.7774  C     
27   O       -28.8169   19.9331  -23.6450  O     
28   C       -30.1039   20.5215  -23.3906  C     
29   C       -24.9176   19.5725  -15.6410  C     
30   C       -26.3092   21.4813  -13.4299  C     
31   H       -25.9583   23.0057  -21.4636  H     
32   H       -23.8401   25.3105  -18.4536  H     
33   H       -23.6063   24.4190  -17.0519  H     
34   H       -26.2275   21.1489  -16.1693  H     
35   H       -25.5722   22.9127  -14.7507  H     
36   H       -23.8960   22.9440  -13.0680  H     
37   H       -23.2916   23.8171  -15.1787  H     
38   H       -21.8660   22.9573  -14.6454  H     
39   H       -22.4494   21.0414  -16.0951  H     
40   H       -22.3294   22.4960  -17.0467  H     
41   H       -27.5027   21.6149  -22.2250  H     
42   H       -26.1584   18.8796  -19.3070  H     
43   H       -25.7860   15.9605  -21.5296  H     
44   H       -26.2118   15.0535  -20.0753  H     
45   H       -25.2630   16.5375  -19.9272  H     
46   H       -27.8276   17.4517  -24.5681  H     
47   H       -28.6493   15.9363  -24.1890  H     
48   H       -27.0711   16.2732  -23.4715  H     
49   H       -30.7468   19.8400  -22.8296  H     
50   H       -30.5787   20.7267  -24.3511  H     
51   H       -30.0201   21.4667  -22.8493  H     
52   H       -24.9209   19.0990  -16.6283  H     
53   H       -25.6974   19.0952  -15.0401  H     
54   H       -23.9528   19.3768  -15.1705  H     
55   H       -27.2972   21.4973  -13.8989  H     
56   H       -26.3265   22.1746  -12.5820  H     
57   H       -26.1268   20.4693  -13.0585  H     
@<TRIPOS>BOND
     1    1    2 2
     2    1    6 1
     3    2    3 1
     4    2   17 1
     5    3    4 2
     6    4    5 1
     7    4    8 1
     8    5    6 2
     9    5    7 1
    10    8    9 1
    11    8   13 1
    12    9   10 1
    13    9   29 1
    14   10   11 1
    15   10   30 1
    16   11   12 1
    17   11   14 1
    18   12   13 1
    19   14   15 1
    20   14   16 2
    21   17   18 2
    22   17   22 1
    23   18   19 1
    24   19   20 2
    25   19   27 1
    26   20   21 1
    27   20   25 1
    28   21   22 2
    29   21   23 1
    30   23   24 1
    31   25   26 1
    32   27   28 1
    33    1   31 1
    34    7   32 1
    35    7   33 1
    36    9   34 1
    37   10   35 1
    38   11   36 1
    39   12   37 1
    40   12   38 1
    41   13   39 1
    42   13   40 1
    43   18   41 1
    44   22   42 1
    45   24   43 1
    46   24   44 1
    47   24   45 1
    48   26   46 1
    49   26   47 1
    50   26   48 1
    51   28   49 1
    52   28   50 1
    53   28   51 1
    54   29   52 1
    55   29   53 1
    56   29   54 1
    57   30   55 1
    58   30   56 1
    59   30   57 1
@<TRIPOS>PROPERTY_DATA
  Total_Score	| 7.6393
  Crash		| -1.6432
  Polar		| 3.8309
  FragIndex	| 1
  FragRMSD	| 0.714

