@<TRIPOS>MOLECULE
BindingDB_50330584
 60 62 0 0 0
SMALL
NO_CHARGES


@<TRIPOS>ATOM
1    C       -25.7594   22.7421  -20.4715  C     
2    C       -26.0542   21.4389  -20.0059  C     
3    N       -25.8070   21.2129  -18.6886  N     
4    C       -25.3574   22.1189  -17.7816  C     
5    C       -25.0844   23.4198  -18.2845  C     
6    N       -25.2840   23.6654  -19.6052  N     
7    N       -24.5364   24.4158  -17.5679  N     
8    N       -25.2397   21.6958  -16.4793  N     
9    C       -24.5080   20.4745  -16.1482  C     
10   C       -23.5481   20.6460  -14.9130  C     
11   C       -23.5783   22.0761  -14.2934  C     
12   C       -25.0547   22.5235  -14.1064  C     
13   C       -25.9003   22.4057  -15.4124  C     
14   C       -22.7843   22.1590  -13.0444  C     
15   O       -21.5111   21.7156  -13.0266  O     
16   O       -23.2809   22.6792  -11.8950  O     
17   C       -26.6713   20.4112  -20.7885  C     
18   C       -27.4154   20.6913  -21.9641  C     
19   C       -28.1425   19.6874  -22.6352  C     
20   C       -28.0784   18.3502  -22.1878  C     
21   C       -27.3346   18.0366  -21.0312  C     
22   C       -26.6574   19.0643  -20.3413  C     
23   O       -27.3877   16.7672  -20.5129  O     
24   C       -26.1458   16.0444  -20.5776  C     
25   O       -28.8049   17.3754  -22.8090  O     
26   C       -28.1042   16.7289  -23.8871  C     
27   O       -28.8933   20.0217  -23.7276  O     
28   C       -30.1820   20.5691  -23.3819  C     
29   C       -25.3445   19.1434  -16.2260  C     
30   C       -26.1049   18.5239  -15.0104  C     
31   C       -27.5243   19.0495  -14.7115  C     
32   H       -25.8761   23.0075  -21.4496  H     
33   H       -24.3553   25.2707  -17.9973  H     
34   H       -24.2990   24.2943  -16.6336  H     
35   H       -23.8022   20.3743  -16.9769  H     
36   H       -23.7733   19.9311  -14.1257  H     
37   H       -22.5173   20.4350  -15.2184  H     
38   H       -23.1190   22.7671  -15.0065  H     
39   H       -25.5310   21.9206  -13.3150  H     
40   H       -25.0838   23.5648  -13.7613  H     
41   H       -26.2398   23.4034  -15.7153  H     
42   H       -26.8201   21.8621  -15.1910  H     
43   H       -27.4964   21.6470  -22.3191  H     
44   H       -26.1566   18.8107  -19.4867  H     
45   H       -25.8021   15.9350  -21.6042  H     
46   H       -26.3019   15.0463  -20.1650  H     
47   H       -25.3698   16.5336  -19.9824  H     
48   H       -27.8959   17.4298  -24.6968  H     
49   H       -28.7419   15.9372  -24.2797  H     
50   H       -27.1713   16.2781  -23.5525  H     
51   H       -30.7889   19.8481  -22.8250  H     
52   H       -30.7019   20.8136  -24.3054  H     
53   H       -30.0846   21.4900  -22.7913  H     
54   H       -26.0632   19.2200  -17.0430  H     
55   H       -24.6356   18.3648  -16.5135  H     
56   H       -26.2204   17.4519  -15.2105  H     
57   H       -25.5162   18.5924  -14.0916  H     
58   H       -27.4944   20.0731  -14.3411  H     
59   H       -27.9860   18.4343  -13.9293  H     
60   H       -28.1576   18.9901  -15.6063  H     
@<TRIPOS>BOND
     1    1    2 2
     2    1    6 1
     3    2    3 1
     4    2   17 1
     5    3    4 2
     6    4    5 1
     7    4    8 1
     8    5    6 2
     9    5    7 1
    10    8    9 1
    11    8   13 1
    12    9   10 1
    13    9   29 1
    14   10   11 1
    15   11   12 1
    16   11   14 1
    17   12   13 1
    18   14   15 1
    19   14   16 2
    20   17   18 2
    21   17   22 1
    22   18   19 1
    23   19   20 2
    24   19   27 1
    25   20   21 1
    26   20   25 1
    27   21   22 2
    28   21   23 1
    29   23   24 1
    30   25   26 1
    31   27   28 1
    32   29   30 1
    33   30   31 1
    34    1   32 1
    35    7   33 1
    36    7   34 1
    37    9   35 1
    38   10   36 1
    39   10   37 1
    40   11   38 1
    41   12   39 1
    42   12   40 1
    43   13   41 1
    44   13   42 1
    45   18   43 1
    46   22   44 1
    47   24   45 1
    48   24   46 1
    49   24   47 1
    50   26   48 1
    51   26   49 1
    52   26   50 1
    53   28   51 1
    54   28   52 1
    55   28   53 1
    56   29   54 1
    57   29   55 1
    58   30   56 1
    59   30   57 1
    60   31   58 1
    61   31   59 1
    62   31   60 1
@<TRIPOS>PROPERTY_DATA
  Total_Score	| 8.7407
  Crash		| -1.5678
  Polar		| 5.0664
  FragIndex	| 1
  FragRMSD	| 1.079

