@<TRIPOS>MOLECULE
BindingDB_50330607
 47 49 0 0 0
SMALL
NO_CHARGES


@<TRIPOS>ATOM
1    C       -25.7745   22.7949  -20.5255  C     
2    C       -26.0736   21.5176  -20.0035  C     
3    N       -25.7286   21.3241  -18.7018  N     
4    C       -25.1600   22.2219  -17.8432  C     
5    C       -24.9044   23.5057  -18.4114  C     
6    N       -25.2087   23.7211  -19.7175  N     
7    N       -24.3306   24.5584  -17.8021  N     
8    N       -24.9565   21.8172  -16.5425  N     
9    C       -24.7192   20.4144  -16.2086  C     
10   C       -23.6976   20.2797  -15.0487  C     
11   C       -24.1787   21.0022  -13.7386  C     
12   C       -25.2449   22.1020  -14.0399  C     
13   C       -25.0382   22.7475  -15.4334  C     
14   C       -23.0749   21.5352  -12.8952  C     
15   O       -21.7666   21.2434  -13.1028  O     
16   O       -23.3761   22.3080  -11.8239  O     
17   C       -26.6866   20.4562  -20.7444  C     
18   C       -27.4010   20.6826  -21.9524  C     
19   C       -27.9866   19.6249  -22.6696  C     
20   C       -27.9028   18.3071  -22.1877  C     
21   C       -27.2022   18.0517  -20.9901  C     
22   C       -26.6109   19.1183  -20.2805  C     
23   O       -27.1334   16.7783  -20.4844  O     
24   C       -26.1163   15.9725  -21.1045  C     
25   O       -28.4571   17.2776  -22.9022  O     
26   C       -29.8553   17.0934  -22.6302  C     
27   H       -25.9456   23.0437  -21.5027  H     
28   H       -24.2053   25.3835  -18.3012  H     
29   H       -24.0684   24.5341  -16.8729  H     
30   H       -25.6688   19.9521  -15.9214  H     
31   H       -24.3232   19.8447  -17.0569  H     
32   H       -23.5268   19.2198  -14.8425  H     
33   H       -22.7493   20.7035  -15.4041  H     
34   H       -24.6762   20.2397  -13.1294  H     
35   H       -26.2427   21.6431  -14.0321  H     
36   H       -25.2625   22.8855  -13.2751  H     
37   H       -24.1109   23.3214  -15.3922  H     
38   H       -25.8817   23.4275  -15.5910  H     
39   H       -27.5244   21.6266  -22.3213  H     
40   H       -28.4840   19.8185  -23.5424  H     
41   H       -26.1092   18.8938  -19.4157  H     
42   H       -26.3191   15.8340  -22.1728  H     
43   H       -26.1224   14.9878  -20.6238  H     
44   H       -25.1269   16.4209  -20.9693  H     
45   H       -30.0281   16.8515  -21.5784  H     
46   H       -30.2072   16.2575  -23.2355  H     
47   H       -30.4354   17.9763  -22.9021  H     
@<TRIPOS>BOND
     1    1    2 2
     2    1    6 1
     3    2    3 1
     4    2   17 1
     5    3    4 2
     6    4    5 1
     7    4    8 1
     8    5    6 2
     9    5    7 1
    10    8    9 1
    11    8   13 1
    12    9   10 1
    13   10   11 1
    14   11   12 1
    15   11   14 1
    16   12   13 1
    17   14   15 1
    18   14   16 2
    19   17   18 2
    20   17   22 1
    21   18   19 1
    22   19   20 2
    23   20   21 1
    24   20   25 1
    25   21   22 2
    26   21   23 1
    27   23   24 1
    28   25   26 1
    29    1   27 1
    30    7   28 1
    31    7   29 1
    32    9   30 1
    33    9   31 1
    34   10   32 1
    35   10   33 1
    36   11   34 1
    37   12   35 1
    38   12   36 1
    39   13   37 1
    40   13   38 1
    41   18   39 1
    42   19   40 1
    43   22   41 1
    44   24   42 1
    45   24   43 1
    46   24   44 1
    47   26   45 1
    48   26   46 1
    49   26   47 1
@<TRIPOS>PROPERTY_DATA
  Total_Score	| 7.6879
  Crash		| -1.4427
  Polar		| 5.4481
  FragIndex	| 1
  FragRMSD	| 1.092

