@<TRIPOS>MOLECULE
BindingDB_50330587
 54 56 0 0 0
SMALL
NO_CHARGES


@<TRIPOS>ATOM
1    C       -25.9796   22.9333  -20.4032  C     
2    C       -26.1686   21.6439  -19.8539  C     
3    N       -25.6014   21.4451  -18.6284  N     
4    C       -24.8855   22.3606  -17.9121  C     
5    C       -24.7662   23.6492  -18.4857  C     
6    N       -25.3049   23.8739  -19.7061  N     
7    N       -24.2186   24.7026  -17.8541  N     
8    N       -24.2820   21.9844  -16.7408  N     
9    C       -25.0456   21.3098  -15.6896  C     
10   C       -24.1734   20.4889  -14.6776  C     
11   C       -22.7985   21.1317  -14.2753  C     
12   C       -22.3636   22.3025  -15.2015  C     
13   C       -22.8336   22.0487  -16.6493  C     
14   C       -22.6999   21.5442  -12.8566  C     
15   O       -23.6301   22.3406  -12.2850  O     
16   O       -21.4916   21.4751  -12.2476  O     
17   C       -26.8188   20.5644  -20.5458  C     
18   C       -26.7198   19.2308  -20.0695  C     
19   C       -27.2661   18.1432  -20.7832  C     
20   C       -27.9546   18.3710  -21.9932  C     
21   C       -28.0696   19.6843  -22.4869  C     
22   C       -27.5423   20.7620  -21.7506  C     
23   O       -28.7123   19.9346  -23.6709  O     
24   C       -27.7984   20.2059  -24.7517  C     
25   O       -28.3948   17.3167  -22.7502  O     
26   C       -29.7866   17.0115  -22.5700  C     
27   O       -27.1665   16.8747  -20.2727  O     
28   C       -26.1000   16.1088  -20.8573  C     
29   C       -25.9218   22.3613  -14.9467  C     
30   H       -26.3185   23.1940  -21.3266  H     
31   H       -24.1930   25.5671  -18.2891  H     
32   H       -23.8920   24.6179  -16.9457  H     
33   H       -25.7395   20.5902  -16.1405  H     
34   H       -24.7613   20.2355  -13.7911  H     
35   H       -23.9562   19.5337  -15.1682  H     
36   H       -22.0449   20.3450  -14.4084  H     
37   H       -22.7930   23.2513  -14.8647  H     
38   H       -21.2724   22.4029  -15.1838  H     
39   H       -22.4333   21.0904  -16.9874  H     
40   H       -22.3830   22.8079  -17.2915  H     
41   H       -26.2267   19.0282  -19.1999  H     
42   H       -27.6891   21.6976  -22.1316  H     
43   H       -27.1460   21.0562  -24.5335  H     
44   H       -28.3822   20.4517  -25.6390  H     
45   H       -27.1847   19.3319  -24.9757  H     
46   H       -30.0018   16.7393  -21.5335  H     
47   H       -30.0348   16.1607  -23.2043  H     
48   H       -30.4205   17.8479  -22.8674  H     
49   H       -26.2331   15.9969  -21.9366  H     
50   H       -26.1079   15.1160  -20.4111  H     
51   H       -25.1306   16.5675  -20.6572  H     
52   H       -25.2964   23.0822  -14.4185  H     
53   H       -26.5785   21.8724  -14.2248  H     
54   H       -26.5495   22.9057  -15.6539  H     
@<TRIPOS>BOND
     1    1    2 2
     2    1    6 1
     3    2    3 1
     4    2   17 1
     5    3    4 2
     6    4    5 1
     7    4    8 1
     8    5    6 2
     9    5    7 1
    10    8    9 1
    11    8   13 1
    12    9   10 1
    13    9   29 1
    14   10   11 1
    15   11   12 1
    16   11   14 1
    17   12   13 1
    18   14   15 1
    19   14   16 2
    20   17   18 2
    21   17   22 1
    22   18   19 1
    23   19   20 2
    24   19   27 1
    25   20   21 1
    26   20   25 1
    27   21   22 2
    28   21   23 1
    29   23   24 1
    30   25   26 1
    31   27   28 1
    32    1   30 1
    33    7   31 1
    34    7   32 1
    35    9   33 1
    36   10   34 1
    37   10   35 1
    38   11   36 1
    39   12   37 1
    40   12   38 1
    41   13   39 1
    42   13   40 1
    43   18   41 1
    44   22   42 1
    45   24   43 1
    46   24   44 1
    47   24   45 1
    48   26   46 1
    49   26   47 1
    50   26   48 1
    51   28   49 1
    52   28   50 1
    53   28   51 1
    54   29   52 1
    55   29   53 1
    56   29   54 1
@<TRIPOS>PROPERTY_DATA
  Total_Score	| 8.7946
  Crash		| -1.0535
  Polar		| 4.4389
  FragIndex	| 1
  FragRMSD	| 0.967

