@<TRIPOS>MOLECULE
BindingDB_15339
 42 45 0 0 0
SMALL
NO_CHARGES


@<TRIPOS>ATOM
1    C        49.2228   41.5124   -4.3261  C     
2    C        50.0585   42.6636   -4.1842  C     
3    C        50.5259   42.9919   -2.8782  C     
4    C        48.8232   40.7600   -3.1828  C     
5    C        49.3008   41.1758   -1.9119  C     
6    C        47.9793   39.6178   -3.2254  C     
7    C        48.9524   40.4867   -0.7337  C     
8    C        48.1066   39.3684   -0.8024  C     
9    C        50.3715   43.5221   -5.3699  C     
10   C        48.7739   41.1113   -5.6037  C     
11   O        49.6732   40.6871   -6.5202  O     
12   O        47.5836   41.5658   -6.0530  O     
13   N        50.1217   42.2430   -1.8228  N     
14   C        51.4332   44.0321   -2.5516  C     
15   C        51.1204   44.9545   -1.5254  C     
16   C        52.0408   45.9489   -1.1501  C     
17   C        53.6093   45.1245   -2.8191  C     
18   C        52.6916   44.1247   -3.1877  C     
19   C        53.2976   46.0423   -1.7912  C     
20   C        54.2523   47.0041   -1.3695  C     
21   C        55.1199   46.6911   -0.2963  C     
22   C        56.1093   47.6006    0.1134  C     
23   C        56.2389   48.8444   -0.5301  C     
24   C        55.3759   49.1748   -1.5894  C     
25   C        54.3911   48.2604   -2.0152  C     
26   F        53.6038   48.6138   -2.9995  F     
27   C        47.6196   38.9342   -2.0475  C     
28   F        46.8319   37.8964   -2.1090  F     
29   H        47.6150   39.2692   -4.1162  H     
30   H        49.3113   40.7933    0.1747  H     
31   H        47.8543   38.8694    0.0546  H     
32   H        51.0023   42.9718   -6.0700  H     
33   H        50.8818   44.4484   -5.1153  H     
34   H        49.4466   43.8049   -5.8764  H     
35   H        50.2188   44.9087   -1.0420  H     
36   H        51.7884   46.6004   -0.4005  H     
37   H        54.5207   45.1533   -3.2849  H     
38   H        52.9597   43.4500   -3.9103  H     
39   H        55.0587   45.7850    0.1789  H     
40   H        56.7431   47.3438    0.8716  H     
41   H        56.9564   49.5079   -0.2278  H     
42   H        55.4689   50.0847   -2.0507  H     
@<TRIPOS>BOND
     1    1    2 2
     2    1    4 1
     3    1   10 1
     4    2    3 1
     5    2    9 1
     6    3   13 2
     7    3   14 1
     8    4    5 2
     9    4    6 1
    10    5    7 1
    11    5   13 1
    12    6   27 2
    13    7    8 2
    14    8   27 1
    15   10   11 2
    16   10   12 1
    17   14   15 1
    18   14   18 2
    19   15   16 2
    20   16   19 1
    21   17   18 1
    22   17   19 2
    23   19   20 1
    24   20   21 2
    25   20   25 1
    26   21   22 1
    27   22   23 2
    28   23   24 1
    29   24   25 2
    30   25   26 1
    31   27   28 1
    32    6   29 1
    33    7   30 1
    34    8   31 1
    35    9   32 1
    36    9   33 1
    37    9   34 1
    38   15   35 1
    39   16   36 1
    40   17   37 1
    41   18   38 1
    42   21   39 1
    43   22   40 1
    44   23   41 1
    45   24   42 1
@<TRIPOS>PROPERTY_DATA
  Total_Score	| 12.6221
  Crash		| -0.7418
  Polar		| 4.5886
  FragIndex	| 1
  FragRMSD	| 0.645

