@<TRIPOS>MOLECULE
BindingDB_29222
 29 30 0 0 0
SMALL
NO_CHARGES


@<TRIPOS>ATOM
1    C        -3.4078   -5.5681  -15.4634  C     
2    C        -2.1738   -5.6706  -16.1411  C     
3    C        -1.5990   -6.9201  -16.4051  C     
4    C        -2.2604   -8.1016  -16.0345  C     
5    C        -3.5063   -8.0033  -15.3674  C     
6    C        -4.0674   -6.7410  -14.9906  C     
7    C        -5.2175   -6.7707  -14.1398  C     
8    N        -4.1943   -9.1414  -15.0563  N     
9    C        -5.2690   -9.1371  -14.2822  C     
10   C        -5.7614   -7.9660  -13.7951  C     
11   O        -5.8270  -10.2007  -14.0540  O     
12   C        -5.7938   -5.5599  -13.5456  C     
13   O        -1.5510   -9.2669  -16.2069  O     
14   C        -1.2540   -9.7151  -17.5357  C     
15   O        -3.8899   -4.2984  -15.2788  O     
16   C        -4.6786   -3.8200  -16.3847  C     
17   H        -1.6798   -4.8249  -16.4381  H     
18   H        -0.6873   -6.9670  -16.8663  H     
19   H        -3.9406   -9.9632  -15.4887  H     
20   H        -6.5466   -8.0101  -13.1833  H     
21   H        -5.0125   -4.9665  -13.0688  H     
22   H        -6.5477   -5.7623  -12.7789  H     
23   H        -6.2771   -4.9641  -14.3192  H     
24   H        -1.9838  -10.4843  -17.8136  H     
25   H        -0.2626  -10.1683  -17.5325  H     
26   H        -1.2621   -8.9095  -18.2693  H     
27   H        -4.1405   -3.8973  -17.3274  H     
28   H        -4.9077   -2.7725  -16.2165  H     
29   H        -5.6175   -4.3655  -16.4642  H     
@<TRIPOS>BOND
     1    1    2 1
     2    1    6 2
     3    1   15 1
     4    2    3 2
     5    3    4 1
     6    4    5 2
     7    4   13 1
     8    5    6 1
     9    5    8 1
    10    6    7 1
    11    7   10 2
    12    7   12 1
    13    8    9 1
    14    9   10 1
    15    9   11 2
    16   13   14 1
    17   15   16 1
    18    2   17 1
    19    3   18 1
    20    8   19 1
    21   10   20 1
    22   12   21 1
    23   12   22 1
    24   12   23 1
    25   14   24 1
    26   14   25 1
    27   14   26 1
    28   16   27 1
    29   16   28 1
    30   16   29 1
@<TRIPOS>PROPERTY_DATA
  Total_Score	| 2.5681
  Crash		| -0.4703
  Polar		| 1.1683
  FragIndex	| 1
  FragRMSD	| 0.149

