@<TRIPOS>MOLECULE
BindingDB_29217
 28 29 0 0 0
SMALL
NO_CHARGES


@<TRIPOS>ATOM
1    C        -3.5499   -5.3786  -15.5982  C     
2    C        -2.5489   -5.3000  -16.5662  C     
3    C        -2.0761   -6.4695  -17.1619  C     
4    C        -2.5754   -7.7303  -16.7814  C     
5    C        -3.6391   -7.8383  -15.8188  C     
6    C        -4.1167   -6.6237  -15.2181  C     
7    C        -5.1618   -6.6885  -14.2612  C     
8    N        -4.2579   -9.0528  -15.4321  N     
9    C        -5.2350   -9.0458  -14.4964  C     
10   C        -5.6697   -7.8899  -13.9337  C     
11   O        -5.7751  -10.0681  -14.0853  O     
12   C        -5.7270   -5.4935  -13.6254  C     
13   C        -3.8736  -10.3227  -16.0280  C     
14   O        -2.0535   -8.7996  -17.4653  O     
15   C        -0.7907   -9.2862  -16.9764  C     
16   H        -3.8714   -4.4975  -15.1949  H     
17   H        -2.1634   -4.3946  -16.8477  H     
18   H        -1.3534   -6.3908  -17.8789  H     
19   H        -6.4029   -7.9432  -13.2563  H     
20   H        -4.9450   -4.9595  -13.0851  H     
21   H        -6.5241   -5.7086  -12.9088  H     
22   H        -6.1502   -4.8391  -14.3887  H     
23   H        -3.9560  -10.2887  -17.1107  H     
24   H        -4.4743  -11.1787  -15.7317  H     
25   H        -2.8404  -10.5608  -15.7629  H     
26   H         0.0056   -8.5559  -17.1417  H     
27   H        -0.5261  -10.1808  -17.5360  H     
28   H        -0.8459   -9.5375  -15.9166  H     
@<TRIPOS>BOND
     1    1    2 1
     2    1    6 2
     3    2    3 2
     4    3    4 1
     5    4    5 2
     6    4   14 1
     7    5    6 1
     8    5    8 1
     9    6    7 1
    10    7   10 2
    11    7   12 1
    12    8    9 1
    13    8   13 1
    14    9   10 1
    15    9   11 2
    16   14   15 1
    17    1   16 1
    18    2   17 1
    19    3   18 1
    20   10   19 1
    21   12   20 1
    22   12   21 1
    23   12   22 1
    24   13   23 1
    25   13   24 1
    26   13   25 1
    27   15   26 1
    28   15   27 1
    29   15   28 1
@<TRIPOS>PROPERTY_DATA
  Total_Score	| 2.9053
  Crash		| -0.7050
  Polar		| 1.1170
  FragIndex	| 1
  FragRMSD	| 0.604

