@<TRIPOS>MOLECULE
BindingDB_29228
 37 38 0 0 0
SMALL
NO_CHARGES


@<TRIPOS>ATOM
1    C        -3.4576   -5.5316  -15.1135  C     
2    C        -2.0519   -5.5658  -15.2819  C     
3    C        -1.3707   -6.7996  -15.2720  C     
4    C        -2.1116   -7.9973  -15.3370  C     
5    C        -3.4915   -7.9641  -15.0519  C     
6    C        -4.1812   -6.7311  -14.8447  C     
7    C        -5.5303   -6.8157  -14.3804  C     
8    N        -4.1664   -9.1434  -14.8995  N     
9    C        -5.4245   -9.1834  -14.4879  C     
10   C        -6.1033   -8.0351  -14.2170  C     
11   O        -5.9484  -10.2753  -14.3288  O     
12   C        -6.2940   -5.6356  -13.9680  C     
13   O        -1.4698   -9.1816  -15.5968  O     
14   C        -1.0733   -9.2874  -16.9812  C     
15   O        -1.3768   -4.4128  -15.5914  O     
16   C        -0.3160   -4.0555  -14.6973  C     
17   O        -4.0632   -4.3032  -15.1679  O     
18   C        -4.3242   -3.8608  -16.5138  C     
19   O        -0.0023   -6.8358  -15.1468  O     
20   C         0.3959   -7.4133  -13.8785  C     
21   H        -3.6996   -9.9793  -15.0612  H     
22   H        -7.0359   -8.1151  -13.8768  H     
23   H        -5.7129   -5.0474  -13.2552  H     
24   H        -7.2429   -5.8750  -13.4809  H     
25   H        -6.5294   -5.0232  -14.8383  H     
26   H        -1.9413   -9.2615  -17.6469  H     
27   H        -0.5646  -10.2387  -17.1277  H     
28   H        -0.3765   -8.4925  -17.2647  H     
29   H        -0.6466   -4.0442  -13.6554  H     
30   H         0.0239   -3.0532  -14.9579  H     
31   H         0.5283   -4.7367  -14.8106  H     
32   H        -3.3996   -3.7531  -17.0846  H     
33   H        -4.8076   -2.8851  -16.4652  H     
34   H        -4.9927   -4.5470  -17.0403  H     
35   H        -0.0675   -6.8995  -13.0288  H     
36   H         1.4748   -7.3218  -13.7681  H     
37   H         0.1500   -8.4767  -13.8274  H     
@<TRIPOS>BOND
     1    1    2 1
     2    1    6 2
     3    1   17 1
     4    2    3 2
     5    2   15 1
     6    3    4 1
     7    3   19 1
     8    4    5 2
     9    4   13 1
    10    5    6 1
    11    5    8 1
    12    6    7 1
    13    7   10 2
    14    7   12 1
    15    8    9 1
    16    9   10 1
    17    9   11 2
    18   13   14 1
    19   15   16 1
    20   17   18 1
    21   19   20 1
    22    8   21 1
    23   10   22 1
    24   12   23 1
    25   12   24 1
    26   12   25 1
    27   14   26 1
    28   14   27 1
    29   14   28 1
    30   16   29 1
    31   16   30 1
    32   16   31 1
    33   18   32 1
    34   18   33 1
    35   18   34 1
    36   20   35 1
    37   20   36 1
    38   20   37 1
@<TRIPOS>PROPERTY_DATA
  Total_Score	| 2.9503
  Crash		| -0.9730
  Polar		| 1.5755
  FragIndex	| 1
  FragRMSD	| 0.883

