@<TRIPOS>MOLECULE
BindingDB_29224
 33 34 0 0 0
SMALL
NO_CHARGES


@<TRIPOS>ATOM
1    C        -4.0195   -5.5552  -15.7426  C     
2    C        -2.8279   -5.4937  -16.4938  C     
3    C        -2.0406   -6.6608  -16.6251  C     
4    C        -2.5044   -7.8966  -16.1133  C     
5    C        -3.6853   -7.9368  -15.3439  C     
6    C        -4.4427   -6.7526  -15.1031  C     
7    C        -5.5753   -6.8584  -14.2450  C     
8    N        -4.1489   -9.1324  -14.8470  N     
9    C        -5.2687   -9.2061  -14.1388  C     
10   C        -5.9468   -8.0775  -13.7939  C     
11   O        -5.7068  -10.3035  -13.8238  O     
12   C        -6.3137   -5.6709  -13.7733  C     
13   O        -1.7572   -9.0298  -16.2928  O     
14   C        -1.8618   -9.6193  -17.5995  C     
15   O        -0.8216   -6.5931  -17.2477  O     
16   O        -2.6062   -4.3097  -17.1576  O     
17   C        -1.2744   -3.8156  -17.3358  C     
18   C         0.2583   -6.3055  -16.3366  C     
19   H        -4.5850   -4.7040  -15.6664  H     
20   H        -3.6760   -9.9608  -15.0428  H     
21   H        -6.7441   -8.1587  -13.1962  H     
22   H        -5.6237   -4.9690  -13.2777  H     
23   H        -7.1096   -5.9060  -13.0443  H     
24   H        -6.7910   -5.1786  -14.6303  H     
25   H        -2.8650  -10.0206  -17.7661  H     
26   H        -1.1505  -10.4499  -17.6538  H     
27   H        -1.6116   -8.9082  -18.3909  H     
28   H        -0.7201   -3.7877  -16.3931  H     
29   H        -1.3121   -2.8039  -17.7352  H     
30   H        -0.7422   -4.4465  -18.0552  H     
31   H         0.0324   -5.4602  -15.6756  H     
32   H         1.1347   -6.0386  -16.9253  H     
33   H         0.5092   -7.1831  -15.7253  H     
@<TRIPOS>BOND
     1    1    2 1
     2    1    6 2
     3    2    3 2
     4    2   16 1
     5    3    4 1
     6    3   15 1
     7    4    5 2
     8    4   13 1
     9    5    6 1
    10    5    8 1
    11    6    7 1
    12    7   10 2
    13    7   12 1
    14    8    9 1
    15    9   10 1
    16    9   11 2
    17   13   14 1
    18   15   18 1
    19   16   17 1
    20    1   19 1
    21    8   20 1
    22   10   21 1
    23   12   22 1
    24   12   23 1
    25   12   24 1
    26   14   25 1
    27   14   26 1
    28   14   27 1
    29   17   28 1
    30   17   29 1
    31   17   30 1
    32   18   31 1
    33   18   32 1
    34   18   33 1
@<TRIPOS>PROPERTY_DATA
  Total_Score	| 2.6209
  Crash		| -1.3356
  Polar		| 1.0743
  FragIndex	| 1
  FragRMSD	| 0.581

