@<TRIPOS>MOLECULE
BindingDB_29225
 36 37 0 0 0
SMALL
NO_CHARGES


@<TRIPOS>ATOM
1    C        -3.3504   -5.6209  -15.1439  C     
2    C        -1.9638   -5.6608  -15.3537  C     
3    C        -1.3221   -6.9081  -15.4287  C     
4    C        -2.0897   -8.0869  -15.5889  C     
5    C        -3.4966   -8.0694  -15.3261  C     
6    C        -4.1057   -6.8126  -14.9952  C     
7    C        -5.4244   -6.8050  -14.4733  C     
8    N        -4.3098   -9.2207  -15.2735  N     
9    C        -5.4907   -9.1675  -14.6223  C     
10   C        -6.0365   -7.9845  -14.2319  C     
11   O        -6.1442  -10.1757  -14.3744  O     
12   C        -6.1125   -5.5639  -14.1003  C     
13   O        -1.4020   -9.2433  -15.8673  O     
14   C        -0.8847   -9.3212  -17.2143  C     
15   O         0.0400   -6.9634  -15.2467  O     
16   O        -1.2691   -4.4952  -15.5472  O     
17   C        -0.7158   -3.9027  -14.3642  C     
18   C         0.3758   -7.4085  -13.9094  C     
19   C        -3.9390  -10.4517  -15.9527  C     
20   H        -3.7824   -4.7019  -15.0311  H     
21   H        -6.9354   -7.9965  -13.7985  H     
22   H        -5.5381   -5.0372  -13.3360  H     
23   H        -7.1174   -5.7217  -13.6995  H     
24   H        -6.2145   -4.9228  -14.9785  H     
25   H        -1.6551   -9.1214  -17.9652  H     
26   H        -0.5034  -10.3290  -17.3789  H     
27   H        -0.0584   -8.6226  -17.3600  H     
28   H        -1.4752   -3.7514  -13.5927  H     
29   H        -0.3067   -2.9294  -14.6341  H     
30   H         0.0986   -4.5098  -13.9636  H     
31   H        -0.1416   -6.8273  -13.1385  H     
32   H         1.4456   -7.2861  -13.7499  H     
33   H         0.1406   -8.4675  -13.7735  H     
34   H        -3.5728  -10.2338  -16.9563  H     
35   H        -4.7677  -11.1484  -16.0988  H     
36   H        -3.1721  -10.9749  -15.3798  H     
@<TRIPOS>BOND
     1    1    2 1
     2    1    6 2
     3    2    3 2
     4    2   16 1
     5    3    4 1
     6    3   15 1
     7    4    5 2
     8    4   13 1
     9    5    6 1
    10    5    8 1
    11    6    7 1
    12    7   10 2
    13    7   12 1
    14    8    9 1
    15    8   19 1
    16    9   10 1
    17    9   11 2
    18   13   14 1
    19   15   18 1
    20   16   17 1
    21    1   20 1
    22   10   21 1
    23   12   22 1
    24   12   23 1
    25   12   24 1
    26   14   25 1
    27   14   26 1
    28   14   27 1
    29   17   28 1
    30   17   29 1
    31   17   30 1
    32   18   31 1
    33   18   32 1
    34   18   33 1
    35   19   34 1
    36   19   35 1
    37   19   36 1
@<TRIPOS>PROPERTY_DATA
  Total_Score	| 3.3216
  Crash		| -0.8093
  Polar		| 1.4813
  FragIndex	| 1
  FragRMSD	| 0.923

