@<TRIPOS>MOLECULE
BindingDB_29212
 24 26 0 0 0
SMALL
NO_CHARGES


@<TRIPOS>ATOM
1    C        -3.5807   -5.6093  -15.6082  C     
2    C        -2.5184   -5.6931  -16.5310  C     
3    C        -2.0869   -6.9568  -16.9636  C     
4    C        -2.6888   -8.1129  -16.4945  C     
5    C        -3.7534   -8.0454  -15.5791  C     
6    C        -4.2217   -6.7794  -15.1139  C     
7    C        -5.2982   -6.7803  -14.1855  C     
8    N        -4.3461   -9.1884  -15.1241  N     
9    C        -5.3438   -9.1526  -14.2492  C     
10   C        -5.8229   -7.9641  -13.7794  C     
11   O        -5.8273  -10.2112  -13.8798  O     
12   O        -1.1045   -7.2269  -17.8429  O     
13   C        -0.9888   -8.6562  -17.7058  C     
14   O        -2.1317   -9.2153  -17.0324  O     
15   C        -5.8536   -5.5320  -13.6624  C     
16   H        -3.8772   -4.6800  -15.3054  H     
17   H        -2.0665   -4.8470  -16.8830  H     
18   H        -4.0263  -10.0476  -15.4429  H     
19   H        -6.5766   -7.9853  -13.1285  H     
20   H        -0.8923   -9.1062  -18.6929  H     
21   H        -0.0856   -8.8859  -17.1306  H     
22   H        -5.0795   -4.9810  -13.1263  H     
23   H        -6.6868   -5.6834  -12.9710  H     
24   H        -6.2166   -4.9146  -14.4857  H     
@<TRIPOS>BOND
     1    1    2 1
     2    1    6 2
     3    2    3 2
     4    3    4 1
     5    3   12 1
     6    4    5 2
     7    4   14 1
     8    5    6 1
     9    5    8 1
    10    6    7 1
    11    7   10 2
    12    7   15 1
    13    8    9 1
    14    9   10 1
    15    9   11 2
    16   12   13 1
    17   13   14 1
    18    1   16 1
    19    2   17 1
    20    8   18 1
    21   10   19 1
    22   13   20 1
    23   13   21 1
    24   15   22 1
    25   15   23 1
    26   15   24 1
@<TRIPOS>PROPERTY_DATA
  Total_Score	| 2.5183
  Crash		| -0.3793
  Polar		| 1.1617
  FragIndex	| 1
  FragRMSD	| 0.492

