@<TRIPOS>MOLECULE
BindingDB_29226
 33 34 0 0 0
SMALL
NO_CHARGES


@<TRIPOS>ATOM
1    C        -3.7602   -5.5442  -15.9808  C     
2    C        -2.6989   -5.6609  -16.9105  C     
3    C        -2.2030   -6.9285  -17.2600  C     
4    C        -2.7184   -8.1046  -16.6807  C     
5    C        -3.7347   -7.9748  -15.7087  C     
6    C        -4.2731   -6.7069  -15.3214  C     
7    C        -5.3162   -6.7280  -14.3358  C     
8    N        -4.2583   -9.1180  -15.1669  N     
9    C        -5.2400   -9.0954  -14.2798  C     
10   C        -5.7612   -7.9166  -13.8552  C     
11   O        -5.6568  -10.1630  -13.8487  O     
12   C        -5.9219   -5.5123  -13.7919  C     
13   O        -2.3836   -9.3839  -17.0827  O     
14   C        -1.1207   -9.6855  -17.6952  C     
15   O        -2.2580   -4.5628  -17.6010  O     
16   C        -0.9116   -4.1358  -17.3048  C     
17   O        -4.4323   -4.3469  -15.8764  O     
18   C        -3.7357   -3.2038  -15.3514  C     
19   H        -1.4969   -6.9874  -17.9996  H     
20   H        -3.9149   -9.9801  -15.4555  H     
21   H        -6.4934   -7.9478  -13.1801  H     
22   H        -5.1410   -4.8520  -13.4070  H     
23   H        -6.6206   -5.6932  -12.9691  H     
24   H        -6.4849   -5.0034  -14.5728  H     
25   H        -1.0207   -9.1728  -18.6494  H     
26   H        -1.0718  -10.7594  -17.8837  H     
27   H        -0.2970   -9.4174  -17.0316  H     
28   H        -0.7920   -3.9428  -16.2360  H     
29   H        -0.7139   -3.2034  -17.8489  H     
30   H        -0.1839   -4.8834  -17.6312  H     
31   H        -2.9664   -3.4676  -14.6241  H     
32   H        -4.4681   -2.5724  -14.8515  H     
33   H        -3.2967   -2.6253  -16.1697  H     
@<TRIPOS>BOND
     1    1    2 1
     2    1    6 2
     3    1   17 1
     4    2    3 2
     5    2   15 1
     6    3    4 1
     7    4    5 2
     8    4   13 1
     9    5    6 1
    10    5    8 1
    11    6    7 1
    12    7   10 2
    13    7   12 1
    14    8    9 1
    15    9   10 1
    16    9   11 2
    17   13   14 1
    18   15   16 1
    19   17   18 1
    20    3   19 1
    21    8   20 1
    22   10   21 1
    23   12   22 1
    24   12   23 1
    25   12   24 1
    26   14   25 1
    27   14   26 1
    28   14   27 1
    29   16   28 1
    30   16   29 1
    31   16   30 1
    32   18   31 1
    33   18   32 1
    34   18   33 1
@<TRIPOS>PROPERTY_DATA
  Total_Score	| 3.8266
  Crash		| -0.3228
  Polar		| 1.1213
  FragIndex	| 1
  FragRMSD	| 0.774

