@<TRIPOS>MOLECULE
BindingDB_29229
 40 41 0 0 0
SMALL
NO_CHARGES


@<TRIPOS>ATOM
1    C        -3.3918   -5.5836  -15.1977  C     
2    C        -1.9900   -5.6387  -15.3661  C     
3    C        -1.3459   -6.8885  -15.3597  C     
4    C        -2.1092   -8.0636  -15.5409  C     
5    C        -3.5182   -8.0350  -15.3033  C     
6    C        -4.1348   -6.7807  -14.9686  C     
7    C        -5.4143   -6.8162  -14.3354  C     
8    N        -4.3147   -9.1960  -15.2532  N     
9    C        -5.4575   -9.1754  -14.5395  C     
10   C        -5.9912   -8.0133  -14.0837  C     
11   O        -6.0815  -10.2009  -14.2860  O     
12   C        -6.0848   -5.6226  -13.8063  C     
13   O        -1.4287   -9.2307  -15.7916  O     
14   C        -0.9207   -9.3347  -17.1405  C     
15   O        -1.2602   -4.4767  -15.3890  O     
16   C        -0.7717   -4.0988  -16.6940  C     
17   O        -3.9523   -4.3343  -15.1319  O     
18   C        -4.5789   -3.9152  -16.3594  C     
19   O         0.0139   -6.9441  -15.1681  O     
20   C         0.3546   -7.4213  -13.8392  C     
21   C        -3.9824  -10.3915  -16.0133  C     
22   H        -6.8508   -8.0575  -13.5764  H     
23   H        -5.4005   -5.0664  -13.1646  H     
24   H        -6.9680   -5.8426  -13.2008  H     
25   H        -6.4177   -4.9873  -14.6285  H     
26   H        -1.6962   -9.1521  -17.8855  H     
27   H        -0.5314  -10.3403  -17.2888  H     
28   H        -0.1068   -8.6265  -17.3108  H     
29   H        -0.0358   -4.8148  -17.0680  H     
30   H        -0.2762   -3.1320  -16.6015  H     
31   H        -1.5751   -4.0073  -17.4284  H     
32   H        -3.8442   -3.8001  -17.1568  H     
33   H        -5.0421   -2.9432  -16.1892  H     
34   H        -5.3519   -4.6167  -16.6898  H     
35   H        -0.1253   -6.8226  -13.0527  H     
36   H         1.4310   -7.3432  -13.6979  H     
37   H         0.0922   -8.4745  -13.7063  H     
38   H        -3.6055  -10.1259  -17.0015  H     
39   H        -4.8416  -11.0413  -16.2019  H     
40   H        -3.2386  -10.9798  -15.4709  H     
@<TRIPOS>BOND
     1    1    2 1
     2    1    6 2
     3    1   17 1
     4    2    3 2
     5    2   15 1
     6    3    4 1
     7    3   19 1
     8    4    5 2
     9    4   13 1
    10    5    6 1
    11    5    8 1
    12    6    7 1
    13    7   10 2
    14    7   12 1
    15    8    9 1
    16    8   21 1
    17    9   10 1
    18    9   11 2
    19   13   14 1
    20   15   16 1
    21   17   18 1
    22   19   20 1
    23   10   22 1
    24   12   23 1
    25   12   24 1
    26   12   25 1
    27   14   26 1
    28   14   27 1
    29   14   28 1
    30   16   29 1
    31   16   30 1
    32   16   31 1
    33   18   32 1
    34   18   33 1
    35   18   34 1
    36   20   35 1
    37   20   36 1
    38   20   37 1
    39   21   38 1
    40   21   39 1
    41   21   40 1
@<TRIPOS>PROPERTY_DATA
  Total_Score	| 4.8862
  Crash		| -0.7159
  Polar		| 1.5605
  FragIndex	| 1
  FragRMSD	| 0.481

