@<TRIPOS>MOLECULE
BindingDB_29213
 27 29 0 0 0
SMALL
NO_CHARGES


@<TRIPOS>ATOM
1    C        -3.3168   -5.5432  -15.3171  C     
2    C        -2.1399   -5.5780  -16.0820  C     
3    C        -1.6667   -6.8140  -16.5310  C     
4    C        -2.3368   -7.9922  -16.2270  C     
5    C        -3.5380   -8.0007  -15.4577  C     
6    C        -4.0287   -6.7320  -14.9930  C     
7    C        -5.2148   -6.7106  -14.2182  C     
8    N        -4.2629   -9.1683  -15.1416  N     
9    C        -5.3865   -9.0707  -14.4013  C     
10   C        -5.8457   -7.8720  -13.9472  C     
11   O        -6.0514  -10.0538  -14.0980  O     
12   O        -0.5600   -7.0131  -17.2666  O     
13   C        -0.6962   -8.4035  -17.6010  C     
14   O        -1.6551   -9.0386  -16.7440  O     
15   C        -5.7809   -5.4631  -13.6887  C     
16   C        -3.8136  -10.4648  -15.6125  C     
17   H        -3.6375   -4.6260  -15.0022  H     
18   H        -1.6346   -4.7172  -16.3065  H     
19   H        -6.6844   -7.8640  -13.4042  H     
20   H        -1.0247   -8.5020  -18.6405  H     
21   H         0.2715   -8.8988  -17.4972  H     
22   H        -5.0481   -4.9643  -13.0527  H     
23   H        -6.6820   -5.6073  -13.0900  H     
24   H        -6.0398   -4.7983  -14.5144  H     
25   H        -3.7644  -10.4756  -16.7010  H     
26   H        -4.4542  -11.2856  -15.3417  H     
27   H        -2.8355  -10.6898  -15.1908  H     
@<TRIPOS>BOND
     1    1    2 1
     2    1    6 2
     3    2    3 2
     4    3    4 1
     5    3   12 1
     6    4    5 2
     7    4   14 1
     8    5    6 1
     9    5    8 1
    10    6    7 1
    11    7   10 2
    12    7   15 1
    13    8    9 1
    14    8   16 1
    15    9   10 1
    16    9   11 2
    17   12   13 1
    18   13   14 1
    19    1   17 1
    20    2   18 1
    21   10   19 1
    22   13   20 1
    23   13   21 1
    24   15   22 1
    25   15   23 1
    26   15   24 1
    27   16   25 1
    28   16   26 1
    29   16   27 1
@<TRIPOS>PROPERTY_DATA
  Total_Score	| 0.9648
  Crash		| -1.4554
  Polar		| 1.0677
  FragIndex	| 1
  FragRMSD	| 0.370

