@<TRIPOS>MOLECULE
BindingDB_29219
 32 33 0 0 0
SMALL
NO_CHARGES


@<TRIPOS>ATOM
1    C        -3.3397   -5.6659  -14.3830  C     
2    C        -1.9484   -5.6996  -14.5085  C     
3    C        -1.3129   -6.8793  -14.9103  C     
4    C        -2.0828   -7.9871  -15.3398  C     
5    C        -3.4990   -8.0162  -15.1189  C     
6    C        -4.1240   -6.8251  -14.6107  C     
7    C        -5.5007   -6.8542  -14.2787  C     
8    N        -4.3121   -9.1651  -15.2781  N     
9    C        -5.5592   -9.1713  -14.7614  C     
10   C        -6.1515   -8.0345  -14.3110  C     
11   O        -6.2308  -10.1948  -14.6754  O     
12   C        -6.2417   -5.6531  -13.8740  C     
13   O        -1.3759   -9.0522  -15.8381  O     
14   C        -0.8643   -8.8536  -17.1732  C     
15   O         0.0575   -6.9331  -14.8143  O     
16   C         0.4925   -7.6420  -13.6363  C     
17   C        -3.8439  -10.3532  -15.9720  C     
18   H        -3.7530   -4.7977  -14.0396  H     
19   H        -1.3937   -4.8822  -14.2423  H     
20   H        -7.1090   -8.0773  -14.0355  H     
21   H        -5.8271   -5.2513  -12.9489  H     
22   H        -7.3061   -5.8306  -13.6994  H     
23   H        -6.1663   -4.8960  -14.6573  H     
24   H        -1.6697   -8.6729  -17.8891  H     
25   H        -0.3373   -9.7605  -17.4687  H     
26   H        -0.1569   -8.0202  -17.2135  H     
27   H         0.0370   -7.2446  -12.7252  H     
28   H         1.5707   -7.5236  -13.5426  H     
29   H         0.2728   -8.7098  -13.7150  H     
30   H        -3.4547  -10.0799  -16.9521  H     
31   H        -4.6126  -11.1025  -16.1674  H     
32   H        -3.0684  -10.8442  -15.3832  H     
@<TRIPOS>BOND
     1    1    2 1
     2    1    6 2
     3    2    3 2
     4    3    4 1
     5    3   15 1
     6    4    5 2
     7    4   13 1
     8    5    6 1
     9    5    8 1
    10    6    7 1
    11    7   10 2
    12    7   12 1
    13    8    9 1
    14    8   17 1
    15    9   10 1
    16    9   11 2
    17   13   14 1
    18   15   16 1
    19    1   18 1
    20    2   19 1
    21   10   20 1
    22   12   21 1
    23   12   22 1
    24   12   23 1
    25   14   24 1
    26   14   25 1
    27   14   26 1
    28   16   27 1
    29   16   28 1
    30   16   29 1
    31   17   30 1
    32   17   31 1
    33   17   32 1
@<TRIPOS>PROPERTY_DATA
  Total_Score	| 3.8676
  Crash		| -0.5821
  Polar		| 1.6528
  FragIndex	| 1
  FragRMSD	| 0.744

