@<TRIPOS>MOLECULE
BindingDB_29223
 32 33 0 0 0
SMALL
NO_CHARGES


@<TRIPOS>ATOM
1    C        -3.5055   -5.5134  -15.4368  C     
2    C        -2.3940   -5.5881  -16.3057  C     
3    C        -2.0636   -6.7933  -16.9402  C     
4    C        -2.7482   -7.9647  -16.5853  C     
5    C        -3.6879   -7.9408  -15.5296  C     
6    C        -4.2037   -6.6953  -15.0548  C     
7    C        -5.4248   -6.7580  -14.3230  C     
8    N        -4.1975   -9.1329  -15.0239  N     
9    C        -5.4271   -9.1304  -14.4878  C     
10   C        -6.0346   -7.9571  -14.1524  C     
11   O        -5.9897  -10.1771  -14.1888  O     
12   C        -6.1654   -5.5599  -13.9251  C     
13   O        -2.7797   -9.0908  -17.3602  O     
14   C        -1.6042   -9.6940  -17.8816  C     
15   O        -3.8484   -4.2867  -14.9419  O     
16   C        -4.5676   -3.4282  -15.8498  C     
17   C        -3.3148  -10.2824  -14.8701  C     
18   H        -1.8811   -4.7401  -16.5560  H     
19   H        -1.3602   -6.8042  -17.6822  H     
20   H        -6.9370   -8.0063  -13.7342  H     
21   H        -5.5959   -4.9263  -13.2062  H     
22   H        -7.1119   -5.7859  -13.4256  H     
23   H        -6.4233   -5.0007  -14.8225  H     
24   H        -0.7601   -9.7810  -17.1987  H     
25   H        -1.2595   -9.1191  -18.7395  H     
26   H        -1.8590  -10.6988  -18.2245  H     
27   H        -5.2069   -3.9559  -16.5646  H     
28   H        -3.8644   -2.7968  -16.3991  H     
29   H        -5.1904   -2.7720  -15.2347  H     
30   H        -3.4016  -10.9451  -15.7333  H     
31   H        -3.5192  -10.8312  -13.9540  H     
32   H        -2.2419   -9.9610  -14.8692  H     
@<TRIPOS>BOND
     1    1    2 1
     2    1    6 2
     3    1   15 1
     4    2    3 2
     5    3    4 1
     6    4    5 2
     7    4   13 1
     8    5    6 1
     9    5    8 1
    10    6    7 1
    11    7   10 2
    12    7   12 1
    13    8    9 1
    14    8   17 1
    15    9   10 1
    16    9   11 2
    17   13   14 1
    18   15   16 1
    19    2   18 1
    20    3   19 1
    21   10   20 1
    22   12   21 1
    23   12   22 1
    24   12   23 1
    25   14   24 1
    26   14   25 1
    27   14   26 1
    28   16   27 1
    29   16   28 1
    30   16   29 1
    31   17   30 1
    32   17   31 1
    33   17   32 1
@<TRIPOS>PROPERTY_DATA
  Total_Score	| 3.6773
  Crash		| -0.5729
  Polar		| 1.1845
  FragIndex	| 1
  FragRMSD	| 0.670

