@<TRIPOS>MOLECULE
BindingDB_29220
 29 30 0 0 0
SMALL
NO_CHARGES


@<TRIPOS>ATOM
1    C        -3.5571   -5.5275  -15.6109  C     
2    C        -2.5004   -5.5445  -16.5487  C     
3    C        -2.0503   -6.8006  -17.0239  C     
4    C        -2.6207   -7.9938  -16.5790  C     
5    C        -3.6949   -7.9560  -15.6623  C     
6    C        -4.1741   -6.7172  -15.1527  C     
7    C        -5.2313   -6.7528  -14.2015  C     
8    N        -4.2807   -9.1189  -15.2324  N     
9    C        -5.2582   -9.1212  -14.3346  C     
10   C        -5.7351   -7.9520  -13.8201  C     
11   O        -5.7324  -10.1966  -13.9794  O     
12   C        -5.7916   -5.5339  -13.6188  C     
13   O        -2.1419   -9.1807  -17.0725  O     
14   C        -0.7163   -9.3163  -16.9223  C     
15   O        -1.9881   -4.3097  -16.8881  O     
16   C        -1.1944   -4.1154  -18.0699  C     
17   H        -3.8676   -4.6177  -15.2612  H     
18   H        -1.2844   -6.8458  -17.6989  H     
19   H        -3.9687   -9.9642  -15.5940  H     
20   H        -6.4767   -7.9986  -13.1562  H     
21   H        -5.0093   -4.9760  -13.1032  H     
22   H        -6.5831   -5.7279  -12.8906  H     
23   H        -6.2165   -4.9083  -14.4036  H     
24   H        -0.1638   -8.5098  -17.4156  H     
25   H        -0.4168  -10.2579  -17.3825  H     
26   H        -0.4466   -9.3437  -15.8631  H     
27   H        -0.2169   -4.6012  -17.9641  H     
28   H        -1.0436   -3.0498  -18.2032  H     
29   H        -1.7018   -4.5091  -18.9556  H     
@<TRIPOS>BOND
     1    1    2 1
     2    1    6 2
     3    2    3 2
     4    2   15 1
     5    3    4 1
     6    4    5 2
     7    4   13 1
     8    5    6 1
     9    5    8 1
    10    6    7 1
    11    7   10 2
    12    7   12 1
    13    8    9 1
    14    9   10 1
    15    9   11 2
    16   13   14 1
    17   15   16 1
    18    1   17 1
    19    3   18 1
    20    8   19 1
    21   10   20 1
    22   12   21 1
    23   12   22 1
    24   12   23 1
    25   14   24 1
    26   14   25 1
    27   14   26 1
    28   16   27 1
    29   16   28 1
    30   16   29 1
@<TRIPOS>PROPERTY_DATA
  Total_Score	| 3.9288
  Crash		| -0.5888
  Polar		| 1.1498
  FragIndex	| 1
  FragRMSD	| 0.515

