@<TRIPOS>MOLECULE
BindingDB_29218
 29 30 0 0 0
SMALL
NO_CHARGES


@<TRIPOS>ATOM
1    C        -3.7160   -5.4178  -15.2771  C     
2    C        -2.4722   -5.3293  -15.9233  C     
3    C        -1.6981   -6.4910  -16.1511  C     
4    C        -2.2425   -7.7556  -15.8224  C     
5    C        -3.5073   -7.8488  -15.1982  C     
6    C        -4.2440   -6.6730  -14.8767  C     
7    C        -5.4690   -6.8276  -14.1715  C     
8    N        -4.0517   -9.0687  -14.8835  N     
9    C        -5.2128   -9.1819  -14.2440  C     
10   C        -5.9100   -8.0736  -13.8689  C     
11   O        -5.6475  -10.3023  -14.0177  O     
12   C        -6.2570   -5.6685  -13.7596  C     
13   O        -1.5180   -8.8974  -16.0463  O     
14   C        -1.3710   -9.2072  -17.4455  C     
15   O        -0.4473   -6.4688  -16.7184  O     
16   C         0.2475   -5.1970  -16.7391  C     
17   H        -4.2230   -4.5476  -15.1055  H     
18   H        -2.1191   -4.4150  -16.2019  H     
19   H        -3.5852   -9.8826  -15.1520  H     
20   H        -6.7597   -8.2078  -13.3654  H     
21   H        -5.6483   -5.0267  -13.1261  H     
22   H        -7.1604   -5.9293  -13.1935  H     
23   H        -6.5723   -5.1169  -14.6447  H     
24   H        -2.3543   -9.3228  -17.9375  H     
25   H        -0.8253  -10.1556  -17.5224  H     
26   H        -0.7918   -8.4216  -17.9509  H     
27   H        -0.1970   -4.5343  -17.5036  H     
28   H         1.2891   -5.3672  -17.0295  H     
29   H         0.2341   -4.6913  -15.7548  H     
@<TRIPOS>BOND
     1    1    2 1
     2    1    6 2
     3    2    3 2
     4    3    4 1
     5    3   15 1
     6    4    5 2
     7    4   13 1
     8    5    6 1
     9    5    8 1
    10    6    7 1
    11    7   10 2
    12    7   12 1
    13    8    9 1
    14    9   10 1
    15    9   11 2
    16   13   14 1
    17   15   16 1
    18    1   17 1
    19    2   18 1
    20    8   19 1
    21   10   20 1
    22   12   21 1
    23   12   22 1
    24   12   23 1
    25   14   24 1
    26   14   25 1
    27   14   26 1
    28   16   27 1
    29   16   28 1
    30   16   29 1
@<TRIPOS>PROPERTY_DATA
  Total_Score	| 2.4653
  Crash		| -0.5444
  Polar		| 1.0404
  FragIndex	| 1
  FragRMSD	| 0.323

