@<TRIPOS>MOLECULE
BindingDB_29221
 32 33 0 0 0
SMALL
NO_CHARGES


@<TRIPOS>ATOM
1    C        -3.4981   -5.4516  -15.4547  C     
2    C        -2.4490   -5.4405  -16.3863  C     
3    C        -2.0557   -6.6530  -16.9773  C     
4    C        -2.6485   -7.8741  -16.6014  C     
5    C        -3.6404   -7.8981  -15.5729  C     
6    C        -4.1338   -6.6557  -15.0587  C     
7    C        -5.2603   -6.6747  -14.1954  C     
8    N        -4.1615   -9.0830  -15.0227  N     
9    C        -5.2746   -9.0442  -14.2640  C     
10   C        -5.8199   -7.8611  -13.8708  C     
11   O        -5.8039  -10.0652  -13.8339  O     
12   C        -5.8784   -5.4423  -13.6956  C     
13   O        -2.4188   -8.9770  -17.3936  O     
14   C        -1.0656   -9.4036  -17.6433  C     
15   O        -1.8651   -4.2327  -16.6803  O     
16   C        -1.2235   -4.1295  -17.9616  C     
17   C        -3.3716  -10.2963  -15.0506  C     
18   H        -3.7971   -4.5518  -15.0752  H     
19   H        -1.3508   -6.6398  -17.7152  H     
20   H        -6.6287   -7.8849  -13.2876  H     
21   H        -5.1490   -4.8668  -13.1223  H     
22   H        -6.7378   -5.6148  -13.0417  H     
23   H        -6.2244   -4.8386  -14.5370  H     
24   H        -0.4681   -8.6262  -18.1205  H     
25   H        -1.1102  -10.2579  -18.3197  H     
26   H        -0.5696   -9.7301  -16.7286  H     
27   H        -1.0663   -3.0760  -18.1890  H     
28   H        -1.8311   -4.5704  -18.7539  H     
29   H        -0.2504   -4.6201  -17.9388  H     
30   H        -3.4828  -10.8021  -16.0115  H     
31   H        -3.6194  -11.0134  -14.2680  H     
32   H        -2.3277  -10.0320  -14.8806  H     
@<TRIPOS>BOND
     1    1    2 1
     2    1    6 2
     3    2    3 2
     4    2   15 1
     5    3    4 1
     6    4    5 2
     7    4   13 1
     8    5    6 1
     9    5    8 1
    10    6    7 1
    11    7   10 2
    12    7   12 1
    13    8    9 1
    14    8   17 1
    15    9   10 1
    16    9   11 2
    17   13   14 1
    18   15   16 1
    19    1   18 1
    20    3   19 1
    21   10   20 1
    22   12   21 1
    23   12   22 1
    24   12   23 1
    25   14   24 1
    26   14   25 1
    27   14   26 1
    28   16   27 1
    29   16   28 1
    30   16   29 1
    31   17   30 1
    32   17   31 1
    33   17   32 1
@<TRIPOS>PROPERTY_DATA
  Total_Score	| 4.3259
  Crash		| -0.7784
  Polar		| 1.0716
  FragIndex	| 1
  FragRMSD	| 0.589

