@<TRIPOS>MOLECULE
BindingDB_29227
 36 37 0 0 0
SMALL
NO_CHARGES


@<TRIPOS>ATOM
1    C        -3.7197   -5.4394  -15.9631  C     
2    C        -2.7395   -5.4842  -16.9730  C     
3    C        -2.2200   -6.7201  -17.3711  C     
4    C        -2.5918   -7.9119  -16.7361  C     
5    C        -3.5758   -7.9015  -15.6940  C     
6    C        -4.1875   -6.6407  -15.3340  C     
7    C        -5.2720   -6.6837  -14.4008  C     
8    N        -4.0328   -9.0852  -15.0648  N     
9    C        -5.1385   -9.0437  -14.2962  C     
10   C        -5.7176   -7.8750  -13.9465  C     
11   O        -5.6763  -10.0549  -13.8530  O     
12   C        -5.9450   -5.4904  -13.8571  C     
13   O        -2.0511   -9.0603  -17.2795  O     
14   C        -0.6367   -9.2735  -17.0690  C     
15   O        -2.4191   -4.3483  -17.6805  O     
16   C        -1.0299   -3.9564  -17.6638  C     
17   O        -4.3350   -4.2271  -15.7887  O     
18   C        -3.6151   -3.2383  -15.0215  C     
19   C        -3.3152  -10.3502  -15.1561  C     
20   H        -1.5945   -6.7536  -18.1817  H     
21   H        -6.4904   -7.9121  -13.3109  H     
22   H        -5.2074   -4.8541  -13.3560  H     
23   H        -6.7196   -5.7170  -13.1041  H     
24   H        -6.4417   -4.9352  -14.6598  H     
25   H        -0.0363   -8.5433  -17.6163  H     
26   H        -0.3806  -10.2692  -17.4461  H     
27   H        -0.3806   -9.2301  -16.0109  H     
28   H        -0.6881   -3.7747  -16.6384  H     
29   H        -0.9259   -3.0339  -18.2466  H     
30   H        -0.3872   -4.7109  -18.1274  H     
31   H        -3.3336   -3.6164  -14.0294  H     
32   H        -4.2808   -2.3767  -14.8939  H     
33   H        -2.7119   -2.8907  -15.5365  H     
34   H        -3.4328  -10.7801  -16.1524  H     
35   H        -3.6392  -11.1100  -14.4457  H     
36   H        -2.2677  -10.1819  -14.9325  H     
@<TRIPOS>BOND
     1    1    2 1
     2    1    6 2
     3    1   17 1
     4    2    3 2
     5    2   15 1
     6    3    4 1
     7    4    5 2
     8    4   13 1
     9    5    6 1
    10    5    8 1
    11    6    7 1
    12    7   10 2
    13    7   12 1
    14    8    9 1
    15    8   19 1
    16    9   10 1
    17    9   11 2
    18   13   14 1
    19   15   16 1
    20   17   18 1
    21    3   20 1
    22   10   21 1
    23   12   22 1
    24   12   23 1
    25   12   24 1
    26   14   25 1
    27   14   26 1
    28   14   27 1
    29   16   28 1
    30   16   29 1
    31   16   30 1
    32   18   31 1
    33   18   32 1
    34   18   33 1
    35   19   34 1
    36   19   35 1
    37   19   36 1
@<TRIPOS>PROPERTY_DATA
  Total_Score	| 4.2225
  Crash		| -0.8089
  Polar		| 1.0609
  FragIndex	| 1
  FragRMSD	| 0.861

