@<TRIPOS>MOLECULE
BindingDB_50320033
 54 55 0 0 0
SMALL
NO_CHARGES


@<TRIPOS>ATOM
1    N         0.7502   18.2097   15.9765  N     
2    C         0.9330   17.1844   16.8413  C     
3    C         0.5148   15.9396   16.5443  C     
4    C        -0.1323   15.7215   15.3185  C     
5    N        -0.2786   16.7870   14.4773  N     
6    C         0.1557   18.0007   14.7930  C     
7    O         1.1615   19.4198   16.2746  O     
8    O        -0.0143   18.8904   13.9689  O     
9    N        -0.6460   14.5505   14.8701  N     
10   C        -0.6326   13.2734   15.5195  C     
11   C         0.7065   12.5009   15.2917  C     
12   C         0.7077   10.9994   15.7258  C     
13   C         0.2895    9.9708   14.6234  C     
14   C        -0.8571    8.9849   15.0029  C     
15   C        -0.9689    7.7776   14.1930  C     
16   N        -2.0169    6.9708   14.3596  N     
17   O        -0.0624    7.4850   13.4130  O     
18   C        -2.2027    5.6873   13.7323  C     
19   C        -3.7009    5.3869   13.4068  C     
20   C        -4.3904    4.4534   14.3380  C     
21   C        -3.7304    3.2763   14.7705  C     
22   C        -4.3762    2.3228   15.5683  C     
23   C        -5.7292    2.4989   15.9337  C     
24   C        -6.4039    3.6682   15.5062  C     
25   C        -5.7441    4.6342   14.7298  C     
26   S        -6.5410    1.2641   16.8519  S     
27   N        -6.2546    1.3958   18.4986  N     
28   O        -8.1127    1.4217   16.6688  O     
29   O        -6.1589   -0.2042   16.3653  O     
30   H         1.3813   17.3491   17.7125  H     
31   H         0.6576   15.1993   17.1901  H     
32   H         2.0983   19.4899   15.9870  H     
33   H        -1.0910   14.5874   14.0003  H     
34   H        -0.8313   13.3912   16.5890  H     
35   H        -1.4617   12.7043   15.0995  H     
36   H         1.0120   12.5594   14.2332  H     
37   H         1.4895   13.0103   15.8669  H     
38   H         1.7320   10.7575   16.0338  H     
39   H         0.0862   10.8739   16.6168  H     
40   H         0.0083   10.5064   13.7060  H     
41   H         1.1715    9.3716   14.3730  H     
42   H        -0.7073    8.6723   16.0404  H     
43   H        -1.8082    9.5223   14.9633  H     
44   H        -2.6846    7.2470   15.0139  H     
45   H        -1.6282    5.6173   12.7932  H     
46   H        -1.7884    4.9339   14.4160  H     
47   H        -4.2472    6.3335   13.3232  H     
48   H        -3.7396    4.9169   12.4186  H     
49   H        -2.7650    3.0906   14.4701  H     
50   H        -3.8613    1.4878   15.8563  H     
51   H        -7.3877    3.8179   15.7598  H     
52   H        -6.2589    5.4647   14.4272  H     
53   H        -7.0050    1.3085   19.1029  H     
54   H        -5.4700    1.8787   18.7947  H     
@<TRIPOS>BOND
     1    1    2 1
     2    1    6 1
     3    1    7 1
     4    2    3 2
     5    3    4 1
     6    4    5 2
     7    4    9 1
     8    5    6 1
     9    6    8 2
    10    9   10 1
    11   10   11 1
    12   11   12 1
    13   12   13 1
    14   13   14 1
    15   14   15 1
    16   15   16 am
    17   15   17 2
    18   16   18 1
    19   18   19 1
    20   19   20 1
    21   20   21 2
    22   20   25 1
    23   21   22 1
    24   22   23 2
    25   23   24 1
    26   23   26 1
    27   24   25 2
    28   26   27 am
    29   26   28 2
    30   26   29 2
    31    2   30 1
    32    3   31 1
    33    7   32 1
    34    9   33 1
    35   10   34 1
    36   10   35 1
    37   11   36 1
    38   11   37 1
    39   12   38 1
    40   12   39 1
    41   13   40 1
    42   13   41 1
    43   14   42 1
    44   14   43 1
    45   16   44 1
    46   18   45 1
    47   18   46 1
    48   19   47 1
    49   19   48 1
    50   21   49 1
    51   22   50 1
    52   24   51 1
    53   25   52 1
    54   27   53 1
    55   27   54 1
@<TRIPOS>PROPERTY_DATA
  Total_Score	| 6.3406
  Crash		| -1.8716
  Polar		| 2.0426
  FragIndex	| 1
  FragRMSD	| 1.180

