@<TRIPOS>MOLECULE
BindingDB_50329767
 47 49 0 0 0
SMALL
NO_CHARGES


@<TRIPOS>ATOM
1    N        -0.1136   10.1682   14.1859  N     
2    C        -0.4548    9.3957   15.2295  C     
3    N        -1.2878    8.3638   15.0112  N     
4    C        -1.8051    8.0419   13.7980  C     
5    C        -1.4492    8.8510   12.6593  C     
6    C        -0.5758    9.9599   12.9257  C     
7    N        -2.5433    6.9147   13.9875  N     
8    C        -3.8457    4.9029   13.8890  C     
9    C        -5.2409    4.6694   13.9425  C     
10   C        -5.7658    3.5617   14.6365  C     
11   C        -4.9058    2.6665   15.3043  C     
12   C        -3.5180    2.9051   15.2776  C     
13   C        -2.9925    4.0014   14.5683  C     
14   S        -5.5155    1.2607   16.1356  S     
15   O        -4.9086    1.3276   17.6029  O     
16   O        -7.0952    1.1940   16.3078  O     
17   N        -4.8994   -0.1847   15.5351  N     
18   N        -1.8741    8.6119   11.3768  N     
19   O        -1.3015    9.0984   10.3115  O     
20   O        -2.8065    7.9212   11.0903  O     
21   N        -0.2286   10.8975   11.9984  N     
22   C         0.7539   11.9350   12.1288  C     
23   C         0.6086   12.7737   13.3498  C     
24   C         1.5820   12.7384   14.3784  C     
25   C         1.4322   13.5220   15.5378  C     
26   C         0.3093   14.3550   15.6832  C     
27   C        -0.6585   14.4087   14.6648  C     
28   C        -0.5123   13.6221   13.5062  C     
29   C        -3.2737    6.0485   13.1259  C     
30   H        -0.1004    9.5934   16.1649  H     
31   H        -2.5592    6.6230   14.9139  H     
32   H        -5.8891    5.3012   13.4658  H     
33   H        -6.7768    3.4106   14.6431  H     
34   H        -2.8780    2.2782   15.7700  H     
35   H        -1.9788    4.1409   14.5531  H     
36   H        -4.4410   -0.8034   16.1302  H     
37   H        -4.9894   -0.3977   14.5927  H     
38   H        -0.6709   10.8582   11.1402  H     
39   H         1.7424   11.4703   12.0778  H     
40   H         0.6647   12.5890   11.2584  H     
41   H         2.4044   12.1367   14.2946  H     
42   H         2.1395   13.4852   16.2759  H     
43   H         0.1988   14.9232   16.5265  H     
44   H        -1.4697   15.0210   14.7675  H     
45   H        -1.2315   13.6689   12.7796  H     
46   H        -4.0760    6.6258   12.6617  H     
47   H        -2.6153    5.6467   12.3522  H     
@<TRIPOS>BOND
     1    1    2 2
     2    1    6 1
     3    2    3 1
     4    3    4 2
     5    4    5 1
     6    4    7 1
     7    5    6 2
     8    5   18 am
     9    6   21 1
    10    7   29 1
    11    8    9 2
    12    8   13 1
    13    8   29 1
    14    9   10 1
    15   10   11 2
    16   11   12 1
    17   11   14 1
    18   12   13 2
    19   14   15 2
    20   14   16 2
    21   14   17 am
    22   18   19 1
    23   18   20 2
    24   21   22 1
    25   22   23 1
    26   23   24 2
    27   23   28 1
    28   24   25 1
    29   25   26 2
    30   26   27 1
    31   27   28 2
    32    2   30 1
    33    7   31 1
    34    9   32 1
    35   10   33 1
    36   12   34 1
    37   13   35 1
    38   17   36 1
    39   17   37 1
    40   21   38 1
    41   22   39 1
    42   22   40 1
    43   24   41 1
    44   25   42 1
    45   26   43 1
    46   27   44 1
    47   28   45 1
    48   29   46 1
    49   29   47 1
@<TRIPOS>PROPERTY_DATA
  Total_Score	| 3.4268
  Crash		| -1.1484
  Polar		| 1.9078
  FragIndex	| 1
  FragRMSD	| 1.226

