@<TRIPOS>MOLECULE
BindingDB_50329772
 33 34 0 0 0
SMALL
NO_CHARGES


@<TRIPOS>ATOM
1    N        -0.5521    9.6134   14.7547  N     
2    C        -0.9058    8.5702   15.5463  C     
3    N        -1.5078    7.4970   14.9717  N     
4    C        -1.7620    7.4510   13.6529  C     
5    C        -1.4035    8.4968   12.8595  C     
6    C        -0.7965    9.5923   13.4462  C     
7    N        -2.2474    6.3290   13.2143  N     
8    C        -4.1768    4.9722   13.8194  C     
9    C        -3.4492    3.7999   14.1359  C     
10   C        -4.0261    2.7618   14.8970  C     
11   C        -5.3593    2.8579   15.3439  C     
12   C        -6.1058    4.0061   15.0098  C     
13   C        -5.5197    5.0497   14.2680  C     
14   S        -6.0240    1.6162   16.3739  S     
15   O        -5.9351    0.2267   15.6053  O     
16   O        -5.1285    1.3847   17.6675  O     
17   N        -7.6392    1.7724   16.8088  N     
18   N        -1.5934    8.4675   11.5734  N     
19   O        -2.7313    8.7269   11.0827  O     
20   O        -0.7200    8.1995   10.8452  O     
21   O        -0.4548   10.5741   12.8003  O     
22   C        -3.6012    6.0557   12.9655  C     
23   H        -0.1180   10.3861   15.1537  H     
24   H        -0.7243    8.5841   16.5475  H     
25   H        -1.6464    5.6163   13.1270  H     
26   H        -2.4806    3.6966   13.8269  H     
27   H        -3.4751    1.9328   15.1224  H     
28   H        -7.0761    4.0942   15.3194  H     
29   H        -6.0904    5.8660   14.0395  H     
30   H        -8.3005    1.1834   16.4158  H     
31   H        -7.9293    2.5414   17.3205  H     
32   H        -4.2008    6.9690   13.0453  H     
33   H        -3.6765    5.7279   11.9251  H     
@<TRIPOS>BOND
     1    1    2 1
     2    1    6 1
     3    2    3 2
     4    3    4 1
     5    4    5 2
     6    4    7 1
     7    5    6 1
     8    5   18 am
     9    6   21 2
    10    7   22 1
    11    8    9 2
    12    8   13 1
    13    8   22 1
    14    9   10 1
    15   10   11 2
    16   11   12 1
    17   11   14 1
    18   12   13 2
    19   14   15 2
    20   14   16 2
    21   14   17 am
    22   18   19 1
    23   18   20 2
    24    1   23 1
    25    2   24 1
    26    7   25 1
    27    9   26 1
    28   10   27 1
    29   12   28 1
    30   13   29 1
    31   17   30 1
    32   17   31 1
    33   22   32 1
    34   22   33 1
@<TRIPOS>PROPERTY_DATA
  Total_Score	| 4.9868
  Crash		| -0.8607
  Polar		| 3.0954
  FragIndex	| 1
  FragRMSD	| 1.140

