@<TRIPOS>MOLECULE
BindingDB_50320031
 48 49 0 0 0
SMALL
NO_CHARGES


@<TRIPOS>ATOM
1    N        -0.9515   15.0951   14.8748  N     
2    C        -1.0938   14.2133   13.8489  C     
3    C        -0.5459   12.9775   13.9113  C     
4    C         0.1489   12.6277   15.0724  C     
5    N         0.2442   13.5323   16.0800  N     
6    C        -0.2936   14.7399   15.9880  C     
7    O        -1.4862   16.2929   14.7833  O     
8    O        -0.1585   15.5032   16.9309  O     
9    N         0.7672   11.4529   15.3122  N     
10   C         0.8611   10.3166   14.4581  C     
11   C        -0.1849    9.2167   14.8106  C     
12   C        -1.5331    9.3484   14.0526  C     
13   C        -2.3204    8.1308   14.1450  C     
14   N        -2.6971    7.4780   13.0497  N     
15   O        -2.6582    7.7485   15.2599  O     
16   C        -3.5391    6.3240   13.0237  C     
17   C        -2.8421    5.0353   13.5436  C     
18   C        -3.7005    4.1027   14.3327  C     
19   C        -3.1062    3.2346   15.2813  C     
20   C        -3.8836    2.3357   16.0323  C     
21   C        -5.2826    2.3268   15.8927  C     
22   C        -5.8879    3.1728   14.9416  C     
23   C        -5.1010    4.0263   14.1468  C     
24   S        -6.2514    1.2950   16.9007  S     
25   N        -7.7725    1.9379   17.1991  N     
26   O        -6.5079   -0.0147   16.0441  O     
27   O        -5.5055    0.8678   18.2404  O     
28   H        -1.6097   14.4771   13.0406  H     
29   H        -0.6355   12.3360   13.1574  H     
30   H        -0.7983   16.8563   14.3718  H     
31   H         1.2153   11.3643   16.1700  H     
32   H         0.7843   10.6107   13.4054  H     
33   H         1.8676    9.8980   14.6001  H     
34   H         0.2605    8.2452   14.5720  H     
35   H        -0.3710    9.2340   15.8918  H     
36   H        -2.1045   10.1793   14.4716  H     
37   H        -1.3256    9.5812   13.0025  H     
38   H        -2.4351    7.8574   12.1924  H     
39   H        -4.4425    6.5402   13.5911  H     
40   H        -3.8442    6.1603   11.9907  H     
41   H        -2.4398    4.4773   12.6914  H     
42   H        -1.9763    5.3272   14.1521  H     
43   H        -2.0939    3.2563   15.4380  H     
44   H        -3.4209    1.7119   16.6927  H     
45   H        -6.9055    3.1758   14.8192  H     
46   H        -5.5678    4.6042   13.4489  H     
47   H        -8.5506    1.3754   17.0663  H     
48   H        -7.8838    2.9031   17.1963  H     
@<TRIPOS>BOND
     1    1    2 1
     2    1    6 1
     3    1    7 1
     4    2    3 2
     5    3    4 1
     6    4    5 2
     7    4    9 1
     8    5    6 1
     9    6    8 2
    10    9   10 1
    11   10   11 1
    12   11   12 1
    13   12   13 1
    14   13   14 am
    15   13   15 2
    16   14   16 1
    17   16   17 1
    18   17   18 1
    19   18   19 2
    20   18   23 1
    21   19   20 1
    22   20   21 2
    23   21   22 1
    24   21   24 1
    25   22   23 2
    26   24   25 am
    27   24   26 2
    28   24   27 2
    29    2   28 1
    30    3   29 1
    31    7   30 1
    32    9   31 1
    33   10   32 1
    34   10   33 1
    35   11   34 1
    36   11   35 1
    37   12   36 1
    38   12   37 1
    39   14   38 1
    40   16   39 1
    41   16   40 1
    42   17   41 1
    43   17   42 1
    44   19   43 1
    45   20   44 1
    46   22   45 1
    47   23   46 1
    48   25   47 1
    49   25   48 1
@<TRIPOS>PROPERTY_DATA
  Total_Score	| 6.1790
  Crash		| -2.1644
  Polar		| 3.6931
  FragIndex	| 1
  FragRMSD	| 1.307

