@<TRIPOS>MOLECULE
BindingDB_50329768
 50 52 0 0 0
SMALL
NO_CHARGES


@<TRIPOS>ATOM
1    C        -4.3199    4.5383   14.6073  C     
2    C        -3.4788    3.5195   15.1195  C     
3    C        -4.0043    2.4044   15.7853  C     
4    C        -5.3987    2.2878   15.9721  C     
5    C        -6.2524    3.2803   15.4490  C     
6    C        -5.7212    4.3807   14.7537  C     
7    S        -6.0369    0.9942   16.9321  S     
8    O        -5.7557   -0.3211   16.0942  O     
9    O        -5.2659    0.8016   18.3026  O     
10   N        -7.7020    1.0087   17.1551  N     
11   C        -3.7568    5.7837   14.0238  C     
12   N        -1.9785    6.8087   12.6332  N     
13   N        -0.2471    9.8692   14.7110  N     
14   C        -0.8452    8.8457   15.3520  C     
15   N        -1.4102    7.8757   14.6104  N     
16   C        -1.4661    7.9038   13.2574  C     
17   C        -0.9404    9.0295   12.5510  C     
18   C        -0.2358    9.9828   13.3562  C     
19   N         0.4679   11.0299   12.8327  N     
20   C         1.5608   11.7902   13.4073  C     
21   C         2.4639   11.1221   14.3792  C     
22   C         3.3035   10.0749   13.9388  C     
23   C         4.1358    9.4079   14.8503  C     
24   C         4.1395    9.7792   16.2087  C     
25   C         3.3033   10.8207   16.6522  C     
26   C         2.4683   11.4923   15.7414  C     
27   N        -1.0572    9.1458   11.1919  N     
28   O        -0.5801   10.0339   10.5404  O     
29   O        -1.7695    8.3494   10.4403  O     
30   C        -2.4355    5.6033   13.2388  C     
31   H        -2.4632    3.5952   15.0519  H     
32   H        -3.3719    1.7002   16.1666  H     
33   H        -7.2663    3.2246   15.5837  H     
34   H        -6.3651    5.0939   14.4049  H     
35   H        -8.2167    0.2132   16.9428  H     
36   H        -8.1438    1.8236   17.4197  H     
37   H        -4.4871    6.2475   13.3410  H     
38   H        -3.5995    6.4811   14.8519  H     
39   H        -1.9634    6.7972   11.6741  H     
40   H        -0.8388    8.7862   16.3717  H     
41   H         0.3683   11.1816   11.8823  H     
42   H         2.1883   12.1041   12.5444  H     
43   H         1.1425   12.7263   13.8201  H     
44   H         3.3030    9.7938   12.9550  H     
45   H         4.7455    8.6576   14.5229  H     
46   H         4.7574    9.2995   16.8665  H     
47   H         3.3176   11.0932   17.6380  H     
48   H         1.8591   12.2380   16.0888  H     
49   H        -1.6468    5.2243   13.8947  H     
50   H        -2.5933    4.8580   12.4435  H     
@<TRIPOS>BOND
     1    1    2 2
     2    1    6 1
     3    1   11 1
     4    2    3 1
     5    3    4 2
     6    4    5 1
     7    4    7 1
     8    5    6 2
     9    7    8 2
    10    7    9 2
    11    7   10 am
    12   11   30 1
    13   12   16 1
    14   12   30 1
    15   13   14 2
    16   13   18 1
    17   14   15 1
    18   15   16 2
    19   16   17 1
    20   17   18 2
    21   17   27 am
    22   18   19 1
    23   19   20 1
    24   20   21 1
    25   21   22 2
    26   21   26 1
    27   22   23 1
    28   23   24 2
    29   24   25 1
    30   25   26 2
    31   27   28 2
    32   27   29 1
    33    2   31 1
    34    3   32 1
    35    5   33 1
    36    6   34 1
    37   10   35 1
    38   10   36 1
    39   11   37 1
    40   11   38 1
    41   12   39 1
    42   14   40 1
    43   19   41 1
    44   20   42 1
    45   20   43 1
    46   22   44 1
    47   23   45 1
    48   24   46 1
    49   25   47 1
    50   26   48 1
    51   30   49 1
    52   30   50 1
@<TRIPOS>PROPERTY_DATA
  Total_Score	| 5.4166
  Crash		| -1.2253
  Polar		| 2.1724
  FragIndex	| 1
  FragRMSD	| 0.877

