@<TRIPOS>MOLECULE
BindingDB_50329770
 36 37 0 0 0
SMALL
NO_CHARGES


@<TRIPOS>ATOM
1    N        -0.0408   10.0619   14.2522  N     
2    C        -0.5020    9.4184   15.3415  C     
3    N        -1.4025    8.4267   15.1818  N     
4    C        -1.8874    8.0524   13.9701  C     
5    C        -1.4548    8.7542   12.8037  C     
6    C        -0.4574    9.7515   12.9955  C     
7    N        -2.6821    6.9580   14.0863  N     
8    C        -3.8167    4.9002   13.8144  C     
9    C        -5.2282    4.8146   13.8767  C     
10   C        -5.8601    3.8087   14.6312  C     
11   C        -5.0954    2.8664   15.3500  C     
12   C        -3.6882    2.9328   15.2779  C     
13   C        -3.0561    3.9366   14.5190  C     
14   S        -5.8623    1.6989   16.3953  S     
15   O        -5.9859    0.3071   15.6323  O     
16   O        -4.9858    1.4048   17.6877  O     
17   N        -7.4198    2.1141   16.8746  N     
18   N        -2.0349    8.5849   11.5841  N     
19   O        -1.4505    8.9043   10.4626  O     
20   O        -3.2299    8.5493   11.5206  O     
21   O        -0.0375   10.5598   11.9686  O     
22   C         1.3815   10.7597   11.8876  C     
23   C        -3.1464    6.0272   13.1054  C     
24   H        -0.1702    9.6715   16.2734  H     
25   H        -2.8609    6.6965   15.0046  H     
26   H        -5.8090    5.5111   13.4021  H     
27   H        -6.8824    3.7916   14.6758  H     
28   H        -3.1112    2.2704   15.8018  H     
29   H        -2.0336    3.9820   14.5074  H     
30   H        -8.1287    1.4479   16.8610  H     
31   H        -7.6005    3.0071   17.2121  H     
32   H         1.7573   11.2892   12.7659  H     
33   H         1.5919   11.3752   11.0181  H     
34   H         1.9170    9.8102   11.7789  H     
35   H        -3.8561    6.4979   12.4324  H     
36   H        -2.3113    5.6581   12.5063  H     
@<TRIPOS>BOND
     1    1    2 2
     2    1    6 1
     3    2    3 1
     4    3    4 2
     5    4    5 1
     6    4    7 1
     7    5    6 2
     8    5   18 am
     9    6   21 1
    10    7   23 1
    11    8    9 2
    12    8   13 1
    13    8   23 1
    14    9   10 1
    15   10   11 2
    16   11   12 1
    17   11   14 1
    18   12   13 2
    19   14   15 2
    20   14   16 2
    21   14   17 am
    22   18   19 1
    23   18   20 2
    24   21   22 1
    25    2   24 1
    26    7   25 1
    27    9   26 1
    28   10   27 1
    29   12   28 1
    30   13   29 1
    31   17   30 1
    32   17   31 1
    33   22   32 1
    34   22   33 1
    35   22   34 1
    36   23   35 1
    37   23   36 1
@<TRIPOS>PROPERTY_DATA
  Total_Score	| 4.5421
  Crash		| -0.8409
  Polar		| 3.1604
  FragIndex	| 1
  FragRMSD	| 1.204

