@<TRIPOS>MOLECULE
BindingDB_50329765
 39 40 0 0 0
SMALL
NO_CHARGES


@<TRIPOS>ATOM
1    C        -4.2302    4.5973   14.4861  C     
2    C        -3.4102    3.5919   15.0523  C     
3    C        -3.9734    2.4804   15.7018  C     
4    C        -5.3729    2.3772   15.8352  C     
5    C        -6.2063    3.3535   15.2508  C     
6    C        -5.6355    4.4461   14.5760  C     
7    S        -6.0379    1.0959   16.7958  S     
8    O        -5.8717   -0.2060   15.9055  O     
9    O        -5.2134    0.8284   18.1289  O     
10   N        -7.6828    1.1969   17.0891  N     
11   N        -0.5363   10.5840   13.0124  N     
12   C         0.1707    9.7364   13.7899  C     
13   N        -0.1963    8.4373   13.8471  N     
14   C        -1.2614    7.9364   13.1716  C     
15   C        -2.0363    8.8172   12.3672  C     
16   C        -1.6097   10.1719   12.2996  C     
17   Cl       -2.3967   11.3750   11.4067  Cl    
18   N        -1.3791    6.6044   13.3809  N     
19   S         1.5723   10.3037   14.6318  S     
20   C         0.6754   11.0536   16.0043  C     
21   C        -2.3968    5.6716   13.0333  C     
22   C        -3.6255    5.8554   13.9656  C     
23   C        -3.1380    8.3783   11.6630  C     
24   O        -3.1886    8.4611   10.4379  O     
25   H        -2.3915    3.6842   15.0202  H     
26   H        -3.3546    1.7849   16.1362  H     
27   H        -7.2221    3.3019   15.3544  H     
28   H        -6.2578    5.1559   14.1835  H     
29   H        -8.2433    0.4347   16.8770  H     
30   H        -8.0763    2.0515   17.3232  H     
31   H        -0.7090    6.2382   13.9677  H     
32   H         0.0009   11.8239   15.6282  H     
33   H         1.3981   11.4970   16.6856  H     
34   H         0.1047   10.2944   16.5392  H     
35   H        -2.6882    5.7474   11.9853  H     
36   H        -1.9526    4.6750   13.1728  H     
37   H        -4.3621    6.4601   13.4300  H     
38   H        -3.3435    6.4343   14.8548  H     
39   H        -3.9303    8.0230   12.1483  H     
@<TRIPOS>BOND
     1    1    2 2
     2    1    6 1
     3    1   22 1
     4    2    3 1
     5    3    4 2
     6    4    5 1
     7    4    7 1
     8    5    6 2
     9    7    8 2
    10    7    9 2
    11    7   10 am
    12   11   12 2
    13   11   16 1
    14   12   13 1
    15   12   19 1
    16   13   14 2
    17   14   15 1
    18   14   18 1
    19   15   16 2
    20   15   23 1
    21   16   17 1
    22   18   21 1
    23   19   20 1
    24   21   22 1
    25   23   24 2
    26    2   25 1
    27    3   26 1
    28    5   27 1
    29    6   28 1
    30   10   29 1
    31   10   30 1
    32   18   31 1
    33   20   32 1
    34   20   33 1
    35   20   34 1
    36   21   35 1
    37   21   36 1
    38   22   37 1
    39   22   38 1
    40   23   39 1
@<TRIPOS>PROPERTY_DATA
  Total_Score	| 4.8258
  Crash		| -1.7372
  Polar		| 2.5667
  FragIndex	| 1
  FragRMSD	| 1.144

