@<TRIPOS>MOLECULE
BindingDB_50329762
 38 39 0 0 0
SMALL
NO_CHARGES


@<TRIPOS>ATOM
1    C        -5.3340    2.4553   15.8025  C     
2    C        -3.9313    2.5110   15.6910  C     
3    C        -3.3172    3.6030   15.0546  C     
4    C        -4.0901    4.6461   14.4908  C     
5    C        -5.5004    4.5492   14.5554  C     
6    C        -6.1170    3.4671   15.2112  C     
7    S        -6.0650    1.1880   16.7402  S     
8    O        -5.8913   -0.1361   15.8837  O     
9    O        -5.2730    0.8947   18.0864  O     
10   N        -7.7175    1.3048   17.0042  N     
11   C        -2.2833    5.6348   12.9329  C     
12   N        -1.1915    6.5359   13.1357  N     
13   C         0.1675    9.7312   13.8152  C     
14   N        -0.0660    8.4030   13.7031  N     
15   C        -1.1475    7.8909   13.0586  C     
16   C        -2.0610    8.7957   12.4476  C     
17   C        -1.7926   10.1834   12.5727  C     
18   N        -0.6974   10.6023   13.2499  N     
19   S         1.5686   10.3095   14.6563  S     
20   C         0.6700   11.0630   16.0315  C     
21   C        -3.0822    8.3993   11.7395  C     
22   N        -3.9844    8.0672   11.1105  N     
23   Cl       -2.7596   11.4098   11.9103  Cl    
24   C        -3.4201    5.8720   13.9735  C     
25   H        -3.3453    1.7859   16.1131  H     
26   H        -2.2957    3.6529   15.0476  H     
27   H        -6.0900    5.2896   14.1666  H     
28   H        -7.1358    3.4435   15.2823  H     
29   H        -8.3110    0.6630   16.5858  H     
30   H        -8.0848    2.1114   17.3966  H     
31   H        -2.6619    5.6919   11.9116  H     
32   H        -1.8685    4.6326   13.0534  H     
33   H        -0.3971    6.1248   13.5123  H     
34   H         0.0479   11.8854   15.6758  H     
35   H         1.3893   11.4507   16.7526  H     
36   H         0.0433   10.3172   16.5221  H     
37   H        -4.1520    6.5508   13.5304  H     
38   H        -3.0129    6.3909   14.8460  H     
@<TRIPOS>BOND
     1    1    2 1
     2    1    6 2
     3    1    7 1
     4    2    3 2
     5    3    4 1
     6    4    5 2
     7    4   24 1
     8    5    6 1
     9    7    8 2
    10    7    9 2
    11    7   10 am
    12   11   12 1
    13   11   24 1
    14   12   15 1
    15   13   14 1
    16   13   18 2
    17   13   19 1
    18   14   15 2
    19   15   16 1
    20   16   17 2
    21   16   21 1
    22   17   18 1
    23   17   23 1
    24   19   20 1
    25   21   22 3
    26    2   25 1
    27    3   26 1
    28    5   27 1
    29    6   28 1
    30   10   29 1
    31   10   30 1
    32   11   31 1
    33   11   32 1
    34   12   33 1
    35   20   34 1
    36   20   35 1
    37   20   36 1
    38   24   37 1
    39   24   38 1
@<TRIPOS>PROPERTY_DATA
  Total_Score	| 5.6929
  Crash		| -1.4534
  Polar		| 2.7218
  FragIndex	| 1
  FragRMSD	| 1.162

