@<TRIPOS>MOLECULE
BindingDB_50329771
 39 40 0 0 0
SMALL
NO_CHARGES


@<TRIPOS>ATOM
1    N        -0.4272   10.1758   14.5674  N     
2    C        -0.5666    9.1325   15.4128  C     
3    N        -1.2020    8.0196   14.9873  N     
4    C        -1.6722    7.8813   13.7217  C     
5    C        -1.4086    8.9113   12.7663  C     
6    C        -0.8284   10.1083   13.2722  C     
7    N        -2.4396    6.7683   13.5948  N     
8    C        -4.3160    4.2671   13.6117  C     
9    C        -3.5073    3.2352   14.1425  C     
10   C        -4.0083    2.3551   15.1196  C     
11   C        -5.3336    2.4853   15.5786  C     
12   C        -6.1289    3.5466   15.1007  C     
13   C        -5.6232    4.4296   14.1285  C     
14   S        -5.9935    1.3005   16.6679  S     
15   O        -5.7532   -0.1005   15.9591  O     
16   O        -5.1693    1.1385   18.0154  O     
17   N        -7.6515    1.3229   16.9256  N     
18   N        -1.5555    8.7252   11.4242  N     
19   O        -1.5176    9.6833   10.5414  O     
20   O        -1.4471    7.6241   10.9598  O     
21   O        -0.6126   11.2174   12.4970  O     
22   C         0.7657   11.4243   12.1404  C     
23   C        -3.6111    6.5916   12.7835  C     
24   C        -3.8453    5.0954   12.4647  C     
25   H        -0.2333    9.2005   16.3727  H     
26   H        -2.4095    6.1802   14.3675  H     
27   H        -2.5581    3.0968   13.7921  H     
28   H        -3.4133    1.5957   15.4618  H     
29   H        -7.0888    3.6683   15.4328  H     
30   H        -6.2326    5.1675   13.7692  H     
31   H        -8.2071    0.6669   16.4810  H     
32   H        -8.0621    2.1118   17.3077  H     
33   H         1.3839   11.6002   13.0240  H     
34   H         0.8225   12.3088   11.5045  H     
35   H         1.1643   10.5732   11.5814  H     
36   H        -4.4634    6.9839   13.3422  H     
37   H        -3.5875    7.1298   11.8345  H     
38   H        -2.9167    4.6945   12.0483  H     
39   H        -4.5960    5.0223   11.6724  H     
@<TRIPOS>BOND
     1    1    2 2
     2    1    6 1
     3    2    3 1
     4    3    4 2
     5    4    5 1
     6    4    7 1
     7    5    6 2
     8    5   18 am
     9    6   21 1
    10    7   23 1
    11    8    9 2
    12    8   13 1
    13    8   24 1
    14    9   10 1
    15   10   11 2
    16   11   12 1
    17   11   14 1
    18   12   13 2
    19   14   15 2
    20   14   16 2
    21   14   17 am
    22   18   19 1
    23   18   20 2
    24   21   22 1
    25   23   24 1
    26    2   25 1
    27    7   26 1
    28    9   27 1
    29   10   28 1
    30   12   29 1
    31   13   30 1
    32   17   31 1
    33   17   32 1
    34   22   33 1
    35   22   34 1
    36   22   35 1
    37   23   36 1
    38   23   37 1
    39   24   38 1
    40   24   39 1
@<TRIPOS>PROPERTY_DATA
  Total_Score	| 4.3565
  Crash		| -0.9911
  Polar		| 2.8660
  FragIndex	| 1
  FragRMSD	| 1.222

