@<TRIPOS>MOLECULE
BindingDB_50329766
 44 46 0 0 0
SMALL
NO_CHARGES


@<TRIPOS>ATOM
1    C        -3.4034    5.6044   13.5921  C     
2    C        -2.6361    4.6406   14.2776  C     
3    C        -3.2472    3.5695   14.9471  C     
4    C        -4.6475    3.4290   14.9414  C     
5    C        -5.4250    4.3633   14.2219  C     
6    C        -4.8048    5.4257   13.5366  C     
7    S        -5.4074    2.1362   15.8312  S     
8    O        -5.6387    0.8276   14.9463  O     
9    O        -4.4913    1.6483   17.0454  O     
10   N        -6.8618    2.6126   16.5376  N     
11   N        -2.8329    6.6677   12.9263  N     
12   N        -0.6201    9.6422   14.7222  N     
13   C        -1.2084    8.6587   15.4354  C     
14   N        -1.9214    7.7119   14.7893  N     
15   C        -2.0625    7.6868   13.4344  C     
16   C        -1.4835    8.7345   12.6545  C     
17   C        -0.7076    9.7242   13.3700  C     
18   N        -0.1114   10.8022   12.7952  N     
19   C         1.1483   11.4470   13.1181  C     
20   C         2.0705   10.8585   14.1150  C     
21   C         2.0884   11.3698   15.4344  C     
22   C         2.9486   10.8183   16.4008  C     
23   C         3.8051    9.7498   16.0605  C     
24   C         3.8094    9.2443   14.7379  C     
25   C         2.9463    9.8012   13.7757  C     
26   N        -1.5343    8.7294   11.2793  N     
27   O        -1.0390    9.5756   10.5754  O     
28   O        -2.0782    7.7724   10.5690  O     
29   H        -1.6194    4.7012   14.2838  H     
30   H        -2.6718    2.8963   15.4438  H     
31   H        -6.4444    4.2926   14.2024  H     
32   H        -5.3780    6.0849   13.0057  H     
33   H        -6.9432    2.6335   17.5126  H     
34   H        -7.4861    3.1378   16.0027  H     
35   H        -3.1304    6.7742   12.0184  H     
36   H        -1.1343    8.6358   16.4599  H     
37   H        -0.4578   11.0725   11.9397  H     
38   H         1.6936   11.4997   12.1569  H     
39   H         0.9282   12.5076   13.3689  H     
40   H         1.4513   12.1141   15.7193  H     
41   H         2.9615   11.1894   17.3558  H     
42   H         4.4368    9.3457   16.7590  H     
43   H         4.4285    8.4730   14.4908  H     
44   H         2.9272    9.3999   12.8391  H     
@<TRIPOS>BOND
     1    1    2 2
     2    1    6 1
     3    1   11 1
     4    2    3 1
     5    3    4 2
     6    4    5 1
     7    4    7 1
     8    5    6 2
     9    7    8 2
    10    7    9 2
    11    7   10 am
    12   11   15 1
    13   12   13 2
    14   12   17 1
    15   13   14 1
    16   14   15 2
    17   15   16 1
    18   16   17 2
    19   16   26 am
    20   17   18 1
    21   18   19 1
    22   19   20 1
    23   20   21 2
    24   20   25 1
    25   21   22 1
    26   22   23 2
    27   23   24 1
    28   24   25 2
    29   26   27 2
    30   26   28 1
    31    2   29 1
    32    3   30 1
    33    5   31 1
    34    6   32 1
    35   10   33 1
    36   10   34 1
    37   11   35 1
    38   13   36 1
    39   18   37 1
    40   19   38 1
    41   19   39 1
    42   21   40 1
    43   22   41 1
    44   23   42 1
    45   24   43 1
    46   25   44 1
@<TRIPOS>PROPERTY_DATA
  Total_Score	| 3.3671
  Crash		| -0.8787
  Polar		| 1.2220
  FragIndex	| 1
  FragRMSD	| 1.011

