@<TRIPOS>MOLECULE
BindingDB_50219598
 50 52 0 0 0
SMALL
NO_CHARGES


@<TRIPOS>ATOM
1    S        44.2441   14.1823    0.9383  S     
2    C        44.4402   15.6240    1.8557  C     
3    C        45.3468   15.3126    2.8740  C     
4    C        45.7898   13.9726    2.8831  C     
5    C        45.2894   13.1578    1.8509  C     
6    C        43.8021   16.8453    1.6056  C     
7    O        42.9241   16.9534    0.5863  O     
8    O        44.0297   17.9368    2.3705  O     
9    C        45.5226   11.7821    1.5562  C     
10   C        46.7636   11.1522    1.8384  C     
11   C        47.0043    9.7897    1.5247  C     
12   C        45.9961    9.0711    0.8448  C     
13   C        44.7578    9.6722    0.5613  C     
14   C        44.5144   11.0073    0.9308  C     
15   Br       46.8887   13.3875    4.2692  Br    
16   O        45.7236   16.2066    3.8348  O     
17   C        46.8567   17.0203    3.4784  C     
18   C        47.5496   17.4304    4.7072  C     
19   O        48.7561   18.0346    4.6243  O     
20   O        47.1314   16.9965    5.9188  O     
21   N        48.2104    9.2737    1.8914  N     
22   C        48.7584    7.9696    1.6240  C     
23   N        49.8385    6.8534    4.1175  N     
24   C        50.5529    7.9481    3.4939  C     
25   C        50.2800    7.9786    1.9636  C     
26   C        48.0697    6.8114    2.4102  C     
27   C        48.4011    6.8550    3.9254  C     
28   C        50.4812    5.8595    4.8066  C     
29   O        51.8349    5.8546    4.9564  O     
30   O        49.7918    4.8248    5.3490  O     
31   C        52.6149    4.8642    5.6384  C     
32   H        47.5278   11.6937    2.2506  H     
33   H        46.1498    8.1047    0.5467  H     
34   H        44.0293    9.1326    0.0852  H     
35   H        43.5890   11.4008    0.7318  H     
36   H        47.5817   16.4918    2.8512  H     
37   H        46.5215   17.9119    2.9454  H     
38   H        48.7970    9.8787    2.3687  H     
39   H        48.6651    7.7754    0.5517  H     
40   H        50.2175    8.8831    3.9458  H     
41   H        51.6356    7.8982    3.6392  H     
42   H        50.7501    7.1013    1.5107  H     
43   H        50.7543    8.8620    1.5255  H     
44   H        46.9852    6.8390    2.2833  H     
45   H        48.4262    5.8561    2.0076  H     
46   H        47.8955    6.0122    4.4037  H     
47   H        47.9780    7.7620    4.3660  H     
48   H        52.3217    4.8150    6.6898  H     
49   H        53.6704    5.1337    5.5774  H     
50   H        52.4711    3.8892    5.1729  H     
@<TRIPOS>BOND
     1    1    2 1
     2    1    5 1
     3    2    3 2
     4    2    6 1
     5    3    4 1
     6    3   16 1
     7    4    5 2
     8    4   15 1
     9    5    9 1
    10    6    7 2
    11    6    8 1
    12    9   10 2
    13    9   14 1
    14   10   11 1
    15   11   12 2
    16   11   21 1
    17   12   13 1
    18   13   14 2
    19   16   17 1
    20   17   18 1
    21   18   19 1
    22   18   20 2
    23   21   22 1
    24   22   25 1
    25   22   26 1
    26   23   24 1
    27   23   27 1
    28   23   28 1
    29   24   25 1
    30   26   27 1
    31   28   29 1
    32   28   30 2
    33   29   31 1
    34   10   32 1
    35   12   33 1
    36   13   34 1
    37   14   35 1
    38   17   36 1
    39   17   37 1
    40   21   38 1
    41   22   39 1
    42   24   40 1
    43   24   41 1
    44   25   42 1
    45   25   43 1
    46   26   44 1
    47   26   45 1
    48   27   46 1
    49   27   47 1
    50   31   48 1
    51   31   49 1
    52   31   50 1
@<TRIPOS>PROPERTY_DATA
  Total_Score	| 11.0685
  Crash		| -1.8243
  Polar		| 7.5708
  FragIndex	| 1
  FragRMSD	| 0.622

