@<TRIPOS>MOLECULE
BindingDB_50219587
 42 44 0 0 0
SMALL
NO_CHARGES


@<TRIPOS>ATOM
1    S        44.2542   14.2727    0.7524  S     
2    C        44.4393   15.6347    1.7816  C     
3    C        45.3636   15.2653    2.7708  C     
4    C        45.8139   13.9372    2.6783  C     
5    C        45.3265   13.2056    1.5811  C     
6    C        43.7792   16.8577    1.6360  C     
7    O        42.9006   17.0191    0.6238  O     
8    O        44.1084   17.9396    2.3770  O     
9    C        45.5899   11.8561    1.2337  C     
10   C        46.8988   11.3313    1.2959  C     
11   C        47.1513    9.9420    1.1955  C     
12   C        46.0643    9.0820    0.9221  C     
13   C        44.7761    9.6026    0.7096  C     
14   C        44.5328   10.9790    0.8876  C     
15   Br       46.9203   13.2684    4.0209  Br    
16   O        45.7532   16.0781    3.7942  O     
17   C        46.8256   16.9849    3.4690  C     
18   C        47.4936   17.3910    4.7166  C     
19   O        48.6828   18.0197    4.6797  O     
20   O        47.0549   16.9252    5.9066  O     
21   N        48.4264    9.5349    1.4140  N     
22   C        48.7983    8.2804    2.0122  C     
23   C        50.2251    7.8362    1.6088  C     
24   C        50.7150    6.9902    2.7954  C     
25   C        50.1063    7.6541    4.0468  C     
26   C        48.8493    8.4169    3.5558  C     
27   H        47.6855   11.9679    1.4588  H     
28   H        46.2163    8.0835    0.7761  H     
29   H        44.0161    8.9851    0.4081  H     
30   H        43.5737   11.3183    0.7983  H     
31   H        47.5936   16.5504    2.8117  H     
32   H        46.4093   17.8648    2.9784  H     
33   H        49.0538   10.2676    1.5633  H     
34   H        48.1296    7.4573    1.7643  H     
35   H        50.2063    7.2497    0.6868  H     
36   H        50.8835    8.6917    1.4718  H     
37   H        50.3488    5.9644    2.7033  H     
38   H        51.8111    6.9704    2.8437  H     
39   H        49.8457    6.8973    4.7911  H     
40   H        50.8217    8.3487    4.4985  H     
41   H        48.9196    9.4601    3.8657  H     
42   H        47.9453    7.9961    3.9996  H     
@<TRIPOS>BOND
     1    1    2 1
     2    1    5 1
     3    2    3 2
     4    2    6 1
     5    3    4 1
     6    3   16 1
     7    4    5 2
     8    4   15 1
     9    5    9 1
    10    6    7 2
    11    6    8 1
    12    9   10 2
    13    9   14 1
    14   10   11 1
    15   11   12 2
    16   11   21 1
    17   12   13 1
    18   13   14 2
    19   16   17 1
    20   17   18 1
    21   18   19 1
    22   18   20 2
    23   21   22 1
    24   22   23 1
    25   22   26 1
    26   23   24 1
    27   24   25 1
    28   25   26 1
    29   10   27 1
    30   12   28 1
    31   13   29 1
    32   14   30 1
    33   17   31 1
    34   17   32 1
    35   21   33 1
    36   22   34 1
    37   23   35 1
    38   23   36 1
    39   24   37 1
    40   24   38 1
    41   25   39 1
    42   25   40 1
    43   26   41 1
    44   26   42 1
@<TRIPOS>PROPERTY_DATA
  Total_Score	| 10.8760
  Crash		| -1.4003
  Polar		| 7.8463
  FragIndex	| 1
  FragRMSD	| 0.390

