@<TRIPOS>MOLECULE
BindingDB_50219605
 45 47 0 0 0
SMALL
NO_CHARGES


@<TRIPOS>ATOM
1    S        44.2670   14.1668    0.9310  S     
2    C        44.4523   15.6232    1.8255  C     
3    C        45.3789   15.3388    2.8351  C     
4    C        45.8457   14.0081    2.8583  C     
5    C        45.3477   13.1736    1.8380  C     
6    C        43.7722   16.8259    1.5743  C     
7    O        44.0294   17.9548    2.2725  O     
8    O        42.8746   16.9100    0.5694  O     
9    C        45.6047   11.7938    1.5772  C     
10   C        46.8139   11.1699    1.9737  C     
11   C        47.0620    9.7872    1.7912  C     
12   C        46.0962    9.0438    1.0801  C     
13   C        44.9011    9.6403    0.6412  C     
14   C        44.6510   10.9961    0.9026  C     
15   Br       46.9502   13.4689    4.2595  Br    
16   O        45.7578   16.2380    3.7899  O     
17   C        47.0557   16.8243    3.5698  C     
18   C        47.6121   17.1639    4.8834  C     
19   O        46.8100   17.7329    5.8067  O     
20   O        48.9412   17.3634    5.0130  O     
21   N        48.2228    9.3282    2.3384  N     
22   C        49.0475    8.1477    2.2523  C     
23   N        47.8676    5.6680    3.4039  N     
24   C        48.1689    6.8189    4.2823  C     
25   C        49.3420    7.6543    3.7064  C     
26   C        48.6694    6.9083    1.3844  C     
27   C        47.5343    6.0510    2.0139  C     
28   H        47.5451   11.7385    2.4052  H     
29   H        46.2330    8.0533    0.8846  H     
30   H        44.2035    9.0826    0.1438  H     
31   H        43.7586   11.3903    0.5970  H     
32   H        47.7519   16.1444    3.0641  H     
33   H        46.9581   17.7338    2.9723  H     
34   H        48.5963    9.9599    2.9718  H     
35   H        49.9941    8.5201    1.8503  H     
36   H        48.6868    5.0538    3.3839  H     
37   H        47.0820    5.1431    3.8009  H     
38   H        47.2785    7.4450    4.3949  H     
39   H        48.4420    6.4331    5.2670  H     
40   H        50.2407    7.0284    3.7014  H     
41   H        49.5433    8.4992    4.3716  H     
42   H        48.4340    7.2018    0.3620  H     
43   H        49.5533    6.2652    1.3096  H     
44   H        47.4175    5.1340    1.4329  H     
45   H        46.5699    6.5679    2.0190  H     
@<TRIPOS>BOND
     1    1    2 1
     2    1    5 1
     3    2    3 2
     4    2    6 1
     5    3    4 1
     6    3   16 1
     7    4    5 2
     8    4   15 1
     9    5    9 1
    10    6    7 2
    11    6    8 1
    12    9   10 2
    13    9   14 1
    14   10   11 1
    15   11   12 2
    16   11   21 1
    17   12   13 1
    18   13   14 2
    19   16   17 1
    20   17   18 1
    21   18   19 1
    22   18   20 2
    23   21   22 1
    24   22   25 1
    25   22   26 1
    26   23   24 1
    27   23   27 1
    28   24   25 1
    29   26   27 1
    30   10   28 1
    31   12   29 1
    32   13   30 1
    33   14   31 1
    34   17   32 1
    35   17   33 1
    36   21   34 1
    37   22   35 1
    38   23   36 1
    39   23   37 1
    40   24   38 1
    41   24   39 1
    42   25   40 1
    43   25   41 1
    44   26   42 1
    45   26   43 1
    46   27   44 1
    47   27   45 1
@<TRIPOS>PROPERTY_DATA
  Total_Score	| 10.9956
  Crash		| -2.0388
  Polar		| 8.1043
  FragIndex	| 1
  FragRMSD	| 1.247

