@<TRIPOS>MOLECULE
BindingDB_50219601
 48 50 0 0 0
SMALL
NO_CHARGES


@<TRIPOS>ATOM
1    S        44.2854   14.2598    0.7849  S     
2    C        44.4655   15.6488    1.7944  C     
3    C        45.3915   15.3067    2.8051  C     
4    C        45.8454   13.9778    2.7303  C     
5    C        45.3699   13.2213    1.6481  C     
6    C        43.7953   16.8658    1.6085  C     
7    O        42.9038   16.9682    0.6018  O     
8    O        44.0419   17.9512    2.3925  O     
9    C        45.6336   11.8731    1.2996  C     
10   C        46.9356   11.3374    1.4096  C     
11   C        47.1425    9.9342    1.3331  C     
12   C        46.0695    9.0860    0.9959  C     
13   C        44.8242    9.6305    0.6989  C     
14   C        44.5868   11.0035    0.8822  C     
15   Br       46.9458   13.3829    4.1253  Br    
16   O        45.7545   16.1554    3.8113  O     
17   C        46.8195   17.0621    3.4816  C     
18   C        47.4859   17.4512    4.7350  C     
19   O        48.7036   18.0292    4.6654  O     
20   O        47.0563   17.0040    5.9485  O     
21   N        48.3553    9.4343    1.6199  N     
22   C        48.6508    8.7316    2.8442  C     
23   C        49.9844    7.9438    2.7669  C     
24   C        50.5335    7.5065    4.1610  C     
25   C        49.7046    6.3442    4.7810  C     
26   C        49.6645    5.1270    3.8241  C     
27   C        49.1360    5.5036    2.4240  C     
28   C        49.9097    6.7100    1.8018  C     
29   H        47.7338   11.9452    1.6288  H     
30   H        46.2474    8.0882    0.8853  H     
31   H        44.0613    9.0216    0.3713  H     
32   H        43.6317   11.3519    0.7347  H     
33   H        47.5971   16.6456    2.8274  H     
34   H        46.4125   17.9593    3.0033  H     
35   H        49.1188    9.9033    1.2066  H     
36   H        48.7033    9.5087    3.5781  H     
37   H        47.8133    8.0792    3.1797  H     
38   H        50.7549    8.6137    2.3561  H     
39   H        51.5737    7.1873    4.0562  H     
40   H        50.5329    8.3645    4.8437  H     
41   H        50.1625    6.0508    5.7241  H     
42   H        48.6901    6.6923    4.9842  H     
43   H        50.6623    4.7057    3.7373  H     
44   H        49.0163    4.3613    4.2594  H     
45   H        49.2425    4.6438    1.7612  H     
46   H        48.0731    5.7370    2.4908  H     
47   H        49.4366    7.0048    0.8657  H     
48   H        50.9241    6.3815    1.5658  H     
@<TRIPOS>BOND
     1    1    2 1
     2    1    5 1
     3    2    3 2
     4    2    6 1
     5    3    4 1
     6    3   16 1
     7    4    5 2
     8    4   15 1
     9    5    9 1
    10    6    7 2
    11    6    8 1
    12    9   10 2
    13    9   14 1
    14   10   11 1
    15   11   12 2
    16   11   21 1
    17   12   13 1
    18   13   14 2
    19   16   17 1
    20   17   18 1
    21   18   19 1
    22   18   20 2
    23   21   22 1
    24   22   23 1
    25   23   24 1
    26   23   28 1
    27   24   25 1
    28   25   26 1
    29   26   27 1
    30   27   28 1
    31   10   29 1
    32   12   30 1
    33   13   31 1
    34   14   32 1
    35   17   33 1
    36   17   34 1
    37   21   35 1
    38   22   36 1
    39   22   37 1
    40   23   38 1
    41   24   39 1
    42   24   40 1
    43   25   41 1
    44   25   42 1
    45   26   43 1
    46   26   44 1
    47   27   45 1
    48   27   46 1
    49   28   47 1
    50   28   48 1
@<TRIPOS>PROPERTY_DATA
  Total_Score	| 11.3488
  Crash		| -1.1493
  Polar		| 7.6642
  FragIndex	| 1
  FragRMSD	| 0.599

