@<TRIPOS>MOLECULE
BindingDB_14266
 57 59 0 0 0
SMALL
NO_CHARGES


@<TRIPOS>ATOM
1    C        44.4131   15.6796    1.8089  C     
2    C        45.3470   15.3512    2.8072  C     
3    C        45.8454   14.0409    2.7241  C     
4    C        45.3777   13.3050    1.6288  C     
5    S        44.2778   14.3126    0.7721  S     
6    O        45.6976   16.1913    3.8245  O     
7    C        46.7472   17.1370    3.5303  C     
8    C        47.4226   17.5310    4.7764  C     
9    O        46.9039   17.1975    5.9794  O     
10   O        48.6557   18.0758    4.7314  O     
11   C        43.7333   16.8839    1.6209  C     
12   O        42.8511   16.9985    0.6082  O     
13   O        43.9520   17.9662    2.4000  O     
14   Br       47.0115   13.3572    4.0071  Br    
15   C        45.7850   12.0275    1.2259  C     
16   C        47.5292   10.5942    0.3075  C     
17   C        47.0874   11.8565    0.6972  C     
18   C        44.9167   10.9064    1.2811  C     
19   C        45.3684    9.6432    0.8858  C     
20   C        46.7077    9.4509    0.4389  C     
21   N        47.1208    8.1887    0.2002  N     
22   C        48.0711    7.4119    0.9564  C     
23   C        49.5844    7.8332    0.9439  C     
24   C        49.9712    6.5963    3.1454  C     
25   C        48.4418    6.2547    3.3114  C     
26   C        47.5717    7.2170    2.4235  C     
27   C        48.0270    6.4845    4.8083  C     
28   C        48.1363    4.7531    2.9855  C     
29   C        50.7717    5.5363    0.8811  C     
30   C        50.5435    6.8499    1.6971  C     
31   C        51.9528    7.5287    1.8390  C     
32   H        47.5153   16.7385    2.8549  H     
33   H        46.3004   18.0186    3.0624  H     
34   H        48.4357   10.5220   -0.1534  H     
35   H        47.7009   12.6647    0.5530  H     
36   H        43.9688   11.0175    1.6395  H     
37   H        44.7431    8.8406    0.9596  H     
38   H        46.4627    7.6355   -0.2749  H     
39   H        48.0181    6.4471    0.4796  H     
40   H        49.9035    7.9845   -0.0908  H     
41   H        49.6907    8.7791    1.4776  H     
42   H        50.1557    7.5091    3.7168  H     
43   H        50.5724    5.8226    3.6291  H     
44   H        47.5466    8.1977    2.9038  H     
45   H        46.5434    6.8407    2.3906  H     
46   H        48.5528    5.8004    5.4809  H     
47   H        46.9531    6.3338    4.9380  H     
48   H        48.2471    7.5048    5.1292  H     
49   H        48.1571    4.5482    1.9202  H     
50   H        47.1405    4.4722    3.3325  H     
51   H        48.8528    4.0877    3.4763  H     
52   H        49.8463    5.0618    0.5751  H     
53   H        51.3391    4.8150    1.4728  H     
54   H        51.3319    5.7377   -0.0343  H     
55   H        52.3829    7.7499    0.8620  H     
56   H        52.6384    6.8740    2.3736  H     
57   H        51.8914    8.4680    2.3892  H     
@<TRIPOS>BOND
     1    1    2 2
     2    1    5 1
     3    1   11 1
     4    2    3 1
     5    2    6 1
     6    3    4 2
     7    3   14 1
     8    4    5 1
     9    4   15 1
    10    6    7 1
    11    7    8 1
    12    8    9 2
    13    8   10 1
    14   11   12 2
    15   11   13 1
    16   15   17 2
    17   15   18 1
    18   16   17 1
    19   16   20 2
    20   18   19 2
    21   19   20 1
    22   20   21 1
    23   21   22 1
    24   22   23 1
    25   22   26 1
    26   23   30 1
    27   24   25 1
    28   24   30 1
    29   25   26 1
    30   25   27 1
    31   25   28 1
    32   29   30 1
    33   30   31 1
    34    7   32 1
    35    7   33 1
    36   16   34 1
    37   17   35 1
    38   18   36 1
    39   19   37 1
    40   21   38 1
    41   22   39 1
    42   23   40 1
    43   23   41 1
    44   24   42 1
    45   24   43 1
    46   26   44 1
    47   26   45 1
    48   27   46 1
    49   27   47 1
    50   27   48 1
    51   28   49 1
    52   28   50 1
    53   28   51 1
    54   29   52 1
    55   29   53 1
    56   29   54 1
    57   31   55 1
    58   31   56 1
    59   31   57 1
@<TRIPOS>PROPERTY_DATA
  Total_Score	| 11.6645
  Crash		| -1.4435
  Polar		| 7.6178
  FragIndex	| 1
  FragRMSD	| 0.505

