@<TRIPOS>MOLECULE
BindingDB_50219594
 49 51 0 0 0
SMALL
NO_CHARGES


@<TRIPOS>ATOM
1    S        44.2669   14.1906    0.9444  S     
2    C        44.4603   15.6289    1.8510  C     
3    C        45.3562   15.3139    2.8727  C     
4    C        45.7955   13.9718    2.8900  C     
5    C        45.2938   13.1437    1.8577  C     
6    C        43.8043   16.8438    1.5988  C     
7    O        42.8803   16.9214    0.6149  O     
8    O        44.0584   17.9574    2.3259  O     
9    C        45.4874   11.7537    1.5369  C     
10   C        46.5855   11.0058    2.0365  C     
11   C        46.8002    9.6465    1.7122  C     
12   C        45.9041    9.0155    0.8225  C     
13   C        44.7985    9.7152    0.3195  C     
14   C        44.5883   11.0568    0.6808  C     
15   Br       46.9363   13.4757    4.2770  Br    
16   O        45.7117   16.2064    3.8433  O     
17   C        46.8334   17.0452    3.4999  C     
18   C        47.5306   17.4463    4.7295  C     
19   O        47.1069   17.0302    5.9459  O     
20   O        48.7318   18.0590    4.6611  O     
21   N        47.8712    9.0412    2.2884  N     
22   C        48.1667    7.6389    2.4099  C     
23   N        51.0962    7.5161    2.6875  N     
24   C        50.5034    7.8143    1.3861  C     
25   C        49.0959    7.1733    1.2605  C     
26   C        48.8595    7.3647    3.7726  C     
27   C        50.2987    7.9441    3.8299  C     
28   C        52.2915    6.8971    2.8006  C     
29   C        52.9252    6.5266    4.0585  C     
30   O        52.9365    6.6012    1.7987  O     
31   H        47.2687   11.4605    2.6413  H     
32   H        46.0423    8.0457    0.5338  H     
33   H        44.1474    9.2505   -0.3158  H     
34   H        43.7632   11.5195    0.2922  H     
35   H        47.5589   16.5309    2.8634  H     
36   H        46.4846   17.9406    2.9835  H     
37   H        48.5407    9.6412    2.6593  H     
38   H        47.2368    7.0625    2.3939  H     
39   H        50.4140    8.8978    1.2760  H     
40   H        51.0993    7.4705    0.5370  H     
41   H        49.2008    6.0850    1.3025  H     
42   H        48.6579    7.4268    0.2921  H     
43   H        48.2589    7.7880    4.5836  H     
44   H        48.9102    6.2826    3.9293  H     
45   H        50.7180    7.6624    4.7964  H     
46   H        50.2478    9.0347    3.8305  H     
47   H        53.1140    7.4197    4.6576  H     
48   H        53.8824    6.0197    3.9073  H     
49   H        52.2742    5.8482    4.6113  H     
@<TRIPOS>BOND
     1    1    2 1
     2    1    5 1
     3    2    3 2
     4    2    6 1
     5    3    4 1
     6    3   16 1
     7    4    5 2
     8    4   15 1
     9    5    9 1
    10    6    7 2
    11    6    8 1
    12    9   10 2
    13    9   14 1
    14   10   11 1
    15   11   12 2
    16   11   21 1
    17   12   13 1
    18   13   14 2
    19   16   17 1
    20   17   18 1
    21   18   19 1
    22   18   20 2
    23   21   22 1
    24   22   25 1
    25   22   26 1
    26   23   24 1
    27   23   27 1
    28   23   28 am
    29   24   25 1
    30   26   27 1
    31   28   29 1
    32   28   30 2
    33   10   31 1
    34   12   32 1
    35   13   33 1
    36   14   34 1
    37   17   35 1
    38   17   36 1
    39   21   37 1
    40   22   38 1
    41   24   39 1
    42   24   40 1
    43   25   41 1
    44   25   42 1
    45   26   43 1
    46   26   44 1
    47   27   45 1
    48   27   46 1
    49   29   47 1
    50   29   48 1
    51   29   49 1
@<TRIPOS>PROPERTY_DATA
  Total_Score	| 11.4568
  Crash		| -1.8013
  Polar		| 7.5798
  FragIndex	| 1
  FragRMSD	| 0.935

