@<TRIPOS>MOLECULE
BindingDB_50219590
 43 45 0 0 0
SMALL
NO_CHARGES


@<TRIPOS>ATOM
1    S        44.3070   14.2552    0.7952  S     
2    C        44.4711   15.6542    1.7817  C     
3    C        45.3863   15.3228    2.7866  C     
4    C        45.8680   13.9994    2.7354  C     
5    C        45.3900   13.2297    1.6584  C     
6    C        43.7814   16.8623    1.6061  C     
7    O        44.0164   17.9370    2.3921  O     
8    O        42.8724   16.9931    0.6181  O     
9    C        45.6638   11.8719    1.3416  C     
10   C        46.9812   11.3582    1.4048  C     
11   C        47.2643    9.9872    1.2060  C     
12   C        46.1960    9.1319    0.8629  C     
13   C        44.8892    9.6318    0.7225  C     
14   C        44.6221   10.9881    0.9736  C     
15   Br       46.9512   13.3610    4.1114  Br    
16   O        45.7125   16.1666    3.8082  O     
17   C        46.7868   17.0760    3.4995  C     
18   C        47.4772   17.4482    4.7407  C     
19   O        48.6914   18.0353    4.6796  O     
20   O        47.0581   16.9898    5.9418  O     
21   N        48.5612    9.6197    1.3843  N     
22   C        49.1944    8.4177    1.8547  C     
23   O        48.5064    5.9784    3.3219  O     
24   C        48.4548    7.2065    4.0661  C     
25   C        49.3240    8.3093    3.4114  C     
26   C        48.7621    7.1061    1.1235  C     
27   C        47.9717    6.0928    1.9907  C     
28   H        47.7566   11.9969    1.6064  H     
29   H        46.3529    8.1438    0.7018  H     
30   H        44.1270    9.0020    0.4612  H     
31   H        43.6548   11.3163    0.9083  H     
32   H        47.5272   16.6245    2.8302  H     
33   H        46.3919   17.9804    3.0295  H     
34   H        49.1933   10.3307    1.1949  H     
35   H        50.2245    8.5885    1.5136  H     
36   H        47.4223    7.5382    4.1919  H     
37   H        48.8409    7.0037    5.0681  H     
38   H        50.3651    8.0770    3.6571  H     
39   H        49.0944    9.2700    3.8821  H     
40   H        48.1736    7.3449    0.2323  H     
41   H        49.6641    6.5893    0.7758  H     
42   H        48.0415    5.1064    1.5249  H     
43   H        46.9090    6.3462    2.0186  H     
@<TRIPOS>BOND
     1    1    2 1
     2    1    5 1
     3    2    3 2
     4    2    6 1
     5    3    4 1
     6    3   16 1
     7    4    5 2
     8    4   15 1
     9    5    9 1
    10    6    7 2
    11    6    8 1
    12    9   10 2
    13    9   14 1
    14   10   11 1
    15   11   12 2
    16   11   21 1
    17   12   13 1
    18   13   14 2
    19   16   17 1
    20   17   18 1
    21   18   19 1
    22   18   20 2
    23   21   22 1
    24   22   25 1
    25   22   26 1
    26   23   24 1
    27   23   27 1
    28   24   25 1
    29   26   27 1
    30   10   28 1
    31   12   29 1
    32   13   30 1
    33   14   31 1
    34   17   32 1
    35   17   33 1
    36   21   34 1
    37   22   35 1
    38   24   36 1
    39   24   37 1
    40   25   38 1
    41   25   39 1
    42   26   40 1
    43   26   41 1
    44   27   42 1
    45   27   43 1
@<TRIPOS>PROPERTY_DATA
  Total_Score	| 10.4689
  Crash		| -1.4479
  Polar		| 7.6893
  FragIndex	| 1
  FragRMSD	| 1.022

