@<TRIPOS>MOLECULE
BindingDB_50219591
 61 64 0 0 0
SMALL
NO_CHARGES


@<TRIPOS>ATOM
1    C        50.2431    8.0242    2.3876  C     
2    N        52.6098    6.6926    3.5649  N     
3    C        52.3517    6.5833    2.1370  C     
4    C        50.8423    6.6978    1.8150  C     
5    C        50.5958    8.1365    3.9088  C     
6    C        52.1052    7.9170    4.1785  C     
7    S        44.3155   14.2879    0.7042  S     
8    C        44.4972   15.6593    1.7229  C     
9    C        45.3742   15.2844    2.7492  C     
10   C        45.8611   13.9649    2.6615  C     
11   C        45.3616   13.2251    1.5731  C     
12   C        43.8110   16.8676    1.5617  C     
13   O        44.0371   17.9215    2.3754  O     
14   O        42.8734   16.9995    0.6055  O     
15   C        45.6068   11.8553    1.2617  C     
16   C        46.9023   11.2851    1.3857  C     
17   C        47.1034    9.8977    1.2923  C     
18   C        45.9932    9.0851    0.9759  C     
19   C        44.7300    9.6459    0.7472  C     
20   C        44.5369   11.0243    0.8688  C     
21   O        45.7157   16.1018    3.7866  O     
22   C        46.8001   17.0100    3.4884  C     
23   C        47.4732   17.3932    4.7374  C     
24   O        48.6655   18.0231    4.6949  O     
25   O        47.0585   16.9122    5.9328  O     
26   N        48.3645    9.4278    1.5316  N     
27   C        48.7042    8.1507    2.1176  C     
28   C        53.2542    5.7399    4.2775  C     
29   O        53.3411    5.8278    5.4963  O     
30   N        53.8771    4.7215    3.6837  N     
31   Br       46.9164   13.2718    4.0401  Br    
32   C        54.4567    3.5858    4.1973  C     
33   C        53.9722    2.8765    5.3323  C     
34   C        54.5431    1.6498    5.7125  C     
35   C        55.5856    1.0858    4.9548  C     
36   C        56.0637    1.7623    3.8159  C     
37   C        55.4938    2.9904    3.4374  C     
38   H        50.7526    8.8447    1.8663  H     
39   H        52.8871    7.3858    1.6212  H     
40   H        52.6849    5.6476    1.6897  H     
41   H        50.3159    5.8431    2.2402  H     
42   H        50.6985    6.6842    0.7295  H     
43   H        50.2887    9.1260    4.2773  H     
44   H        50.0348    7.3859    4.4710  H     
45   H        52.2469    7.9527    5.2653  H     
46   H        52.6559    8.7678    3.7717  H     
47   H        47.6923   11.8873    1.6267  H     
48   H        46.1014    8.0720    0.9196  H     
49   H        43.9492    9.0343    0.5306  H     
50   H        43.5940   11.3988    0.7513  H     
51   H        47.5511   16.5689    2.8215  H     
52   H        46.4109   17.9169    3.0227  H     
53   H        49.1103    9.9983    1.2932  H     
54   H        48.3793    7.3333    1.4484  H     
55   H        48.1413    8.0477    3.0524  H     
56   H        53.9709    4.7987    2.7252  H     
57   H        53.1795    3.2344    5.8708  H     
58   H        54.1858    1.1466    6.5288  H     
59   H        55.9800    0.1838    5.2112  H     
60   H        56.8050    1.3476    3.2471  H     
61   H        55.8475    3.4627    2.5985  H     
@<TRIPOS>BOND
     1    1    4 1
     2    1    5 1
     3    1   27 1
     4    2    3 1
     5    2    6 1
     6    2   28 1
     7    3    4 1
     8    5    6 1
     9    7    8 1
    10    7   11 1
    11    8    9 2
    12    8   12 1
    13    9   10 1
    14    9   21 1
    15   10   11 2
    16   10   31 1
    17   11   15 1
    18   12   13 2
    19   12   14 1
    20   15   16 2
    21   15   20 1
    22   16   17 1
    23   17   18 2
    24   17   26 1
    25   18   19 1
    26   19   20 2
    27   21   22 1
    28   22   23 1
    29   23   24 1
    30   23   25 2
    31   26   27 1
    32   28   29 2
    33   28   30 am
    34   30   32 1
    35   32   33 2
    36   32   37 1
    37   33   34 1
    38   34   35 2
    39   35   36 1
    40   36   37 2
    41    1   38 1
    42    3   39 1
    43    3   40 1
    44    4   41 1
    45    4   42 1
    46    5   43 1
    47    5   44 1
    48    6   45 1
    49    6   46 1
    50   16   47 1
    51   18   48 1
    52   19   49 1
    53   20   50 1
    54   22   51 1
    55   22   52 1
    56   26   53 1
    57   27   54 1
    58   27   55 1
    59   30   56 1
    60   33   57 1
    61   34   58 1
    62   35   59 1
    63   36   60 1
    64   37   61 1
@<TRIPOS>PROPERTY_DATA
  Total_Score	| 12.8626
  Crash		| -2.2017
  Polar		| 8.7639
  FragIndex	| 1
  FragRMSD	| 0.810

