@<TRIPOS>MOLECULE
BindingDB_50219578
 48 50 0 0 0
SMALL
NO_CHARGES


@<TRIPOS>ATOM
1    S        44.2767   14.2683    0.7660  S     
2    C        44.4509   15.6736    1.7430  C     
3    C        45.3615   15.3439    2.7578  C     
4    C        45.8237   14.0150    2.7180  C     
5    C        45.3420   13.2462    1.6455  C     
6    C        43.7771   16.8844    1.5359  C     
7    O        43.9996   17.9798    2.2988  O     
8    O        42.8641   16.9855    0.5518  O     
9    C        45.6133   11.8926    1.3448  C     
10   C        46.9330   11.3720    1.4061  C     
11   C        47.1789    9.9815    1.2339  C     
12   C        46.1231    9.1492    0.8468  C     
13   C        44.8261    9.6603    0.7028  C     
14   C        44.5626   11.0137    0.9834  C     
15   Br       46.9053   13.3647    4.0909  Br    
16   O        45.6961   16.1841    3.7713  O     
17   C        46.7658   17.0883    3.4681  C     
18   C        47.4466   17.4664    4.7135  C     
19   O        48.6676   18.0348    4.6547  O     
20   O        46.9814   17.0863    5.9301  O     
21   N        48.4427    9.5036    1.3081  N     
22   C        48.9104    8.5196    2.2620  C     
23   C        47.8960    7.4102    2.7329  C     
24   C        48.2778    6.5796    3.9936  C     
25   C        50.1954    7.8708    1.6472  C     
26   C        49.6244    5.8277    3.9211  C     
27   C        51.3044    7.3822    2.6244  C     
28   C        50.8616    6.7591    3.9756  C     
29   H        47.7211   11.9952    1.6262  H     
30   H        46.3068    8.1809    0.5989  H     
31   H        44.0626    9.0428    0.4060  H     
32   H        43.5977   11.3509    0.9226  H     
33   H        47.5248   16.6630    2.7951  H     
34   H        46.3676   17.9936    3.0020  H     
35   H        49.1147   10.2076    1.1387  H     
36   H        49.1747    9.0871    3.1479  H     
37   H        46.9634    7.8767    3.0337  H     
38   H        47.6930    6.7260    1.9043  H     
39   H        48.2692    7.2422    4.8667  H     
40   H        47.4846    5.8420    4.1433  H     
41   H        49.8912    7.0278    1.0225  H     
42   H        50.6974    8.5780    0.9720  H     
43   H        49.6651    5.1646    4.7904  H     
44   H        49.6543    5.2040    3.0240  H     
45   H        51.9125    6.6475    2.0881  H     
46   H        51.9650    8.2216    2.8544  H     
47   H        50.6803    7.5627    4.6938  H     
48   H        51.7075    6.1797    4.3590  H     
@<TRIPOS>BOND
     1    1    2 1
     2    1    5 1
     3    2    3 2
     4    2    6 1
     5    3    4 1
     6    3   16 1
     7    4    5 2
     8    4   15 1
     9    5    9 1
    10    6    7 2
    11    6    8 1
    12    9   10 2
    13    9   14 1
    14   10   11 1
    15   11   12 2
    16   11   21 1
    17   12   13 1
    18   13   14 2
    19   16   17 1
    20   17   18 1
    21   18   19 1
    22   18   20 2
    23   21   22 1
    24   22   23 1
    25   22   25 1
    26   23   24 1
    27   24   26 1
    28   25   27 1
    29   26   28 1
    30   27   28 1
    31   10   29 1
    32   12   30 1
    33   13   31 1
    34   14   32 1
    35   17   33 1
    36   17   34 1
    37   21   35 1
    38   22   36 1
    39   23   37 1
    40   23   38 1
    41   24   39 1
    42   24   40 1
    43   25   41 1
    44   25   42 1
    45   26   43 1
    46   26   44 1
    47   27   45 1
    48   27   46 1
    49   28   47 1
    50   28   48 1
@<TRIPOS>PROPERTY_DATA
  Total_Score	| 10.8968
  Crash		| -1.3285
  Polar		| 7.4891
  FragIndex	| 1
  FragRMSD	| 0.840

