@<TRIPOS>MOLECULE
BindingDB_50219597
 45 47 0 0 0
SMALL
NO_CHARGES


@<TRIPOS>ATOM
1    S        44.2677   14.2107    0.8320  S     
2    C        44.4602   15.6225    1.7958  C     
3    C        45.3758   15.2911    2.8001  C     
4    C        45.8351   13.9596    2.7667  C     
5    C        45.3407   13.1808    1.7027  C     
6    C        43.7966   16.8436    1.6063  C     
7    O        42.9029   16.9861    0.6051  O     
8    O        44.0598   17.9206    2.3821  O     
9    C        45.6087   11.8184    1.3950  C     
10   C        46.9143   11.2900    1.5263  C     
11   C        47.1975    9.9167    1.3465  C     
12   C        46.1477    9.0740    0.9263  C     
13   C        44.8553    9.5882    0.7148  C     
14   C        44.5835   10.9457    0.9637  C     
15   Br       46.9215   13.3347    4.1469  Br    
16   O        45.7304   16.1473    3.8025  O     
17   C        46.8414   17.0067    3.4782  C     
18   C        47.5116   17.4216    4.7175  C     
19   O        48.7145   18.0311    4.6557  O     
20   O        47.0876   16.9850    5.9245  O     
21   N        48.4727    9.5490    1.6362  N     
22   C        49.0851    8.6663    2.5906  C     
23   C        48.1328    7.6196    3.2619  C     
24   C        48.3193    6.1412    2.8295  C     
25   C        49.8104    5.7392    2.7237  C     
26   C        50.5842    6.6671    1.7565  C     
27   C        50.5056    8.1499    2.1921  C     
28   H        47.6833   11.9207    1.7693  H     
29   H        46.3134    8.0889    0.7497  H     
30   H        44.1046    8.9675    0.4023  H     
31   H        43.6255   11.2829    0.8456  H     
32   H        47.5850   16.4999    2.8541  H     
33   H        46.4869   17.8962    2.9516  H     
34   H        49.1256   10.0226    1.1012  H     
35   H        49.2933    9.3792    3.3978  H     
36   H        48.2959    7.6504    4.3449  H     
37   H        47.0900    7.9079    3.0957  H     
38   H        47.8328    5.4908    3.5630  H     
39   H        47.8241    5.9607    1.8749  H     
40   H        50.2709    5.7789    3.7152  H     
41   H        49.8783    4.7091    2.3626  H     
42   H        51.6334    6.3581    1.7349  H     
43   H        50.1998    6.5568    0.7428  H     
44   H        50.9185    8.7746    1.3953  H     
45   H        51.1707    8.2610    3.0552  H     
@<TRIPOS>BOND
     1    1    2 1
     2    1    5 1
     3    2    3 2
     4    2    6 1
     5    3    4 1
     6    3   16 1
     7    4    5 2
     8    4   15 1
     9    5    9 1
    10    6    7 2
    11    6    8 1
    12    9   10 2
    13    9   14 1
    14   10   11 1
    15   11   12 2
    16   11   21 1
    17   12   13 1
    18   13   14 2
    19   16   17 1
    20   17   18 1
    21   18   19 1
    22   18   20 2
    23   21   22 1
    24   22   23 1
    25   22   27 1
    26   23   24 1
    27   24   25 1
    28   25   26 1
    29   26   27 1
    30   10   28 1
    31   12   29 1
    32   13   30 1
    33   14   31 1
    34   17   32 1
    35   17   33 1
    36   21   34 1
    37   22   35 1
    38   23   36 1
    39   23   37 1
    40   24   38 1
    41   24   39 1
    42   25   40 1
    43   25   41 1
    44   26   42 1
    45   26   43 1
    46   27   44 1
    47   27   45 1
@<TRIPOS>PROPERTY_DATA
  Total_Score	| 10.4970
  Crash		| -1.6302
  Polar		| 7.6641
  FragIndex	| 1
  FragRMSD	| 0.405

