@<TRIPOS>MOLECULE
BindingDB_50219574
 42 44 0 0 0
SMALL
NO_CHARGES


@<TRIPOS>ATOM
1    S        44.3330   14.2864    0.7771  S     
2    C        44.5045   15.6773    1.7678  C     
3    C        45.3977   15.3258    2.7831  C     
4    C        45.8504   13.9909    2.7367  C     
5    C        45.3744   13.2232    1.6517  C     
6    C        43.8104   16.8823    1.6058  C     
7    O        42.8682   17.0004    0.6477  O     
8    O        44.0379   17.9448    2.4101  O     
9    C        45.5726   11.8442    1.3324  C     
10   C        46.7623   11.1511    1.6718  C     
11   C        46.8948    9.7510    1.5302  C     
12   C        45.8558    9.0489    0.8759  C     
13   C        44.6961    9.7210    0.4515  C     
14   C        44.5504   11.0984    0.6947  C     
15   Br       46.8906   13.3745    4.1575  Br    
16   O        45.7257   16.1706    3.8052  O     
17   C        46.8466   17.0284    3.5188  C     
18   C        47.4024   17.5432    4.7767  C     
19   O        46.8411   17.2450    5.9692  O     
20   O        48.6490   18.0599    4.7871  O     
21   N        47.9978    9.1893    2.1022  N     
22   C        48.1056    8.0017    2.8923  C     
23   C        49.5277    7.5984    3.0316  C     
24   C        50.3248    8.1374    4.0755  C     
25   C        51.6711    7.7510    4.2177  C     
26   C        52.2440    6.8369    3.3107  C     
27   C        51.4652    6.2950    2.2700  C     
28   C        50.1158    6.6766    2.1297  C     
29   H        47.5534   11.6656    2.0563  H     
30   H        45.9134    8.0429    0.7043  H     
31   H        43.9480    9.2026   -0.0120  H     
32   H        43.6722   11.5380    0.4153  H     
33   H        47.6486   16.4954    2.9993  H     
34   H        46.5262   17.8676    2.8978  H     
35   H        48.8055    9.7245    2.0658  H     
36   H        47.7092    8.2363    3.8876  H     
37   H        47.5087    7.1712    2.5074  H     
38   H        49.9252    8.8082    4.7403  H     
39   H        52.2393    8.1457    4.9741  H     
40   H        53.2254    6.5592    3.4134  H     
41   H        51.8800    5.6276    1.6117  H     
42   H        49.5659    6.2785    1.3628  H     
@<TRIPOS>BOND
     1    1    2 1
     2    1    5 1
     3    2    3 2
     4    2    6 1
     5    3    4 1
     6    3   16 1
     7    4    5 2
     8    4   15 1
     9    5    9 1
    10    6    7 2
    11    6    8 1
    12    9   10 2
    13    9   14 1
    14   10   11 1
    15   11   12 2
    16   11   21 1
    17   12   13 1
    18   13   14 2
    19   16   17 1
    20   17   18 1
    21   18   19 1
    22   18   20 2
    23   21   22 1
    24   22   23 1
    25   23   24 2
    26   23   28 1
    27   24   25 1
    28   25   26 2
    29   26   27 1
    30   27   28 2
    31   10   29 1
    32   12   30 1
    33   13   31 1
    34   14   32 1
    35   17   33 1
    36   17   34 1
    37   21   35 1
    38   22   36 1
    39   22   37 1
    40   24   38 1
    41   25   39 1
    42   26   40 1
    43   27   41 1
    44   28   42 1
@<TRIPOS>PROPERTY_DATA
  Total_Score	| 11.1230
  Crash		| -1.3325
  Polar		| 7.6446
  FragIndex	| 1
  FragRMSD	| 1.218

