@<TRIPOS>MOLECULE
BindingDB_50219570
 64 67 0 0 0
SMALL
NO_CHARGES


@<TRIPOS>ATOM
1    C        49.9999    7.6528    2.2616  C     
2    N        52.3338    6.3239    3.5017  N     
3    C        52.0292    6.0826    2.0933  C     
4    C        50.5172    6.2620    1.7856  C     
5    C        50.3579    7.8389    3.7661  C     
6    C        51.8780    7.6223    3.9988  C     
7    S        44.2720   14.2220    0.8553  S     
8    C        44.4687   15.6393    1.8063  C     
9    C        45.3703   15.3019    2.8185  C     
10   C        45.8214   13.9664    2.8019  C     
11   C        45.3240   13.1827    1.7437  C     
12   C        43.8032   16.8592    1.6102  C     
13   O        42.8972   16.9888    0.6167  O     
14   O        44.0387   17.9338    2.3977  O     
15   C        45.5349   11.8033    1.4623  C     
16   C        46.7633   11.1556    1.7470  C     
17   C        46.9545    9.7769    1.5101  C     
18   C        45.8955    9.0388    0.9357  C     
19   C        44.6835    9.6683    0.6081  C     
20   C        44.5005   11.0332    0.8852  C     
21   O        45.7094   16.1579    3.8244  O     
22   C        46.8462   16.9900    3.5242  C     
23   C        47.4114   17.5060    4.7786  C     
24   O        48.6441   18.0530    4.7774  O     
25   O        46.8526   17.2079    5.9726  O     
26   N        48.1526    9.2434    1.8556  N     
27   C        48.4842    7.8540    1.9634  C     
28   C        53.0150    5.4526    4.2808  C     
29   O        53.2798    5.7611    5.4333  O     
30   N        53.5012    4.2993    3.8191  N     
31   C        54.2228    3.2969    4.4249  C     
32   C        55.2314    2.7463    3.5968  C     
33   C        55.9717    1.6184    3.9932  C     
34   C        55.7043    1.0090    5.2257  C     
35   C        54.7100    1.5414    6.0674  C     
36   C        53.9552    2.6798    5.6871  C     
37   C        52.8836    3.1384    6.6095  C     
38   Br       46.8826   13.3435    4.1999  Br    
39   H        50.5455    8.4118    1.6848  H     
40   H        52.6011    6.7949    1.4882  H     
41   H        52.3015    5.0871    1.7367  H     
42   H        49.9576    5.4652    2.2826  H     
43   H        50.3631    6.1612    0.7053  H     
44   H        50.0891    8.8507    4.0873  H     
45   H        49.7951    7.1283    4.3792  H     
46   H        52.0639    7.7755    5.0632  H     
47   H        52.4313    8.4094    3.4759  H     
48   H        47.5471   11.6960    2.1208  H     
49   H        45.9975    8.0416    0.7390  H     
50   H        43.9218    9.1274    0.1940  H     
51   H        43.5899   11.4476    0.6791  H     
52   H        47.6328   16.4315    3.0048  H     
53   H        46.5412   17.8385    2.9026  H     
54   H        48.8705    9.8679    2.0325  H     
55   H        48.2372    7.3651    1.0111  H     
56   H        47.8818    7.3935    2.7542  H     
57   H        53.4217    4.1843    2.8626  H     
58   H        55.4392    3.1660    2.6825  H     
59   H        56.7010    1.2413    3.3833  H     
60   H        56.2366    0.1837    5.5143  H     
61   H        54.5470    1.0824    6.9687  H     
62   H        53.1969    4.0761    7.0935  H     
63   H        52.6739    2.4095    7.3992  H     
64   H        51.9567    3.3006    6.0478  H     
@<TRIPOS>BOND
     1    1    4 1
     2    1    5 1
     3    1   27 1
     4    2    3 1
     5    2    6 1
     6    2   28 1
     7    3    4 1
     8    5    6 1
     9    7    8 1
    10    7   11 1
    11    8    9 2
    12    8   12 1
    13    9   10 1
    14    9   21 1
    15   10   11 2
    16   10   38 1
    17   11   15 1
    18   12   13 2
    19   12   14 1
    20   15   16 2
    21   15   20 1
    22   16   17 1
    23   17   18 2
    24   17   26 1
    25   18   19 1
    26   19   20 2
    27   21   22 1
    28   22   23 1
    29   23   24 1
    30   23   25 2
    31   26   27 1
    32   28   29 2
    33   28   30 am
    34   30   31 1
    35   31   32 2
    36   31   36 1
    37   32   33 1
    38   33   34 2
    39   34   35 1
    40   35   36 2
    41   36   37 1
    42    1   39 1
    43    3   40 1
    44    3   41 1
    45    4   42 1
    46    4   43 1
    47    5   44 1
    48    5   45 1
    49    6   46 1
    50    6   47 1
    51   16   48 1
    52   18   49 1
    53   19   50 1
    54   20   51 1
    55   22   52 1
    56   22   53 1
    57   26   54 1
    58   27   55 1
    59   27   56 1
    60   30   57 1
    61   32   58 1
    62   33   59 1
    63   34   60 1
    64   35   61 1
    65   37   62 1
    66   37   63 1
    67   37   64 1
@<TRIPOS>PROPERTY_DATA
  Total_Score	| 12.7164
  Crash		| -2.2239
  Polar		| 8.8436
  FragIndex	| 1
  FragRMSD	| 0.652

