@<TRIPOS>MOLECULE
BindingDB_50219579
 37 38 0 0 0
SMALL
NO_CHARGES


@<TRIPOS>ATOM
1    S        44.3884   14.2592    0.8224  S     
2    C        44.5015   15.6688    1.7990  C     
3    C        45.4001   15.3537    2.8274  C     
4    C        45.8930   14.0308    2.8096  C     
5    C        45.4459   13.2410    1.7365  C     
6    C        43.7854   16.8567    1.5938  C     
7    O        42.8852   16.9485    0.5910  O     
8    O        43.9555   17.9389    2.3861  O     
9    C        45.6825   11.8670    1.4615  C     
10   C        46.9624   11.2698    1.5918  C     
11   C        47.1843    9.8953    1.3315  C     
12   C        46.0853    9.1236    0.8751  C     
13   C        44.8102    9.6943    0.7243  C     
14   C        44.6119   11.0505    1.0321  C     
15   Br       46.9504   13.4116    4.2118  Br    
16   O        45.7031   16.2176    3.8420  O     
17   C        46.8136   17.0841    3.5421  C     
18   C        47.4008   17.5803    4.7977  C     
19   O        46.8387   17.2863    5.9928  O     
20   O        48.6587   18.0768    4.8035  O     
21   N        48.4583    9.3950    1.4653  N     
22   C        48.9603    8.6251    2.4313  C     
23   C        50.2980    8.0532    2.3930  C     
24   O        48.3137    8.3801    3.4445  O     
25   C        51.0279    8.0247    1.0284  C     
26   H        47.7652   11.8490    1.8605  H     
27   H        46.2019    8.1438    0.6070  H     
28   H        44.0304    9.1255    0.3848  H     
29   H        43.6641   11.4309    0.9373  H     
30   H        47.6072   16.5612    2.9978  H     
31   H        46.4754   17.9317    2.9432  H     
32   H        49.0792    9.6700    0.7739  H     
33   H        50.9292    8.6108    3.0906  H     
34   H        50.2359    7.0220    2.7474  H     
35   H        50.4371    7.4835    0.2834  H     
36   H        52.0022    7.5252    1.1345  H     
37   H        51.2017    9.0436    0.6791  H     
@<TRIPOS>BOND
     1    1    2 1
     2    1    5 1
     3    2    3 2
     4    2    6 1
     5    3    4 1
     6    3   16 1
     7    4    5 2
     8    4   15 1
     9    5    9 1
    10    6    7 2
    11    6    8 1
    12    9   10 2
    13    9   14 1
    14   10   11 1
    15   11   12 2
    16   11   21 1
    17   12   13 1
    18   13   14 2
    19   16   17 1
    20   17   18 1
    21   18   19 1
    22   18   20 2
    23   21   22 am
    24   22   23 1
    25   22   24 2
    26   23   25 1
    27   10   26 1
    28   12   27 1
    29   13   28 1
    30   14   29 1
    31   17   30 1
    32   17   31 1
    33   21   32 1
    34   23   33 1
    35   23   34 1
    36   25   35 1
    37   25   36 1
    38   25   37 1
@<TRIPOS>PROPERTY_DATA
  Total_Score	| 10.0682
  Crash		| -1.2283
  Polar		| 7.4911
  FragIndex	| 1
  FragRMSD	| 0.801

