@<TRIPOS>MOLECULE
BindingDB_50219573
 57 59 0 0 0
SMALL
NO_CHARGES


@<TRIPOS>ATOM
1    S        44.3034   14.2364    0.7401  S     
2    C        44.5297   15.5936    1.7816  C     
3    C        45.4394   15.1933    2.7648  C     
4    C        45.8765   13.8583    2.6502  C     
5    C        45.3575   13.1528    1.5533  C     
6    C        43.8781   16.8292    1.6340  C     
7    O        43.0109   16.9910    0.6165  O     
8    O        44.1515   17.9131    2.4011  O     
9    C        45.5884   11.8142    1.1836  C     
10   C        46.9060   11.2942    1.1198  C     
11   C        47.1279    9.9124    0.8799  C     
12   C        46.0224    9.0957    0.5756  C     
13   C        44.7163    9.6108    0.5680  C     
14   C        44.5011   10.9587    0.8942  C     
15   Br       46.9644   13.1080    3.9629  Br    
16   O        45.8272   15.9793    3.8032  O     
17   C        47.0631   16.6838    3.5728  C     
18   C        47.5306   17.1396    4.8828  C     
19   O        46.6614   17.7823    5.6912  O     
20   O        48.8435   17.3515    5.1219  O     
21   N        48.3909    9.4289    0.8195  N     
22   C        48.9633    8.5299    1.7969  C     
23   C        48.0741    7.3079    2.2470  C     
24   C        48.7393    6.2951    3.2484  C     
25   C        50.1459    5.8843    2.6915  C     
26   C        51.1110    7.0158    2.1741  C     
27   C        50.3230    8.0208    1.2552  C     
28   C        48.7739    6.8903    4.6953  C     
29   C        47.8121    5.0387    3.3051  C     
30   C        52.2478    6.3373    1.3263  C     
31   C        51.8335    7.7598    3.3496  C     
32   H        47.7155   11.8911    1.3181  H     
33   H        46.1593    8.1353    0.2635  H     
34   H        43.9147    9.0065    0.3370  H     
35   H        43.5438   11.3155    0.9115  H     
36   H        47.8242   16.0431    3.1299  H     
37   H        46.9023   17.5445    2.9118  H     
38   H        49.0489   10.0928    0.4799  H     
39   H        49.1567    9.1477    2.6594  H     
40   H        47.1744    7.6796    2.7259  H     
41   H        47.8223    6.7594    1.3387  H     
42   H        50.6549    5.2921    3.4514  H     
43   H        49.9659    5.2130    1.8473  H     
44   H        50.1363    7.5454    0.2907  H     
45   H        50.9681    8.8848    1.0508  H     
46   H        49.2335    7.8684    4.7206  H     
47   H        49.3272    6.2295    5.3583  H     
48   H        47.7655    7.0131    5.0975  H     
49   H        46.8160    5.3166    3.6520  H     
50   H        48.2220    4.2969    3.9854  H     
51   H        47.7001    4.5814    2.3215  H     
52   H        52.8101    5.6227    1.9320  H     
53   H        52.9510    7.0807    0.9440  H     
54   H        51.8349    5.7985    0.4693  H     
55   H        51.1727    8.4309    3.8857  H     
56   H        52.6473    8.3807    2.9712  H     
57   H        52.2653    7.0502    4.0607  H     
@<TRIPOS>BOND
     1    1    2 1
     2    1    5 1
     3    2    3 2
     4    2    6 1
     5    3    4 1
     6    3   16 1
     7    4    5 2
     8    4   15 1
     9    5    9 1
    10    6    7 2
    11    6    8 1
    12    9   10 2
    13    9   14 1
    14   10   11 1
    15   11   12 2
    16   11   21 1
    17   12   13 1
    18   13   14 2
    19   16   17 1
    20   17   18 1
    21   18   19 1
    22   18   20 2
    23   21   22 1
    24   22   23 1
    25   22   27 1
    26   23   24 1
    27   24   25 1
    28   24   28 1
    29   24   29 1
    30   25   26 1
    31   26   27 1
    32   26   30 1
    33   26   31 1
    34   10   32 1
    35   12   33 1
    36   13   34 1
    37   14   35 1
    38   17   36 1
    39   17   37 1
    40   21   38 1
    41   22   39 1
    42   23   40 1
    43   23   41 1
    44   25   42 1
    45   25   43 1
    46   27   44 1
    47   27   45 1
    48   28   46 1
    49   28   47 1
    50   28   48 1
    51   29   49 1
    52   29   50 1
    53   29   51 1
    54   30   52 1
    55   30   53 1
    56   30   54 1
    57   31   55 1
    58   31   56 1
    59   31   57 1
@<TRIPOS>PROPERTY_DATA
  Total_Score	| 11.4293
  Crash		| -1.5361
  Polar		| 7.4236
  FragIndex	| 1
  FragRMSD	| 0.925

