@<TRIPOS>MOLECULE
BindingDB_50219603
 29 30 0 0 0
SMALL
NO_CHARGES


@<TRIPOS>ATOM
1    S        44.2537   14.2351    0.8547  S     
2    C        44.4529   15.6434    1.8208  C     
3    C        45.3729   15.3067    2.8181  C     
4    C        45.8365   13.9773    2.7808  C     
5    C        45.3247   13.2052    1.7272  C     
6    C        43.7947   16.8667    1.6333  C     
7    O        42.9566   17.0304    0.5906  O     
8    O        44.0855   17.9536    2.3866  O     
9    C        45.5700   11.8427    1.4319  C     
10   C        46.8694   11.2938    1.5387  C     
11   C        47.1059    9.9345    1.2521  C     
12   C        46.0408    9.1123    0.8461  C     
13   C        44.7456    9.6454    0.7209  C     
14   C        44.5111   11.0001    1.0154  C     
15   Br       46.9600   13.3257    4.1183  Br    
16   O        45.7114   16.1755    3.8058  O     
17   C        46.8593   16.9888    3.4879  C     
18   C        47.4301   17.4131    4.7692  C     
19   O        48.6263   18.0388    4.8095  O     
20   O        46.9117   16.9428    5.9249  O     
21   N        48.3475    9.4292    1.3461  N     
22   H        47.6596   11.8888    1.8053  H     
23   H        46.2027    8.1265    0.6234  H     
24   H        43.9741    9.0462    0.4188  H     
25   H        43.5563   11.3615    0.9368  H     
26   H        47.6195   16.4205    2.9420  H     
27   H        46.5739   17.8688    2.9003  H     
28   H        48.5069    8.4974    1.1337  H     
29   H        49.0877    9.9997    1.6057  H     
@<TRIPOS>BOND
     1    1    2 1
     2    1    5 1
     3    2    3 2
     4    2    6 1
     5    3    4 1
     6    3   16 1
     7    4    5 2
     8    4   15 1
     9    5    9 1
    10    6    7 2
    11    6    8 1
    12    9   10 2
    13    9   14 1
    14   10   11 1
    15   11   12 2
    16   11   21 1
    17   12   13 1
    18   13   14 2
    19   16   17 1
    20   17   18 1
    21   18   19 1
    22   18   20 2
    23   10   22 1
    24   12   23 1
    25   13   24 1
    26   14   25 1
    27   17   26 1
    28   17   27 1
    29   21   28 1
    30   21   29 1
@<TRIPOS>PROPERTY_DATA
  Total_Score	| 9.5005
  Crash		| -1.2482
  Polar		| 7.9452
  FragIndex	| 1
  FragRMSD	| 0.111

