@<TRIPOS>MOLECULE
BindingDB_10074
 30 32 0 0 0
SMALL
NO_CHARGES


@<TRIPOS>ATOM
1    C        -0.5347   30.2941   10.2535  C     
2    C        -1.7088   30.7089   10.9167  C     
3    C        -2.2824   31.9670   10.6278  C     
4    C        -1.6824   32.8225    9.6782  C     
5    C         0.0556   31.1478    9.2961  C     
6    C         1.1762   31.0394    8.4983  C     
7    C        -0.5206   32.3887    9.0194  C     
8    C         1.2394   32.1944    7.7877  C     
9    N         0.2355   32.9881    8.1024  N     
10   O         2.1492   32.6006    7.0784  O     
11   C         2.0164   29.9833    8.5341  C     
12   C         3.1242   29.7138    7.7495  C     
13   C         5.0667   28.7847    7.1040  C     
14   C         4.1081   28.7852    8.1063  C     
15   C         4.6345   29.6824    6.1386  C     
16   N         3.4740   30.2143    6.5468  N     
17   O         4.1520   28.0638    9.2650  O     
18   C         3.3919   26.8394    9.1997  C     
19   F        -2.2680   29.9235   11.7979  F     
20   H        -0.1312   29.3802   10.4655  H     
21   H        -3.1343   32.2649   11.1097  H     
22   H        -2.0834   33.7376    9.4760  H     
23   H         0.1131   33.8903    7.7646  H     
24   H         1.8325   29.3099    9.2361  H     
25   H         5.9314   28.2364    7.0879  H     
26   H         5.1179   29.9013    5.2671  H     
27   H         2.9594   30.8572    6.0417  H     
28   H         2.3314   27.0311    9.0258  H     
29   H         3.4850   26.3322   10.1602  H     
30   H         3.7782   26.1803    8.4200  H     
@<TRIPOS>BOND
     1    1    2 1
     2    1    5 2
     3    2    3 2
     4    2   19 1
     5    3    4 1
     6    4    7 2
     7    5    6 1
     8    5    7 1
     9    6    8 1
    10    6   11 2
    11    7    9 1
    12    8    9 1
    13    8   10 2
    14   11   12 1
    15   12   14 2
    16   12   16 1
    17   13   14 1
    18   13   15 2
    19   14   17 1
    20   15   16 1
    21   17   18 1
    22    1   20 1
    23    3   21 1
    24    4   22 1
    25    9   23 1
    26   11   24 1
    27   13   25 1
    28   15   26 1
    29   16   27 1
    30   18   28 1
    31   18   29 1
    32   18   30 1
@<TRIPOS>PROPERTY_DATA
  Total_Score	| 6.4273
  Crash		| -0.4170
  Polar		| 2.2878
  FragIndex	| 1
  FragRMSD	| 0.399

