@<TRIPOS>MOLECULE
BindingDB_7239
 37 40 0 0 0
SMALL
NO_CHARGES


@<TRIPOS>ATOM
1    C        -0.1451   30.1689   10.3794  C     
2    C        -1.3378   30.5203   11.0540  C     
3    C        -2.0696   31.6608   10.6494  C     
4    C        -1.5976   32.4785    9.6043  C     
5    C         0.3334   30.9907    9.3351  C     
6    C         1.4465   30.9382    8.5122  C     
7    C        -0.3956   32.1239    8.9712  C     
8    C         1.3799   32.0744    7.7632  C     
9    O        -1.8081   29.7421   12.0766  O     
10   C        -1.1980   30.0504   13.3438  C     
11   N         0.2796   32.7482    8.0114  N     
12   O         2.2784   32.6213    7.1469  O     
13   C         2.3325   29.9142    8.4845  C     
14   C         3.3652   29.6658    7.5782  C     
15   C         4.6957   29.8344    5.8120  C     
16   N         3.6355   30.3499    6.4475  N     
17   C         4.2933   28.6097    7.6299  C     
18   C         5.1201   28.7272    6.5190  C     
19   C         6.1422   27.8191    6.2272  C     
20   C         5.6296   26.5353    8.2956  C     
21   C         4.4318   27.4988    8.5986  C     
22   O         6.9039   27.9427    5.1179  O     
23   O         6.3590   26.7860    7.0804  O     
24   H         0.3706   29.3365   10.6671  H     
25   H        -2.9400   31.9047   11.1279  H     
26   H        -2.1113   33.3155    9.3204  H     
27   H        -0.1230   29.8465   13.3271  H     
28   H        -1.6552   29.4160   14.1028  H     
29   H        -1.3658   31.0947   13.6278  H     
30   H         0.0676   33.6299    7.6557  H     
31   H         2.2190   29.2174    9.1829  H     
32   H         5.1062   30.1785    4.9467  H     
33   H         3.1268   31.0993    6.1119  H     
34   H         6.3614   26.5946    9.1036  H     
35   H         5.2662   25.5068    8.2513  H     
36   H         4.5543   27.9281    9.5937  H     
37   H         3.5000   26.9279    8.5906  H     
@<TRIPOS>BOND
     1    1    2 1
     2    1    5 2
     3    2    3 2
     4    2    9 1
     5    3    4 1
     6    4    7 2
     7    5    6 1
     8    5    7 1
     9    6    8 1
    10    6   13 2
    11    7   11 1
    12    8   11 1
    13    8   12 2
    14    9   10 1
    15   13   14 1
    16   14   16 1
    17   14   17 2
    18   15   16 1
    19   15   18 2
    20   17   18 1
    21   17   21 1
    22   18   19 1
    23   19   22 2
    24   19   23 1
    25   20   21 1
    26   20   23 1
    27    1   24 1
    28    3   25 1
    29    4   26 1
    30   10   27 1
    31   10   28 1
    32   10   29 1
    33   11   30 1
    34   13   31 1
    35   15   32 1
    36   16   33 1
    37   20   34 1
    38   20   35 1
    39   21   36 1
    40   21   37 1
@<TRIPOS>PROPERTY_DATA
  Total_Score	| 6.2253
  Crash		| -1.6911
  Polar		| 2.0794
  FragIndex	| 1
  FragRMSD	| 0.329

