@<TRIPOS>MOLECULE
BindingDB_10086
 51 54 0 0 0
SMALL
NO_CHARGES


@<TRIPOS>ATOM
1    C        -1.1766   30.6963   10.1838  C     
2    C        -2.3374   31.3912   10.6743  C     
3    C        -2.4055   32.8015   10.5491  C     
4    C        -1.4988   33.4895    9.7407  C     
5    C        -0.2682   31.3959    9.3310  C     
6    C         0.9166   31.1186    8.6262  C     
7    C        -0.5023   32.7551    9.0986  C     
8    C         1.2622   32.2645    7.9705  C     
9    N         0.4183   33.2240    8.2636  N     
10   O         2.3497   32.5694    7.4706  O     
11   C         1.6416   29.9839    8.6859  C     
12   C         2.7593   29.6184    7.9354  C     
13   C         4.7023   28.6587    7.3780  C     
14   C         3.7298   28.7044    8.3636  C     
15   C         4.2880   29.4926    6.3455  C     
16   N         3.1282   30.0454    6.7104  N     
17   O         3.7782   28.0659    9.5734  O     
18   C         3.0852   26.8004    9.5916  C     
19   N        -3.4764   30.7461   11.0705  N     
20   O        -4.4395   31.2998   11.5525  O     
21   O        -3.7594   29.5679   10.5762  O     
22   N        -0.9458   29.3882   10.5117  N     
23   C        -0.9196   28.8783   11.8713  C     
24   C        -0.2391   27.4807   11.7926  C     
25   C        -0.2174   26.6993   13.1240  C     
26   C        -1.6319   26.5690   13.7452  C     
27   C        -2.2689   27.9630   13.9332  C     
28   C        -2.3090   28.7533   12.5962  C     
29   O        -1.5554   25.8824   14.9955  O     
30   H        -3.1948   33.3227   10.9409  H     
31   H        -1.6071   34.4896    9.5842  H     
32   H         0.5022   34.1641    8.0029  H     
33   H         1.3732   29.3233    9.3647  H     
34   H         5.5627   28.1170    7.4044  H     
35   H         4.7836   29.6945    5.4824  H     
36   H         2.6351   30.6761    6.1734  H     
37   H         2.0171   26.9228    9.3842  H     
38   H         3.2021   26.3624   10.5905  H     
39   H         3.5147   26.1107    8.8598  H     
40   H        -0.3284   28.9248    9.9257  H     
41   H        -0.2815   29.5137   12.4835  H     
42   H        -0.7582   26.8650   11.0594  H     
43   H         0.7989   27.5873   11.4506  H     
44   H         0.1932   25.7049   12.9530  H     
45   H         0.4292   27.2139   13.8315  H     
46   H        -2.2591   25.9744   13.0836  H     
47   H        -3.2854   27.8293   14.3223  H     
48   H        -1.6964   28.5369   14.6642  H     
49   H        -2.6881   29.7479   12.8569  H     
50   H        -3.0193   28.2662   11.9241  H     
51   H        -1.2836   26.5784   15.6351  H     
@<TRIPOS>BOND
     1    1    2 1
     2    1    5 2
     3    1   22 1
     4    2    3 2
     5    2   19 am
     6    3    4 1
     7    4    7 2
     8    5    6 1
     9    5    7 1
    10    6    8 1
    11    6   11 2
    12    7    9 1
    13    8    9 1
    14    8   10 2
    15   11   12 1
    16   12   14 2
    17   12   16 1
    18   13   14 1
    19   13   15 2
    20   14   17 1
    21   15   16 1
    22   17   18 1
    23   19   20 2
    24   19   21 1
    25   23   22 1
    26   23   24 1
    27   23   28 1
    28   24   25 1
    29   25   26 1
    30   26   27 1
    31   26   29 1
    32   27   28 1
    33    3   30 1
    34    4   31 1
    35    9   32 1
    36   11   33 1
    37   13   34 1
    38   15   35 1
    39   16   36 1
    40   18   37 1
    41   18   38 1
    42   18   39 1
    43   22   40 1
    44   23   41 1
    45   24   42 1
    46   24   43 1
    47   25   44 1
    48   25   45 1
    49   26   46 1
    50   27   47 1
    51   27   48 1
    52   28   49 1
    53   28   50 1
    54   29   51 1
@<TRIPOS>PROPERTY_DATA
  Total_Score	| 6.3045
  Crash		| -3.9099
  Polar		| 3.1237
  FragIndex	| 1
  FragRMSD	| 0.846

