@<TRIPOS>MOLECULE
BindingDB_10089
 50 53 0 0 0
SMALL
NO_CHARGES


@<TRIPOS>ATOM
1    C        -1.0464   30.6309   10.2393  C     
2    C        -2.1780   31.3091   10.8073  C     
3    C        -2.3139   32.7136   10.6542  C     
4    C        -1.4972   33.4135    9.7626  C     
5    C        -0.1985   31.3664    9.3476  C     
6    C         0.9612   31.1207    8.5960  C     
7    C        -0.4920   32.7107    9.0983  C     
8    C         1.2202   32.2650    7.8965  C     
9    N         0.3553   33.1949    8.2030  N     
10   O         2.2108   32.5796    7.2570  O     
11   C         1.7661   30.0397    8.6885  C     
12   C         2.8794   29.7067    7.9191  C     
13   C         4.8011   28.7297    7.2693  C     
14   C         3.8541   28.7714    8.2859  C     
15   C         4.3652   29.5992    6.2801  C     
16   N         3.2115   30.1506    6.6889  N     
17   O         3.9104   28.0778    9.4601  O     
18   C         3.2465   26.8049    9.3859  C     
19   N        -3.2797   30.6407   11.2409  N     
20   O        -4.1979   31.1485   11.8317  O     
21   O        -3.6111   29.5807   10.5763  O     
22   N        -0.8046   29.3022   10.4596  N     
23   C        -0.6100   28.6252   11.7358  C     
24   C        -1.8337   28.4560   12.7121  C     
25   C        -1.7538   27.2500   13.6927  C     
26   C         0.2644   26.3048   12.6231  C     
27   C         0.0011   27.2286   11.3970  C     
28   N        -0.3761   26.7593   13.8731  N     
29   H        -3.1044   33.2206   11.0631  H     
30   H        -1.6629   34.4024    9.5710  H     
31   H         0.3715   34.1121    7.8836  H     
32   H         1.5771   29.4173    9.4300  H     
33   H         5.6478   28.1576    7.2479  H     
34   H         4.8290   29.7753    5.3880  H     
35   H         2.6883   30.7753    6.1631  H     
36   H         2.1900   26.9170    9.1250  H     
37   H         3.3046   26.3385   10.3694  H     
38   H         3.7354   26.1433    8.6653  H     
39   H        -0.3602   28.8600    9.7214  H     
40   H         0.1660   29.1715   12.2832  H     
41   H        -1.9040   29.3645   13.3178  H     
42   H        -2.7849   28.3541   12.1748  H     
43   H        -2.1510   27.5345   14.6716  H     
44   H        -2.3617   26.4226   13.3165  H     
45   H        -0.0868   25.2926   12.4007  H     
46   H         1.3351   26.2384   12.8145  H     
47   H        -0.6819   26.7103   10.7162  H     
48   H         0.9483   27.3673   10.8699  H     
49   H         0.1813   27.5094   14.2839  H     
50   H        -0.3893   25.9770   14.5313  H     
@<TRIPOS>BOND
     1    1    2 1
     2    1    5 2
     3    1   22 1
     4    2    3 2
     5    2   19 am
     6    3    4 1
     7    4    7 2
     8    5    6 1
     9    5    7 1
    10    6    8 1
    11    6   11 2
    12    7    9 1
    13    8    9 1
    14    8   10 2
    15   11   12 1
    16   12   14 2
    17   12   16 1
    18   13   14 1
    19   13   15 2
    20   14   17 1
    21   15   16 1
    22   17   18 1
    23   19   20 2
    24   19   21 1
    25   22   23 1
    26   23   24 1
    27   23   27 1
    28   24   25 1
    29   25   28 1
    30   26   27 1
    31   26   28 1
    32    3   29 1
    33    4   30 1
    34    9   31 1
    35   11   32 1
    36   13   33 1
    37   15   34 1
    38   16   35 1
    39   18   36 1
    40   18   37 1
    41   18   38 1
    42   22   39 1
    43   23   40 1
    44   24   41 1
    45   24   42 1
    46   25   43 1
    47   25   44 1
    48   26   45 1
    49   26   46 1
    50   27   47 1
    51   27   48 1
    52   28   49 1
    53   28   50 1
@<TRIPOS>PROPERTY_DATA
  Total_Score	| 7.5377
  Crash		| -2.2620
  Polar		| 2.3846
  FragIndex	| 1
  FragRMSD	| 0.744

