@<TRIPOS>MOLECULE
BindingDB_7253
 38 41 0 0 0
SMALL
NO_CHARGES


@<TRIPOS>ATOM
1    C        -0.3577   30.2501   10.3864  C     
2    C        -1.5092   30.6631   11.0946  C     
3    C        -2.1639   31.8643   10.7371  C     
4    C        -1.6533   32.6779    9.7062  C     
5    C         0.1610   31.0683    9.3579  C     
6    C         1.2604   30.9642    8.5201  C     
7    C        -0.4914   32.2591    9.0401  C     
8    C         1.2556   32.1145    7.7903  C     
9    N         0.2109   32.8573    8.0808  N     
10   O         2.1482   32.5883    7.1066  O     
11   C         2.0808   29.8879    8.4871  C     
12   C         3.1537   29.5888    7.6475  C     
13   C         4.7055   29.7044    6.0600  C     
14   N         3.6461   30.3092    6.6174  N     
15   C         3.9193   28.4110    7.6976  C     
16   C         4.9050   28.4991    6.7170  C     
17   C         5.8387   27.5015    6.5192  C     
18   C         4.6131   26.0007    8.0013  C     
19   C         3.8104   27.2153    8.5715  C     
20   O         6.7638   27.6557    5.7351  O     
21   N         5.7388   26.3565    7.1786  N     
22   O        -2.0136   29.8893   12.1050  O     
23   C        -1.2752   30.0102   13.3342  C     
24   H         0.0999   29.3732   10.6398  H     
25   H        -3.0066   32.1551   11.2392  H     
26   H        -2.1107   33.5563    9.4548  H     
27   H         0.0400   33.7496    7.7311  H     
28   H         1.8909   29.1872    9.1618  H     
29   H         5.2539   30.0651    5.2754  H     
30   H         3.2810   31.1402    6.2870  H     
31   H         4.9639   25.3723    8.8221  H     
32   H         3.9472   25.3904    7.3828  H     
33   H         4.1889   27.4845    9.5617  H     
34   H         2.7606   26.9268    8.6698  H     
35   H         6.3986   25.6678    6.9970  H     
36   H        -0.2497   29.6524   13.2178  H     
37   H        -1.7670   29.3941   14.0868  H     
38   H        -1.2616   31.0419   13.6962  H     
@<TRIPOS>BOND
     1    1    2 1
     2    1    5 2
     3    2    3 2
     4    2   22 1
     5    3    4 1
     6    4    7 2
     7    5    6 1
     8    5    7 1
     9    6    8 1
    10    6   11 2
    11    7    9 1
    12    8    9 1
    13    8   10 2
    14   11   12 1
    15   12   14 1
    16   12   15 2
    17   13   14 1
    18   13   16 2
    19   15   16 1
    20   15   19 1
    21   16   17 1
    22   17   20 2
    23   17   21 1
    24   18   19 1
    25   18   21 1
    26   22   23 1
    27    1   24 1
    28    3   25 1
    29    4   26 1
    30    9   27 1
    31   11   28 1
    32   13   29 1
    33   14   30 1
    34   18   31 1
    35   18   32 1
    36   19   33 1
    37   19   34 1
    38   21   35 1
    39   23   36 1
    40   23   37 1
    41   23   38 1
@<TRIPOS>PROPERTY_DATA
  Total_Score	| 6.8658
  Crash		| -0.7616
  Polar		| 2.1795
  FragIndex	| 1
  FragRMSD	| 0.388

