@<TRIPOS>MOLECULE
BindingDB_10084
 48 51 0 0 0
SMALL
NO_CHARGES


@<TRIPOS>ATOM
1    C        -0.7081   30.3105   10.3732  C     
2    C        -2.0227   30.7234   10.7948  C     
3    C        -2.5341   31.9565   10.3042  C     
4    C        -1.8323   32.7329    9.3776  C     
5    C         0.0079   31.1040    9.4145  C     
6    C         1.2427   31.0564    8.7465  C     
7    C        -0.5958   32.2691    8.9346  C     
8    C         1.2944   32.1577    7.9456  C     
9    N         0.2018   32.8632    8.0571  N     
10   O         2.2649   32.6630    7.4053  O     
11   C         2.2067   30.1193    8.8751  C     
12   C         3.2496   29.8113    7.9979  C     
13   C         5.0828   28.8292    7.1276  C     
14   C         4.2341   28.8424    8.2288  C     
15   C         4.5652   29.7319    6.2156  C     
16   N         3.4661   30.2830    6.7517  N     
17   O         4.2946   28.0109    9.3105  O     
18   C         3.6538   26.7428    9.0640  C     
19   N        -2.8507   29.9757   11.5948  N     
20   O        -3.9465   30.3352   11.9410  O     
21   O        -2.6021   28.7549   11.9496  O     
22   C         0.4840   26.5946   12.1846  C     
23   C        -0.0408   27.8037   13.0247  C     
24   C         0.1761   29.1944   12.3542  C     
25   C         0.1795   28.0541   10.1058  C     
26   C         1.0863   27.0224   10.8240  C     
27   N        -0.1201   29.2095   10.9310  N     
28   O        -0.5514   25.6360   11.9537  O     
29   H        -3.4532   32.2994   10.5936  H     
30   H        -2.2180   33.6101    9.0265  H     
31   H         0.0491   33.7360    7.6544  H     
32   H         2.1580   29.5506    9.6814  H     
33   H         5.8990   28.2298    6.9908  H     
34   H         4.9442   29.9270    5.2884  H     
35   H         2.9027   30.9201    6.2878  H     
36   H         2.6438   26.8669    8.6709  H     
37   H         3.5784   26.2023   10.0047  H     
38   H         4.2409   26.1381    8.3717  H     
39   H         1.2661   26.0793   12.7475  H     
40   H        -1.1016   27.6690   13.2383  H     
41   H         0.4526   27.8070   13.9984  H     
42   H        -0.4035   29.9417   12.9066  H     
43   H         1.2281   29.4642   12.4699  H     
44   H         0.6700   28.3522    9.1795  H     
45   H        -0.7536   27.5645    9.8204  H     
46   H         2.0568   27.4842   11.0087  H     
47   H         1.2542   26.1503   10.1893  H     
48   H        -0.9268   25.4411   12.8378  H     
@<TRIPOS>BOND
     1    1    2 1
     2    1    5 2
     3    1   27 1
     4    2    3 2
     5    2   19 am
     6    3    4 1
     7    4    7 2
     8    5    6 1
     9    5    7 1
    10    6    8 1
    11    6   11 2
    12    7    9 1
    13    8    9 1
    14    8   10 2
    15   11   12 1
    16   12   14 2
    17   12   16 1
    18   13   14 1
    19   13   15 2
    20   14   17 1
    21   15   16 1
    22   17   18 1
    23   19   20 2
    24   19   21 1
    25   22   23 1
    26   22   26 1
    27   22   28 1
    28   23   24 1
    29   24   27 1
    30   25   26 1
    31   25   27 1
    32    3   29 1
    33    4   30 1
    34    9   31 1
    35   11   32 1
    36   13   33 1
    37   15   34 1
    38   16   35 1
    39   18   36 1
    40   18   37 1
    41   18   38 1
    42   22   39 1
    43   23   40 1
    44   23   41 1
    45   24   42 1
    46   24   43 1
    47   25   44 1
    48   25   45 1
    49   26   46 1
    50   26   47 1
    51   28   48 1
@<TRIPOS>PROPERTY_DATA
  Total_Score	| 7.2744
  Crash		| -2.4144
  Polar		| 3.2368
  FragIndex	| 1
  FragRMSD	| 0.393

