@<TRIPOS>MOLECULE
BindingDB_10075
 34 36 0 0 0
SMALL
NO_CHARGES


@<TRIPOS>ATOM
1    C        -0.3646   30.3404   10.4100  C     
2    C        -1.5357   30.7455   11.1004  C     
3    C        -2.1842   31.9408   10.7180  C     
4    C        -1.6710   32.7473    9.6831  C     
5    C         0.1598   31.1568    9.3843  C     
6    C         1.2785   31.0573    8.5738  C     
7    C        -0.5033   32.3287    9.0273  C     
8    C         1.2529   32.1714    7.7931  C     
9    N         0.1937   32.9065    8.0569  N     
10   O         2.1493   32.6166    7.0976  O     
11   C         2.1863   30.0573    8.6410  C     
12   C         3.2631   29.7786    7.8037  C     
13   C         5.1570   28.8375    7.0253  C     
14   C         4.2631   28.8391    8.0880  C     
15   C         4.6635   29.7365    6.0916  C     
16   N         3.5316   30.2699    6.5787  N     
17   O         4.3676   28.0895    9.2226  O     
18   C         3.4966   26.9384    9.1938  C     
19   O        -2.1263   29.9850   12.0779  O     
20   C        -1.4132   29.9263   13.3412  C     
21   H         0.0885   29.4590   10.6653  H     
22   H        -3.0368   32.2370   11.1981  H     
23   H        -2.1330   33.6176    9.4180  H     
24   H         0.0068   33.7766    7.6743  H     
25   H         2.0767   29.4201    9.3996  H     
26   H         6.0005   28.2732    6.9404  H     
27   H         5.0864   29.9467    5.1868  H     
28   H         2.9802   30.9079    6.0993  H     
29   H         2.4559   27.2182    9.0257  H     
30   H         3.5550   26.4402   10.1638  H     
31   H         3.8178   26.2267    8.4251  H     
32   H        -0.4958   29.3267   13.2369  H     
33   H        -2.0590   29.4342   14.0703  H     
34   H        -1.1599   30.9301   13.7176  H     
@<TRIPOS>BOND
     1    1    2 1
     2    1    5 2
     3    2    3 2
     4    2   19 1
     5    3    4 1
     6    4    7 2
     7    5    6 1
     8    5    7 1
     9    6    8 1
    10    6   11 2
    11    7    9 1
    12    8    9 1
    13    8   10 2
    14   11   12 1
    15   12   14 2
    16   12   16 1
    17   13   14 1
    18   13   15 2
    19   14   17 1
    20   15   16 1
    21   17   18 1
    22   19   20 1
    23    1   21 1
    24    3   22 1
    25    4   23 1
    26    9   24 1
    27   11   25 1
    28   13   26 1
    29   15   27 1
    30   16   28 1
    31   18   29 1
    32   18   30 1
    33   18   31 1
    34   20   32 1
    35   20   33 1
    36   20   34 1
@<TRIPOS>PROPERTY_DATA
  Total_Score	| 7.6745
  Crash		| -0.5593
  Polar		| 2.2374
  FragIndex	| 1
  FragRMSD	| 0.325

