@<TRIPOS>MOLECULE
BindingDB_10076
 32 34 0 0 0
SMALL
NO_CHARGES


@<TRIPOS>ATOM
1    C        -0.4920   30.2302   10.2756  C     
2    C        -1.7498   30.5411   10.8599  C     
3    C        -2.3859   31.7538   10.4728  C     
4    C        -1.7986   32.6288    9.5382  C     
5    C         0.0930   31.1007    9.3286  C     
6    C         1.2542   31.0478    8.5794  C     
7    C        -0.5646   32.2753    8.9776  C     
8    C         1.2696   32.1959    7.8513  C     
9    N         0.1929   32.9131    8.0864  N     
10   O         2.1948   32.6654    7.2088  O     
11   C         2.1303   30.0235    8.6226  C     
12   C         3.2197   29.7603    7.8023  C     
13   C         5.1311   28.8290    7.0560  C     
14   C         4.2162   28.8251    8.1025  C     
15   C         4.6514   29.7286    6.1153  C     
16   N         3.5093   30.2587    6.5823  N     
17   O         4.2927   28.0745    9.2389  O     
18   C         3.4911   26.8830    9.1622  C     
19   N        -2.3317   29.6914   11.7560  N     
20   O        -3.4286   29.8811   12.2133  O     
21   O        -1.7469   28.5977   12.1647  O     
22   H        -0.0125   29.3614   10.5195  H     
23   H        -3.2880   32.0182   10.8754  H     
24   H        -2.2599   33.5017    9.2741  H     
25   H         0.0131   33.7976    7.7236  H     
26   H         1.9783   29.3477    9.3350  H     
27   H         5.9830   28.2695    6.9853  H     
28   H         5.0915   29.9511    5.2193  H     
29   H         2.9627   30.8937    6.0949  H     
30   H         2.4453   27.1108    8.9481  H     
31   H         3.5299   26.3839   10.1291  H     
32   H         3.8778   26.1978    8.4025  H     
@<TRIPOS>BOND
     1    1    2 1
     2    1    5 2
     3    2    3 2
     4    2   19 am
     5    3    4 1
     6    4    7 2
     7    5    6 1
     8    5    7 1
     9    6    8 1
    10    6   11 2
    11    7    9 1
    12    8    9 1
    13    8   10 2
    14   11   12 1
    15   12   14 2
    16   12   16 1
    17   13   14 1
    18   13   15 2
    19   14   17 1
    20   15   16 1
    21   17   18 1
    22   19   20 2
    23   19   21 1
    24    1   22 1
    25    3   23 1
    26    4   24 1
    27    9   25 1
    28   11   26 1
    29   13   27 1
    30   15   28 1
    31   16   29 1
    32   18   30 1
    33   18   31 1
    34   18   32 1
@<TRIPOS>PROPERTY_DATA
  Total_Score	| 6.0450
  Crash		| -0.7079
  Polar		| 2.2588
  FragIndex	| 1
  FragRMSD	| 0.325

