@<TRIPOS>MOLECULE
BindingDB_10087
 48 51 0 0 0
SMALL
NO_CHARGES


@<TRIPOS>ATOM
1    C         3.0417   28.6644    8.5378  C     
2    C         4.2634   28.2267    7.9005  C     
3    C         4.9037   29.0950    6.9779  C     
4    C         4.3394   30.3138    6.6061  C     
5    C         2.5329   29.9815    8.2596  C     
6    C         1.4138   30.7703    8.5589  C     
7    C         3.1646   30.7134    7.2439  C     
8    C         1.3161   31.6952    7.5805  C     
9    N         2.4130   31.7382    6.8892  N     
10   O         0.3743   32.4067    7.2836  O     
11   C         0.7153   30.7774    9.7136  C     
12   C        -0.3780   31.5300   10.1072  C     
13   C        -2.2621   32.1966   11.1224  C     
14   C        -1.3289   31.1727   11.0767  C     
15   C        -1.8278   33.1878   10.2495  C     
16   N        -0.6842   32.7707    9.6846  N     
17   O        -1.3768   30.0235   11.8263  O     
18   C        -0.7908   30.2190   13.1321  C     
19   N         4.8748   27.0185    8.1440  N     
20   O         5.8575   26.6297    7.5633  O     
21   O         4.4557   26.1561    9.0298  O     
22   N         2.2803   27.6673    9.0724  N     
23   C         1.6678   27.5287   10.3573  C     
24   C         0.7167   25.6708   11.7428  C     
25   C        -0.3040   26.8062   11.5860  C     
26   C         0.1238   27.5137   10.2888  C     
27   C         1.9907   26.1583   11.0133  C     
28   O         0.9498   25.3564   13.1184  O     
29   H         5.7681   28.8183    6.5119  H     
30   H         4.7513   30.8764    5.8538  H     
31   H         2.5433   32.2849    6.1082  H     
32   H         1.0443   30.1863   10.4192  H     
33   H        -3.0959   32.2402   11.7167  H     
34   H        -2.2802   34.0920   10.0858  H     
35   H        -0.1423   33.2955    9.0636  H     
36   H         0.2821   30.4519   13.0686  H     
37   H        -0.9060   29.2844   13.6908  H     
38   H        -1.3041   30.9967   13.7036  H     
39   H         2.4027   26.7941    8.6267  H     
40   H         2.0368   28.2794   11.0490  H     
41   H         0.3300   24.7680   11.2486  H     
42   H        -1.3310   26.4287   11.5397  H     
43   H        -0.2213   27.4923   12.4310  H     
44   H        -0.3446   28.4879   10.2360  H     
45   H        -0.2344   26.9463    9.4214  H     
46   H         2.2661   25.4114   10.2556  H     
47   H         2.8324   26.2692   11.7070  H     
48   H         0.0714   25.0663   13.4593  H     
@<TRIPOS>BOND
     1    1    2 1
     2    1    5 2
     3    1   22 1
     4    2    3 2
     5    2   19 am
     6    3    4 1
     7    4    7 2
     8    5    6 1
     9    5    7 1
    10    6    8 1
    11    6   11 2
    12    7    9 1
    13    8    9 1
    14    8   10 2
    15   11   12 1
    16   12   14 2
    17   12   16 1
    18   13   14 1
    19   13   15 2
    20   14   17 1
    21   15   16 1
    22   17   18 1
    23   19   20 2
    24   19   21 1
    25   23   22 1
    26   23   26 1
    27   23   27 1
    28   24   25 1
    29   24   27 1
    30   24   28 1
    31   25   26 1
    32    3   29 1
    33    4   30 1
    34    9   31 1
    35   11   32 1
    36   13   33 1
    37   15   34 1
    38   16   35 1
    39   18   36 1
    40   18   37 1
    41   18   38 1
    42   22   39 1
    43   23   40 1
    44   24   41 1
    45   25   42 1
    46   25   43 1
    47   26   44 1
    48   26   45 1
    49   27   46 1
    50   27   47 1
    51   28   48 1
@<TRIPOS>PROPERTY_DATA
  Total_Score	| 2.8582
  Crash		| -3.5942
  Polar		| 0.2853
  FragIndex	| 1
  FragRMSD	| 1.462

