@<TRIPOS>MOLECULE
BindingDB_10088
 50 53 0 0 0
SMALL
NO_CHARGES


@<TRIPOS>ATOM
1    C        -0.6516   30.2427   10.2139  C     
2    C        -1.8391   30.7428   10.8504  C     
3    C        -2.3592   31.9982   10.4178  C     
4    C        -1.7238   32.7794    9.4468  C     
5    C         0.0017   31.0592    9.2356  C     
6    C         1.1715   30.9733    8.4374  C     
7    C        -0.5503   32.2916    8.8849  C     
8    C         1.2505   32.1320    7.7287  C     
9    N         0.2226   32.8903    7.9850  N     
10   O         2.2246   32.5806    7.1567  O     
11   C         2.0998   29.9827    8.5065  C     
12   C         3.2037   29.7211    7.6893  C     
13   C         5.0860   28.7484    6.9087  C     
14   C         4.1051   28.6618    7.8936  C     
15   C         4.7292   29.8212    6.0987  C     
16   N         3.5908   30.3596    6.5672  N     
17   O         3.9873   27.7164    8.8847  O     
18   C         4.1905   26.3604    8.4354  C     
19   N        -2.5620   30.0404   11.7551  N     
20   O        -3.7489   30.2134   11.9204  O     
21   O        -1.9623   29.4711   12.7631  O     
22   N        -0.3658   28.9048   10.1967  N     
23   C         0.2653   28.0763   11.2046  C     
24   C         1.7260   26.0487   11.2629  C     
25   C         0.5595   25.9149   12.2641  C     
26   C        -0.5331   26.8353   11.6813  C     
27   C         1.5531   27.4376   10.6250  C     
28   N         3.0474   25.8635   11.8781  N     
29   H        -3.2235   32.3673   10.8251  H     
30   H        -2.1140   33.6914    9.1505  H     
31   H         0.1128   33.7948    7.6523  H     
32   H         1.9861   29.3686    9.2730  H     
33   H         5.9004   28.1390    6.7779  H     
34   H         5.2491   30.1371    5.2769  H     
35   H         3.1195   31.1254    6.1669  H     
36   H         3.7490   26.1555    7.4563  H     
37   H         3.7022   25.7131    9.1684  H     
38   H         5.2477   26.1134    8.4207  H     
39   H        -0.3285   28.5204    9.2945  H     
40   H         0.5482   28.6833   12.0741  H     
41   H         1.6012   25.2814   10.4910  H     
42   H         0.2207   24.8838   12.3440  H     
43   H         0.8691   26.2666   13.2640  H     
44   H        -1.2582   27.0786   12.4528  H     
45   H        -1.0427   26.3543   10.8422  H     
46   H         1.4538   27.2946    9.5473  H     
47   H         2.4128   28.0838   10.8216  H     
48   H         3.1979   26.5809   12.5979  H     
49   H         3.7743   25.9567   11.1647  H     
50   H         3.0930   24.9291   12.2853  H     
@<TRIPOS>BOND
     1    1    2 1
     2    1    5 2
     3    1   22 1
     4    2    3 2
     5    2   19 am
     6    3    4 1
     7    4    7 2
     8    5    6 1
     9    5    7 1
    10    6    8 1
    11    6   11 2
    12    7    9 1
    13    8    9 1
    14    8   10 2
    15   11   12 1
    16   12   14 2
    17   12   16 1
    18   13   14 1
    19   13   15 2
    20   14   17 1
    21   15   16 1
    22   17   18 1
    23   19   20 2
    24   19   21 1
    25   23   22 1
    26   23   26 1
    27   23   27 1
    28   24   25 1
    29   24   27 1
    30   24   28 1
    31   25   26 1
    32    3   29 1
    33    4   30 1
    34    9   31 1
    35   11   32 1
    36   13   33 1
    37   15   34 1
    38   16   35 1
    39   18   36 1
    40   18   37 1
    41   18   38 1
    42   22   39 1
    43   23   40 1
    44   24   41 1
    45   25   42 1
    46   25   43 1
    47   26   44 1
    48   26   45 1
    49   27   46 1
    50   27   47 1
    51   28   48 1
    52   28   49 1
    53   28   50 1
@<TRIPOS>PROPERTY_DATA
  Total_Score	| 9.5473
  Crash		| -1.7431
  Polar		| 3.7864
  FragIndex	| 1
  FragRMSD	| 0.430

