@<TRIPOS>MOLECULE
BindingDB_10090
 50 53 0 0 0
SMALL
NO_CHARGES


@<TRIPOS>ATOM
1    C        -0.6200   30.2362   10.3400  C     
2    C        -1.9284   30.6702   10.7715  C     
3    C        -2.3902   31.9468   10.3286  C     
4    C        -1.6556   32.7364    9.4438  C     
5    C         0.1265   31.0265    9.4035  C     
6    C         1.3465   30.9331    8.6945  C     
7    C        -0.4355   32.2393    8.9846  C     
8    C         1.4202   32.0665    7.9338  C     
9    N         0.3681   32.8242    8.1100  N     
10   O         2.3895   32.5358    7.3508  O     
11   C         2.2861   29.9563    8.7410  C     
12   C         3.2964   29.6870    7.8057  C     
13   C         5.0623   28.7400    6.7524  C     
14   C         4.2070   28.6186    7.8499  C     
15   C         4.6153   29.8304    6.0218  C     
16   N         3.5667   30.3708    6.6681  N     
17   O         4.2011   27.6141    8.7760  O     
18   C         4.5242   26.3133    8.2386  C     
19   N        -2.7871   29.9243   11.5354  N     
20   O        -3.8913   30.3013   11.8461  O     
21   O        -2.5430   28.7209   11.9622  O     
22   C         1.5333   26.7467   11.3907  C     
23   C         1.0254   27.0133    9.9305  C     
24   C        -0.2401   27.8966    9.8609  C     
25   C         0.2676   28.8362   12.1342  C     
26   C         0.5855   27.3499   12.4696  C     
27   N        -0.1287   29.0323   10.7488  N     
28   N         2.8763   27.3051   11.6110  N     
29   H        -3.2999   32.3120   10.6266  H     
30   H        -2.0021   33.6410    9.1192  H     
31   H         0.2421   33.7205    7.7441  H     
32   H         2.2449   29.3083    9.4995  H     
33   H         5.8410   28.1234    6.5005  H     
34   H         5.0276   30.1586    5.1468  H     
35   H         3.0670   31.1484    6.3528  H     
36   H         3.9893   26.1073    7.3060  H     
37   H         4.2359   25.5512    8.9618  H     
38   H         5.5995   26.2312    8.0642  H     
39   H         1.6028   25.6663   11.5665  H     
40   H         1.7709   27.5323    9.3228  H     
41   H         0.8138   26.0574    9.4473  H     
42   H        -0.4128   28.1927    8.8243  H     
43   H        -1.0932   27.2920   10.1653  H     
44   H        -0.5132   29.1810   12.8203  H     
45   H         1.1683   29.4298   12.3194  H     
46   H        -0.3445   26.7712   12.4961  H     
47   H         1.0303   27.2743   13.4633  H     
48   H         3.5874   26.7834   11.0998  H     
49   H         3.0912   27.2717   12.6067  H     
50   H         2.8846   28.2799   11.3095  H     
@<TRIPOS>BOND
     1    1    2 1
     2    1    5 2
     3    1   27 1
     4    2    3 2
     5    2   19 am
     6    3    4 1
     7    4    7 2
     8    5    6 1
     9    5    7 1
    10    6    8 1
    11    6   11 2
    12    7    9 1
    13    8    9 1
    14    8   10 2
    15   11   12 1
    16   12   14 2
    17   12   16 1
    18   13   14 1
    19   13   15 2
    20   14   17 1
    21   15   16 1
    22   17   18 1
    23   19   20 2
    24   19   21 1
    25   22   23 1
    26   22   26 1
    27   22   28 1
    28   23   24 1
    29   24   27 1
    30   25   26 1
    31   25   27 1
    32    3   29 1
    33    4   30 1
    34    9   31 1
    35   11   32 1
    36   13   33 1
    37   15   34 1
    38   16   35 1
    39   18   36 1
    40   18   37 1
    41   18   38 1
    42   22   39 1
    43   23   40 1
    44   23   41 1
    45   24   42 1
    46   24   43 1
    47   25   44 1
    48   25   45 1
    49   26   46 1
    50   26   47 1
    51   28   48 1
    52   28   49 1
    53   28   50 1
@<TRIPOS>PROPERTY_DATA
  Total_Score	| 5.8961
  Crash		| -4.5134
  Polar		| 3.8035
  FragIndex	| 1
  FragRMSD	| 0.381

