@<TRIPOS>MOLECULE
BindingDB_10094
 30 32 0 0 0
SMALL
NO_CHARGES


@<TRIPOS>ATOM
1    C        -0.5820   30.2772   10.3698  C     
2    C        -1.7316   30.7565   11.0482  C     
3    C        -2.2912   32.0084   10.7270  C     
4    C        -1.7032   32.8050    9.7302  C     
5    F        -2.2863   30.0620   12.0129  F     
6    C        -0.0023   31.0725    9.3338  C     
7    C         1.1073   30.9900    8.4988  C     
8    C        -0.5694   32.3239    9.0629  C     
9    C         1.1814   32.1762    7.8354  C     
10   N         0.1778   32.9438    8.1588  N     
11   O         2.0470   32.5724    7.0549  O     
12   C         1.9332   29.9229    8.4116  C     
13   C         3.0906   29.7167    7.6744  C     
14   C         5.1088   28.8968    7.0932  C     
15   C         4.1100   28.8385    8.0547  C     
16   C         4.6827   29.8059    6.1406  C     
17   N         3.4751   30.2812    6.5121  N     
18   O         4.1536   28.1097    9.2115  O     
19   C         3.4416   26.8666    9.1132  C     
20   I         0.1813   28.4967   11.0942  I     
21   H        -3.1019   32.3515   11.2423  H     
22   H        -2.0854   33.7181    9.5142  H     
23   H         0.0422   33.8457    7.8244  H     
24   H         1.7004   29.1253    8.9619  H     
25   H         6.0020   28.3951    7.1087  H     
26   H         5.2051   30.0807    5.3088  H     
27   H         2.9626   30.9305    6.0112  H     
28   H         2.3704   27.0406    8.8926  H     
29   H         3.5164   26.3706   10.0894  H     
30   H         3.8850   26.2123    8.3470  H     
@<TRIPOS>BOND
     1    1    2 1
     2    1    6 2
     3    1   20 1
     4    2    3 2
     5    2    5 1
     6    3    4 1
     7    4    8 2
     8    6    7 1
     9    6    8 1
    10    7    9 1
    11    7   12 2
    12    8   10 1
    13    9   10 1
    14    9   11 2
    15   12   13 1
    16   13   15 2
    17   13   17 1
    18   14   15 1
    19   14   16 2
    20   15   18 1
    21   16   17 1
    22   18   19 1
    23    3   21 1
    24    4   22 1
    25   10   23 1
    26   12   24 1
    27   14   25 1
    28   16   26 1
    29   17   27 1
    30   19   28 1
    31   19   29 1
    32   19   30 1
@<TRIPOS>PROPERTY_DATA
  Total_Score	| 6.4955
  Crash		| -0.4923
  Polar		| 2.1465
  FragIndex	| 1
  FragRMSD	| 0.447

