@<TRIPOS>MOLECULE
BindingDB_7238
 29 31 0 0 0
SMALL
NO_CHARGES


@<TRIPOS>ATOM
1    C        -0.3087   30.4109   10.4160  C     
2    C        -1.5061   30.8025   11.0586  C     
3    C        -2.1757   31.9759   10.6358  C     
4    C        -1.6483   32.7693    9.6001  C     
5    C         0.2325   31.2252    9.3926  C     
6    C         1.3631   31.1347    8.6084  C     
7    C        -0.4481   32.3718    8.9921  C     
8    C         1.3047   32.1952    7.7525  C     
9    O        -2.0749   30.0227   12.0297  O     
10   C        -1.3779   30.0470   13.2869  C     
11   N         0.2480   32.9324    8.0020  N     
12   O         2.1711   32.6070    6.9965  O     
13   C         2.3330   30.2116    8.7853  C     
14   C         3.3795   29.9198    7.9325  C     
15   C         4.5442   29.2319    8.2723  C     
16   C         4.6110   29.6381    6.1576  C     
17   N         5.2867   29.0668    7.1668  N     
18   N         3.4599   30.1445    6.6146  N     
19   H         0.1537   29.5406   10.6853  H     
20   H        -3.0566   32.2493   11.0804  H     
21   H        -2.1287   33.6106    9.2837  H     
22   H        -0.3874   29.5950   13.2080  H     
23   H        -1.9596   29.4579   13.9978  H     
24   H        -1.2873   31.0659   13.6739  H     
25   H         0.0560   33.7942    7.5926  H     
26   H         2.2901   29.6563    9.6097  H     
27   H         4.8035   28.8996    9.2037  H     
28   H         4.9143   29.6609    5.1847  H     
29   H         2.7816   30.5780    6.0737  H     
@<TRIPOS>BOND
     1    1    2 1
     2    1    5 2
     3    2    3 2
     4    2    9 1
     5    3    4 1
     6    4    7 2
     7    5    6 1
     8    5    7 1
     9    6    8 1
    10    6   13 2
    11    7   11 1
    12    8   11 1
    13    8   12 2
    14    9   10 1
    15   13   14 1
    16   14   15 2
    17   14   18 1
    18   15   17 1
    19   16   17 2
    20   16   18 1
    21    1   19 1
    22    3   20 1
    23    4   21 1
    24   10   22 1
    25   10   23 1
    26   10   24 1
    27   11   25 1
    28   13   26 1
    29   15   27 1
    30   16   28 1
    31   18   29 1
@<TRIPOS>PROPERTY_DATA
  Total_Score	| 7.7428
  Crash		| -0.2090
  Polar		| 2.2560
  FragIndex	| 1
  FragRMSD	| 0.331

