@<TRIPOS>MOLECULE
BindingDB_10073
 30 32 0 0 0
SMALL
NO_CHARGES


@<TRIPOS>ATOM
1    C        -0.4211   30.2559   10.3104  C     
2    C        -1.6391   30.5869   10.9390  C     
3    C        -2.2982   31.7962   10.6265  C     
4    C        -1.7468   32.6780    9.6746  C     
5    C         0.1293   31.1449    9.3573  C     
6    C         1.2616   31.1004    8.5609  C     
7    C        -0.5411   32.3256    9.0474  C     
8    C         1.2294   32.2349    7.8139  C     
9    N         0.1729   32.9609    8.1146  N     
10   O         2.0902   32.6687    7.0682  O     
11   C         2.1565   30.0902    8.6123  C     
12   C         3.2291   29.7621    7.7991  C     
13   C         5.1317   28.7436    7.1689  C     
14   C         4.1983   28.8326    8.1963  C     
15   C         4.6907   29.5830    6.1546  C     
16   N         3.5453   30.1632    6.5535  N     
17   O         4.1925   28.1589    9.3926  O     
18   C         3.3497   26.9947    9.3790  C     
19   H         0.0402   29.3746   10.5443  H     
20   H        -2.0490   29.9493   11.6266  H     
21   H        -3.1802   32.0333   11.0854  H     
22   H        -2.2093   33.5587    9.4470  H     
23   H        -0.0319   33.8426    7.7537  H     
24   H         2.0338   29.4580    9.3741  H     
25   H         5.9704   28.1584    7.1534  H     
26   H         5.1507   29.7304    5.2504  H     
27   H         3.0291   30.7735    6.0029  H     
28   H         3.1909   26.6499   10.4023  H     
29   H         3.8606   26.1759    8.8614  H     
30   H         2.3636   27.1934    8.9352  H     
@<TRIPOS>BOND
     1    1    2 1
     2    1    5 2
     3    2    3 2
     4    3    4 1
     5    4    7 2
     6    5    6 1
     7    5    7 1
     8    6    8 1
     9    6   11 2
    10    7    9 1
    11    8    9 1
    12    8   10 2
    13   11   12 1
    14   12   14 2
    15   12   16 1
    16   13   14 1
    17   13   15 2
    18   14   17 1
    19   15   16 1
    20   17   18 1
    21    1   19 1
    22    2   20 1
    23    3   21 1
    24    4   22 1
    25    9   23 1
    26   11   24 1
    27   13   25 1
    28   15   26 1
    29   16   27 1
    30   18   28 1
    31   18   29 1
    32   18   30 1
@<TRIPOS>PROPERTY_DATA
  Total_Score	| 6.4954
  Crash		| -0.3909
  Polar		| 2.2492
  FragIndex	| 1
  FragRMSD	| 0.321

