@<TRIPOS>MOLECULE
BindingDB_10091
 47 50 0 0 0
SMALL
NO_CHARGES


@<TRIPOS>ATOM
1    C        -0.5145   30.1757   10.3213  C     
2    C        -1.8097   30.5400   10.8317  C     
3    C        -2.3444   31.8043   10.4504  C     
4    C        -1.6834   32.6578    9.5575  C     
5    C         0.1506   31.0327    9.3923  C     
6    C         1.3425   31.0054    8.6643  C     
7    C        -0.4643   32.2344    9.0269  C     
8    C         1.3620   32.1397    7.9083  C     
9    N         0.3011   32.8635    8.1449  N     
10   O         2.2964   32.6226    7.2850  O     
11   C         2.3080   30.0594    8.7349  C     
12   C         3.3402   29.7856    7.8350  C     
13   C         5.1682   28.8523    6.9087  C     
14   C         4.3400   28.8224    8.0262  C     
15   C         4.6309   29.7838    6.0355  C     
16   N         3.5284   30.3048    6.6018  N     
17   O         4.4641   27.9907    9.0995  O     
18   C         3.7883   26.7367    8.8684  C     
19   N        -2.5872   29.7234   11.6160  N     
20   O        -3.6874   30.0414   12.0064  O     
21   O        -2.2715   28.5005   11.9388  O     
22   C         1.1960   27.4146   12.0424  C     
23   C         0.6398   28.8527   12.0283  C     
24   C         0.0613   27.8296    9.9241  C     
25   C         0.4491   26.7046   10.8967  C     
26   N         0.0895   29.0209   10.7180  N     
27   N         2.6476   27.3956   11.8086  N     
28   H        -3.2567   32.1195   10.8027  H     
29   H        -2.0833   33.5601    9.2843  H     
30   H         0.1347   33.7492    7.7837  H     
31   H         2.2793   29.4567    9.5189  H     
32   H         5.9952   28.2809    6.7407  H     
33   H         4.9999   30.0171    5.1145  H     
34   H         2.9500   30.9590    6.1758  H     
35   H         2.7307   26.8851    8.6357  H     
36   H         3.8457   26.1422    9.7766  H     
37   H         4.2628   26.1678    8.0649  H     
38   H         0.9866   26.9210   12.9968  H     
39   H        -0.1280   28.9646   12.8029  H     
40   H         1.4371   29.5771   12.2160  H     
41   H         0.7845   27.8814    9.1044  H     
42   H        -0.9324   27.6421    9.5015  H     
43   H         1.0757   25.9514   10.4063  H     
44   H        -0.4602   26.2201   11.2745  H     
45   H         2.8599   27.8460   10.9175  H     
46   H         2.9712   26.4271   11.7928  H     
47   H         3.1212   27.8989   12.5591  H     
@<TRIPOS>BOND
     1    1    2 1
     2    1    5 2
     3    1   26 1
     4    2    3 2
     5    2   19 am
     6    3    4 1
     7    4    7 2
     8    5    6 1
     9    5    7 1
    10    6    8 1
    11    6   11 2
    12    7    9 1
    13    8    9 1
    14    8   10 2
    15   11   12 1
    16   12   14 2
    17   12   16 1
    18   13   14 1
    19   13   15 2
    20   14   17 1
    21   15   16 1
    22   17   18 1
    23   19   20 2
    24   19   21 1
    25   22   23 1
    26   22   25 1
    27   22   27 1
    28   23   26 1
    29   24   25 1
    30   24   26 1
    31    3   28 1
    32    4   29 1
    33    9   30 1
    34   11   31 1
    35   13   32 1
    36   15   33 1
    37   16   34 1
    38   18   35 1
    39   18   36 1
    40   18   37 1
    41   22   38 1
    42   23   39 1
    43   23   40 1
    44   24   41 1
    45   24   42 1
    46   25   43 1
    47   25   44 1
    48   27   45 1
    49   27   46 1
    50   27   47 1
@<TRIPOS>PROPERTY_DATA
  Total_Score	| 5.6006
  Crash		| -3.4459
  Polar		| 2.3707
  FragIndex	| 1
  FragRMSD	| 0.305

