@<TRIPOS>MOLECULE
BindingDB_50345095
 33 36 0 0 0
SMALL
NO_CHARGES


@<TRIPOS>ATOM
1    C       -19.8162   -9.9489   34.2959  C     
2    C       -19.6043   -9.6880   35.6613  C     
3    C       -19.8838  -10.6777   36.6219  C     
4    C       -20.2932  -11.2074   33.8861  C     
5    C       -20.5927  -12.1974   34.8486  C     
6    C       -20.3919  -11.9315   36.2273  C     
7    N       -20.7081  -12.8888   37.1619  N     
8    C       -21.2232  -14.1064   36.8233  C     
9    C       -21.1129  -13.4750   34.5269  C     
10   N       -21.4108  -14.3688   35.4957  N     
11   N       -21.8800  -15.4333   34.9190  N     
12   C       -21.8784  -15.2173   33.5890  C     
13   N       -21.4021  -13.9944   33.3242  N     
14   S       -21.6195  -15.3142   38.0245  S     
15   C       -22.3373  -16.1902   32.5907  C     
16   C       -21.5353  -14.4899   39.6365  C     
17   C       -22.7851  -13.8277   40.0510  C     
18   N       -22.8866  -12.4859   40.2256  N     
19   C       -24.1553  -12.2218   40.5725  C     
20   C       -24.8529  -13.4283   40.6319  C     
21   N       -23.9785  -14.3937   40.3089  N     
22   H       -19.6252   -9.2249   33.5938  H     
23   H       -19.2492   -8.7691   35.9463  H     
24   H       -19.7224  -10.4690   37.6078  H     
25   H       -20.4379  -11.3911   32.8810  H     
26   H       -21.7701  -17.1170   32.6909  H     
27   H       -22.2023  -15.7923   31.5842  H     
28   H       -23.3950  -16.3997   32.7465  H     
29   H       -21.3260  -15.2891   40.3561  H     
30   H       -20.7241  -13.7604   39.6533  H     
31   H       -24.5306  -11.2952   40.7776  H     
32   H       -25.8245  -13.5477   40.9004  H     
33   H       -24.1884  -15.3411   40.2511  H     
@<TRIPOS>BOND
     1    1    2 2
     2    1    4 1
     3    2    3 1
     4    3    6 2
     5    4    5 2
     6    5    6 1
     7    5    9 1
     8    6    7 1
     9    7    8 2
    10    8   10 1
    11    8   14 1
    12    9   10 1
    13    9   13 2
    14   10   11 1
    15   11   12 2
    16   12   13 1
    17   12   15 1
    18   14   16 1
    19   16   17 1
    20   17   18 2
    21   17   21 1
    22   18   19 1
    23   19   20 2
    24   20   21 1
    25    1   22 1
    26    2   23 1
    27    3   24 1
    28    4   25 1
    29   15   26 1
    30   15   27 1
    31   15   28 1
    32   16   29 1
    33   16   30 1
    34   19   31 1
    35   20   32 1
    36   21   33 1
@<TRIPOS>PROPERTY_DATA
  Total_Score	| 5.8315
  Crash		| -0.4963
  Polar		| 2.1942
  FragIndex	| 1
  FragRMSD	| 0.200

