@<TRIPOS>MOLECULE
BindingDB_50345121
 27 29 0 0 0
SMALL
NO_CHARGES


@<TRIPOS>ATOM
1    C       -19.8089   -9.9427   34.2054  C     
2    C       -19.6074   -9.6881   35.5762  C     
3    C       -19.8888  -10.6862   36.5317  C     
4    C       -20.3066  -11.1886   33.7830  C     
5    C       -20.5977  -12.1884   34.7343  C     
6    C       -20.3721  -11.9419   36.1155  C     
7    N       -20.6433  -12.9207   37.0371  N     
8    C       -21.1477  -14.1374   36.6911  C     
9    C       -21.1169  -13.4639   34.4095  C     
10   N       -21.3818  -14.3794   35.3696  N     
11   N       -21.8589  -15.4479   34.8066  N     
12   C       -21.9129  -15.2121   33.4819  C     
13   N       -21.4543  -13.9783   33.2195  N     
14   S       -21.4509  -15.3745   37.8872  S     
15   C       -22.3976  -16.1696   32.4812  C     
16   C       -20.9745  -14.5631   39.4326  C     
17   C       -21.9487  -13.7091   39.8668  C     
18   N       -22.7738  -13.0016   40.2430  N     
19   H       -19.6082   -9.2121   33.5178  H     
20   H       -19.2544   -8.7758   35.8762  H     
21   H       -19.7316  -10.4982   37.5252  H     
22   H       -20.4469  -11.3610   32.7840  H     
23   H       -21.7944  -17.0756   32.5204  H     
24   H       -22.3389  -15.7451   31.4736  H     
25   H       -23.4369  -16.4180   32.6957  H     
26   H       -20.8227  -15.3280   40.1898  H     
27   H       -20.0336  -14.0219   39.2958  H     
@<TRIPOS>BOND
     1    1    2 2
     2    1    4 1
     3    2    3 1
     4    3    6 2
     5    4    5 2
     6    5    6 1
     7    5    9 1
     8    6    7 1
     9    7    8 2
    10    8   10 1
    11    8   14 1
    12    9   10 1
    13    9   13 2
    14   10   11 1
    15   11   12 2
    16   12   13 1
    17   12   15 1
    18   14   16 1
    19   16   17 1
    20   17   18 3
    21    1   19 1
    22    2   20 1
    23    3   21 1
    24    4   22 1
    25   15   23 1
    26   15   24 1
    27   15   25 1
    28   16   26 1
    29   16   27 1
@<TRIPOS>PROPERTY_DATA
  Total_Score	| 4.6135
  Crash		| -0.3664
  Polar		| 1.6343
  FragIndex	| 1
  FragRMSD	| 0.122

