@<TRIPOS>MOLECULE
BindingDB_50345090
 41 45 0 0 0
SMALL
NO_CHARGES


@<TRIPOS>ATOM
1    C       -19.7231   -9.9880   34.2597  C     
2    C       -19.4604   -9.7736   35.6258  C     
3    C       -19.7224  -10.7902   36.5655  C     
4    C       -20.2581  -11.2164   33.8250  C     
5    C       -20.5455  -12.2271   34.7639  C     
6    C       -20.2659  -12.0183   36.1390  C     
7    N       -20.5438  -13.0115   37.0374  N     
8    C       -21.1020  -14.2007   36.6851  C     
9    C       -21.1132  -13.4769   34.4248  C     
10   N       -21.3725  -14.4070   35.3672  N     
11   N       -21.8867  -15.4479   34.7926  N     
12   C       -21.9655  -15.1848   33.4783  C     
13   N       -21.4878  -13.9535   33.2309  N     
14   S       -21.4437  -15.4437   37.8647  S     
15   C       -22.4720  -16.1192   32.4715  C     
16   C       -20.9700  -14.6447   39.4180  C     
17   C       -21.9639  -13.6316   39.8340  C     
18   C       -21.6802  -12.2470   39.8415  C     
19   C       -22.6918  -11.3292   40.1734  C     
20   N       -23.1979  -14.0462   40.2242  N     
21   C       -24.1887  -13.1986   40.6040  C     
22   C       -23.9637  -11.7963   40.5711  C     
23   C       -25.0073  -10.9475   40.9558  C     
24   C       -26.1731  -11.4599   41.3952  C     
25   C       -26.3809  -12.8121   41.4414  C     
26   C       -25.4185  -13.6772   41.0537  C     
27   H       -19.5229   -9.2519   33.5810  H     
28   H       -19.0727   -8.8799   35.9372  H     
29   H       -19.5200  -10.6305   37.5555  H     
30   H       -20.4344  -11.3644   32.8301  H     
31   H       -21.8857  -17.0382   32.5100  H     
32   H       -22.3875  -15.6857   31.4740  H     
33   H       -23.5195  -16.3482   32.6765  H     
34   H       -20.9114  -15.4191   40.1835  H     
35   H       -19.9699  -14.2169   39.3054  H     
36   H       -20.7504  -11.9011   39.5929  H     
37   H       -22.4901  -10.3255   40.1420  H     
38   H       -24.8890   -9.9595   40.9217  H     
39   H       -26.8960  -10.8461   41.6956  H     
40   H       -27.2531  -13.1629   41.7666  H     
41   H       -25.5857  -14.6573   41.1026  H     
@<TRIPOS>BOND
     1    1    2 2
     2    1    4 1
     3    2    3 1
     4    3    6 2
     5    4    5 2
     6    5    6 1
     7    5    9 1
     8    6    7 1
     9    7    8 2
    10    8   10 1
    11    8   14 1
    12    9   10 1
    13    9   13 2
    14   10   11 1
    15   11   12 2
    16   12   13 1
    17   12   15 1
    18   14   16 1
    19   16   17 1
    20   17   18 2
    21   17   20 1
    22   18   19 1
    23   19   22 2
    24   20   21 2
    25   21   22 1
    26   21   26 1
    27   22   23 1
    28   23   24 2
    29   24   25 1
    30   25   26 2
    31    1   27 1
    32    2   28 1
    33    3   29 1
    34    4   30 1
    35   15   31 1
    36   15   32 1
    37   15   33 1
    38   16   34 1
    39   16   35 1
    40   18   36 1
    41   19   37 1
    42   23   38 1
    43   24   39 1
    44   25   40 1
    45   26   41 1
@<TRIPOS>PROPERTY_DATA
  Total_Score	| 7.7144
  Crash		| -0.4305
  Polar		| 1.6041
  FragIndex	| 1
  FragRMSD	| 0.659

