@<TRIPOS>MOLECULE
BindingDB_50345124
 26 28 0 0 0
SMALL
NO_CHARGES


@<TRIPOS>ATOM
1    C       -19.7625   -9.9566   34.1967  C     
2    C       -19.6238   -9.6714   35.5697  C     
3    C       -19.9516  -10.6444   36.5348  C     
4    C       -20.2285  -11.2180   33.7812  C     
5    C       -20.5599  -12.1928   34.7481  C     
6    C       -20.4268  -11.9081   36.1340  C     
7    N       -20.7622  -12.8645   37.0624  N     
8    C       -21.2358  -14.0930   36.7120  C     
9    C       -21.0653  -13.4743   34.4220  C     
10   N       -21.3830  -14.3651   35.3855  N     
11   N       -21.8290  -15.4415   34.8130  N     
12   C       -21.7965  -15.2439   33.4827  C     
13   N       -21.3199  -14.0160   33.2228  N     
14   S       -21.6968  -15.2783   37.9092  S     
15   C       -22.2201  -16.2277   32.4797  C     
16   C       -20.7318  -14.7451   39.3411  C     
17   H       -19.5283   -9.2456   33.4976  H     
18   H       -19.2893   -8.7511   35.8626  H     
19   H       -19.8484  -10.4237   37.5240  H     
20   H       -20.3258  -11.4182   32.7832  H     
21   H       -21.6350  -17.1402   32.5931  H     
22   H       -22.0712  -15.8270   31.4751  H     
23   H       -23.2759  -16.4604   32.6206  H     
24   H       -19.6706  -14.7132   39.0836  H     
25   H       -20.8799  -15.4629   40.1487  H     
26   H       -21.0590  -13.7553   39.6699  H     
@<TRIPOS>BOND
     1    1    2 2
     2    1    4 1
     3    2    3 1
     4    3    6 2
     5    4    5 2
     6    5    6 1
     7    5    9 1
     8    6    7 1
     9    7    8 2
    10    8   10 1
    11    8   14 1
    12    9   10 1
    13    9   13 2
    14   10   11 1
    15   11   12 2
    16   12   13 1
    17   12   15 1
    18   14   16 1
    19    1   17 1
    20    2   18 1
    21    3   19 1
    22    4   20 1
    23   15   21 1
    24   15   22 1
    25   15   23 1
    26   16   24 1
    27   16   25 1
    28   16   26 1
@<TRIPOS>PROPERTY_DATA
  Total_Score	| 4.5591
  Crash		| -0.2625
  Polar		| 1.3284
  FragIndex	| 1
  FragRMSD	| 0.178

