@<TRIPOS>MOLECULE
BindingDB_50345113
 27 29 0 0 0
SMALL
NO_CHARGES


@<TRIPOS>ATOM
1    C       -19.7430   -9.9261   34.2626  C     
2    C       -19.5362   -9.6657   35.6334  C     
3    C       -19.8418  -10.6549   36.5894  C     
4    C       -20.2519  -11.1714   33.8454  C     
5    C       -20.5680  -12.1578   34.8059  C     
6    C       -20.3602  -11.9011   36.1877  C     
7    N       -20.6585  -12.8657   37.1300  N     
8    C       -21.1656  -14.0809   36.7733  C     
9    C       -21.0925  -13.4312   34.4828  C     
10   N       -21.3741  -14.3342   35.4461  N     
11   N       -21.8255  -15.4115   34.8763  N     
12   C       -21.8334  -15.1908   33.5474  C     
13   N       -21.3768  -13.9550   33.2846  N     
14   S       -21.4361  -15.3301   37.9602  S     
15   C       -22.2662  -16.1584   32.5394  C     
16   C       -21.3955  -14.4417   39.5354  C     
17   C       -22.6403  -13.9901   39.8671  C     
18   N       -23.6926  -13.6254   40.1698  N     
19   F       -19.4578   -9.0158   33.3743  F     
20   H       -19.1623   -8.7640   35.9333  H     
21   H       -19.6864  -10.4615   37.5791  H     
22   H       -20.3928  -11.3632   32.8491  H     
23   H       -21.6468  -17.0531   32.6078  H     
24   H       -22.1685  -15.7361   31.5360  H     
25   H       -23.3110  -16.4200   32.7112  H     
26   H       -21.0873  -15.1459   40.3195  H     
27   H       -20.6793  -13.6132   39.4972  H     
@<TRIPOS>BOND
     1    1    2 2
     2    1    4 1
     3    1   19 1
     4    2    3 1
     5    3    6 2
     6    4    5 2
     7    5    6 1
     8    5    9 1
     9    6    7 1
    10    7    8 2
    11    8   10 1
    12    8   14 1
    13    9   10 1
    14    9   13 2
    15   10   11 1
    16   11   12 2
    17   12   13 1
    18   12   15 1
    19   14   16 1
    20   16   17 1
    21   17   18 3
    22    2   20 1
    23    3   21 1
    24    4   22 1
    25   15   23 1
    26   15   24 1
    27   15   25 1
    28   16   26 1
    29   16   27 1
@<TRIPOS>PROPERTY_DATA
  Total_Score	| 4.6331
  Crash		| -0.2778
  Polar		| 1.7206
  FragIndex	| 1
  FragRMSD	| 0.096

