@<TRIPOS>MOLECULE
BindingDB_50345108
 30 32 0 0 0
SMALL
NO_CHARGES


@<TRIPOS>ATOM
1    C       -19.6192  -10.0822   34.0614  C     
2    C       -19.4269   -9.7658   35.4271  C     
3    C       -19.8143  -10.7151   36.4059  C     
4    C       -20.1810  -11.3137   33.6743  C     
5    C       -20.5485  -12.2508   34.6551  C     
6    C       -20.3525  -11.9612   36.0346  C     
7    N       -20.6785  -12.9035   36.9903  N     
8    C       -21.2054  -14.1133   36.6586  C     
9    C       -21.1122  -13.5120   34.3580  C     
10   N       -21.4185  -14.3870   35.3379  N     
11   N       -21.9162  -15.4611   34.8013  N     
12   C       -21.9332  -15.2621   33.4683  C     
13   N       -21.4368  -14.0525   33.1773  N     
14   S       -21.6063  -15.2866   37.8763  S     
15   C       -22.3988  -16.2536   32.4894  C     
16   C       -20.8504  -14.5505   39.3400  C     
17   C       -21.6114  -13.5216   39.8096  C     
18   N       -22.2532  -12.6526   40.2127  N     
19   C       -18.8187   -8.4662   35.7901  C     
20   H       -19.3453   -9.4131   33.3320  H     
21   H       -19.6906  -10.5004   37.4047  H     
22   H       -20.3104  -11.5178   32.6788  H     
23   H       -21.8063  -17.1626   32.5917  H     
24   H       -22.2861  -15.8706   31.4729  H     
25   H       -23.4494  -16.4861   32.6658  H     
26   H       -20.7741  -15.3150   40.1200  H     
27   H       -19.8507  -14.1921   39.0890  H     
28   H       -17.8108   -8.4162   35.3819  H     
29   H       -18.7672   -8.3280   36.8689  H     
30   H       -19.4174   -7.6630   35.3643  H     
@<TRIPOS>BOND
     1    1    2 2
     2    1    4 1
     3    2    3 1
     4    2   19 1
     5    3    6 2
     6    4    5 2
     7    5    6 1
     8    5    9 1
     9    6    7 1
    10    7    8 2
    11    8   10 1
    12    8   14 1
    13    9   10 1
    14    9   13 2
    15   10   11 1
    16   11   12 2
    17   12   13 1
    18   12   15 1
    19   14   16 1
    20   16   17 1
    21   17   18 3
    22    1   20 1
    23    3   21 1
    24    4   22 1
    25   15   23 1
    26   15   24 1
    27   15   25 1
    28   16   26 1
    29   16   27 1
    30   19   28 1
    31   19   29 1
    32   19   30 1
@<TRIPOS>PROPERTY_DATA
  Total_Score	| 4.6527
  Crash		| -0.3929
  Polar		| 1.4744
  FragIndex	| 1
  FragRMSD	| 0.204

