@<TRIPOS>MOLECULE
BindingDB_50345122
 30 32 0 0 0
SMALL
NO_CHARGES


@<TRIPOS>ATOM
1    C       -19.8213   -9.9291   34.2423  C     
2    C       -19.6291   -9.6544   35.6102  C     
3    C       -19.8720  -10.6502   36.5729  C     
4    C       -20.2648  -11.2032   33.8297  C     
5    C       -20.5288  -12.1995   34.7990  C     
6    C       -20.3318  -11.9298   36.1828  C     
7    N       -20.6532  -12.8756   37.1239  N     
8    C       -21.1672  -14.0956   36.7837  C     
9    C       -21.0351  -13.4849   34.4841  C     
10   N       -21.3241  -14.3739   35.4603  N     
11   N       -21.7828  -15.4561   34.9026  N     
12   C       -21.7925  -15.2612   33.5703  C     
13   N       -21.3305  -14.0296   33.2957  N     
14   S       -21.6764  -15.2518   37.9978  S     
15   C       -22.2151  -16.2502   32.5726  C     
16   C       -21.8856  -14.2482   39.4969  C     
17   C       -22.8936  -14.8119   40.3651  C     
18   N       -24.0862  -14.2670   40.4771  N     
19   O       -22.6915  -15.8674   40.9735  O     
20   H       -19.6487   -9.1964   33.5465  H     
21   H       -19.3210   -8.7250   35.9064  H     
22   H       -19.7421  -10.4426   37.5664  H     
23   H       -20.4094  -11.3843   32.8326  H     
24   H       -21.5778  -17.1329   32.6504  H     
25   H       -22.1275  -15.8365   31.5629  H     
26   H       -23.2536  -16.5372   32.7491  H     
27   H       -20.9280  -14.2300   40.0325  H     
28   H       -22.1397  -13.2298   39.2244  H     
29   H       -24.7649  -14.6798   41.0333  H     
30   H       -24.2859  -13.4331   40.0163  H     
@<TRIPOS>BOND
     1    1    2 2
     2    1    4 1
     3    2    3 1
     4    3    6 2
     5    4    5 2
     6    5    6 1
     7    5    9 1
     8    6    7 1
     9    7    8 2
    10    8   10 1
    11    8   14 1
    12    9   10 1
    13    9   13 2
    14   10   11 1
    15   11   12 2
    16   12   13 1
    17   12   15 1
    18   14   16 1
    19   16   17 1
    20   17   18 am
    21   17   19 2
    22    1   20 1
    23    2   21 1
    24    3   22 1
    25    4   23 1
    26   15   24 1
    27   15   25 1
    28   15   26 1
    29   16   27 1
    30   16   28 1
    31   18   29 1
    32   18   30 1
@<TRIPOS>PROPERTY_DATA
  Total_Score	| 4.4933
  Crash		| -0.3752
  Polar		| 1.6943
  FragIndex	| 1
  FragRMSD	| 0.352

