@<TRIPOS>MOLECULE
BindingDB_50345123
 29 31 0 0 0
SMALL
NO_CHARGES


@<TRIPOS>ATOM
1    C       -19.7822   -9.9293   34.1392  C     
2    C       -19.5985   -9.6500   35.5029  C     
3    C       -19.8821  -10.6308   36.4721  C     
4    C       -20.2514  -11.1927   33.7276  C     
5    C       -20.5641  -12.1698   34.6939  C     
6    C       -20.3677  -11.8931   36.0766  C     
7    N       -20.6808  -12.8466   37.0098  N     
8    C       -21.1882  -14.0673   36.6827  C     
9    C       -21.0778  -13.4544   34.3855  C     
10   N       -21.3778  -14.3442   35.3631  N     
11   N       -21.8285  -15.4273   34.8078  N     
12   C       -21.8244  -15.2297   33.4755  C     
13   N       -21.3622  -14.0053   33.1968  N     
14   S       -21.5645  -15.2458   37.9163  S     
15   C       -22.2520  -16.2240   32.4767  C     
16   C       -21.6266  -14.2109   39.4049  C     
17   C       -21.8915  -15.0453   40.6620  C     
18   H       -19.5742   -9.2157   33.4390  H     
19   H       -19.2591   -8.7338   35.7996  H     
20   H       -19.7471  -10.4274   37.4671  H     
21   H       -20.3756  -11.3905   32.7321  H     
22   H       -21.6279  -17.1161   32.5648  H     
23   H       -22.1513  -15.8208   31.4688  H     
24   H       -23.2970  -16.4933   32.6509  H     
25   H       -20.6763  -13.6901   39.5214  H     
26   H       -22.4252  -13.4736   39.3014  H     
27   H       -22.8430  -15.5784   40.5794  H     
28   H       -21.9423  -14.3913   41.5378  H     
29   H       -21.0892  -15.7718   40.8229  H     
@<TRIPOS>BOND
     1    1    2 2
     2    1    4 1
     3    2    3 1
     4    3    6 2
     5    4    5 2
     6    5    6 1
     7    5    9 1
     8    6    7 1
     9    7    8 2
    10    8   10 1
    11    8   14 1
    12    9   10 1
    13    9   13 2
    14   10   11 1
    15   11   12 2
    16   12   13 1
    17   12   15 1
    18   14   16 1
    19   16   17 1
    20    1   18 1
    21    2   19 1
    22    3   20 1
    23    4   21 1
    24   15   22 1
    25   15   23 1
    26   15   24 1
    27   16   25 1
    28   16   26 1
    29   17   27 1
    30   17   28 1
    31   17   29 1
@<TRIPOS>PROPERTY_DATA
  Total_Score	| 4.8007
  Crash		| -0.2789
  Polar		| 1.6800
  FragIndex	| 1
  FragRMSD	| 0.399

