@<TRIPOS>MOLECULE
BindingDB_50345109
 30 32 0 0 0
SMALL
NO_CHARGES


@<TRIPOS>ATOM
1    C       -19.6457   -9.9799   34.2183  C     
2    C       -19.5416   -9.6934   35.5981  C     
3    C       -19.9055  -10.6452   36.5676  C     
4    C       -20.1344  -11.2520   33.8229  C     
5    C       -20.5215  -12.2069   34.7961  C     
6    C       -20.4062  -11.9015   36.1791  C     
7    N       -20.7759  -12.8256   37.1258  N     
8    C       -21.2799  -14.0466   36.8011  C     
9    C       -21.0332  -13.4961   34.4986  C     
10   N       -21.3964  -14.3556   35.4777  N     
11   N       -21.8265  -15.4507   34.9287  N     
12   C       -21.7415  -15.2955   33.5942  C     
13   N       -21.2475  -14.0794   33.3111  N     
14   S       -21.6538  -15.2340   38.0281  S     
15   C       -22.1380  -16.3004   32.5975  C     
16   C       -21.6010  -14.3363   39.6039  C     
17   C       -22.8547  -13.9511   39.9861  C     
18   N       -23.9019  -13.6153   40.3273  N     
19   C       -19.2412   -8.9390   33.2421  C     
20   H       -19.1953   -8.7829   35.9063  H     
21   H       -19.8014  -10.4184   37.5608  H     
22   H       -20.2085  -11.4842   32.8294  H     
23   H       -21.5434  -17.2066   32.7197  H     
24   H       -21.9893  -15.9194   31.5856  H     
25   H       -23.1923  -16.5502   32.7237  H     
26   H       -21.2130  -15.0233   40.3589  H     
27   H       -20.9502  -13.4640   39.5632  H     
28   H       -19.8679   -8.0536   33.3727  H     
29   H       -19.3363   -9.2813   32.2110  H     
30   H       -18.2003   -8.6566   33.4127  H     
@<TRIPOS>BOND
     1    1    2 2
     2    1    4 1
     3    1   19 1
     4    2    3 1
     5    3    6 2
     6    4    5 2
     7    5    6 1
     8    5    9 1
     9    6    7 1
    10    7    8 2
    11    8   10 1
    12    8   14 1
    13    9   10 1
    14    9   13 2
    15   10   11 1
    16   11   12 2
    17   12   13 1
    18   12   15 1
    19   14   16 1
    20   16   17 1
    21   17   18 3
    22    2   20 1
    23    3   21 1
    24    4   22 1
    25   15   23 1
    26   15   24 1
    27   15   25 1
    28   16   26 1
    29   16   27 1
    30   19   28 1
    31   19   29 1
    32   19   30 1
@<TRIPOS>PROPERTY_DATA
  Total_Score	| 5.1613
  Crash		| -0.2501
  Polar		| 1.6747
  FragIndex	| 1
  FragRMSD	| 0.157

