@<TRIPOS>MOLECULE
BindingDB_50345102
 27 29 0 0 0
SMALL
NO_CHARGES


@<TRIPOS>ATOM
1    C       -19.6587   -9.9265   34.4057  C     
2    C       -19.4704   -9.7024   35.7837  C     
3    C       -19.8057  -10.7055   36.7126  C     
4    C       -20.1920  -11.1496   33.9537  C     
5    C       -20.5360  -12.1585   34.8779  C     
6    C       -20.3374  -11.9337   36.2665  C     
7    N       -20.6832  -12.9123   37.1813  N     
8    C       -21.2039  -14.1075   36.7983  C     
9    C       -21.0743  -13.4180   34.5242  C     
10   N       -21.3896  -14.3337   35.4658  N     
11   N       -21.8671  -15.3851   34.8645  N     
12   C       -21.8655  -15.1388   33.5440  C     
13   N       -21.3732  -13.9122   33.3161  N     
14   S       -21.5899  -15.3420   37.9710  S     
15   C       -22.3204  -16.0811   32.5221  C     
16   C       -21.4498  -14.4463   39.5438  C     
17   C       -22.6743  -13.9705   39.9319  C     
18   N       -23.7000  -13.5710   40.2685  N     
19   Cl      -19.2333   -8.7110   33.2999  Cl    
20   H       -19.0935   -8.8078   36.1231  H     
21   H       -19.6630  -10.5369   37.7136  H     
22   H       -20.3316  -11.2977   32.9545  H     
23   H       -21.7203  -16.9882   32.5762  H     
24   H       -22.2142  -15.6434   31.5290  H     
25   H       -23.3677  -16.3291   32.6925  H     
26   H       -21.0944  -15.1395   40.3049  H     
27   H       -20.7495  -13.6076   39.4774  H     
@<TRIPOS>BOND
     1    1    2 2
     2    1    4 1
     3    1   19 1
     4    2    3 1
     5    3    6 2
     6    4    5 2
     7    5    6 1
     8    5    9 1
     9    6    7 1
    10    7    8 2
    11    8   10 1
    12    8   14 1
    13    9   10 1
    14    9   13 2
    15   10   11 1
    16   11   12 2
    17   12   13 1
    18   12   15 1
    19   14   16 1
    20   16   17 1
    21   17   18 3
    22    2   20 1
    23    3   21 1
    24    4   22 1
    25   15   23 1
    26   15   24 1
    27   15   25 1
    28   16   26 1
    29   16   27 1
@<TRIPOS>PROPERTY_DATA
  Total_Score	| 4.6749
  Crash		| -0.2917
  Polar		| 1.6562
  FragIndex	| 1
  FragRMSD	| 0.184

