@<TRIPOS>MOLECULE
BindingDB_50345094
 42 46 0 0 0
SMALL
NO_CHARGES


@<TRIPOS>ATOM
1    C       -19.7799   -9.8963   34.1090  C     
2    C       -19.6342   -9.5818   35.4743  C     
3    C       -19.9345  -10.5410   36.4651  C     
4    C       -20.2462  -11.1674   33.7350  C     
5    C       -20.5579  -12.1250   34.7290  C     
6    C       -20.4025  -11.8263   36.1114  C     
7    N       -20.7011  -12.7716   37.0822  N     
8    C       -21.1847  -14.0048   36.7729  C     
9    C       -21.0925  -13.3982   34.4503  C     
10   N       -21.4004  -14.2740   35.4464  N     
11   N       -21.9278  -15.3326   34.9045  N     
12   C       -21.9616  -15.1267   33.5789  C     
13   N       -21.4381  -13.9294   33.2625  N     
14   S       -21.3606  -15.2794   37.9687  S     
15   C       -22.5449  -16.0869   32.6302  C     
16   C       -21.1399  -14.4653   39.5748  C     
17   C       -22.4368  -13.9671   40.0707  C     
18   N       -22.7964  -12.6749   39.9643  N     
19   N       -23.4205  -14.6842   40.6743  N     
20   C       -24.4352  -13.8213   40.9145  C     
21   C       -24.0257  -12.5600   40.4657  C     
22   C       -24.8430  -11.4126   40.6053  C     
23   C       -26.1037  -11.5708   41.2160  C     
24   C       -26.5439  -12.8494   41.6262  C     
25   C       -25.7016  -13.9850   41.5006  C     
26   C       -23.3562  -16.0803   41.0072  C     
27   H       -19.5550   -9.1860   33.3995  H     
28   H       -19.3301   -8.6410   35.7453  H     
29   H       -19.8406  -10.2860   37.4462  H     
30   H       -20.3688  -11.3756   32.7396  H     
31   H       -22.0927  -17.0706   32.7799  H     
32   H       -22.3826  -15.7716   31.5981  H     
33   H       -23.6193  -16.1651   32.8221  H     
34   H       -20.7257  -15.2029   40.2855  H     
35   H       -20.4046  -13.6654   39.5018  H     
36   H       -24.5135  -10.4983   40.2825  H     
37   H       -26.6859  -10.7480   41.3818  H     
38   H       -27.4751  -12.9661   42.0250  H     
39   H       -26.0013  -14.8991   41.8486  H     
40   H       -23.2228  -16.6668   40.0898  H     
41   H       -24.2557  -16.4263   41.5225  H     
42   H       -22.5132  -16.2851   41.6767  H     
@<TRIPOS>BOND
     1    1    2 2
     2    1    4 1
     3    2    3 1
     4    3    6 2
     5    4    5 2
     6    5    6 1
     7    5    9 1
     8    6    7 1
     9    7    8 2
    10    8   10 1
    11    8   14 1
    12    9   10 1
    13    9   13 2
    14   10   11 1
    15   11   12 2
    16   12   13 1
    17   12   15 1
    18   14   16 1
    19   16   17 1
    20   17   18 2
    21   17   19 1
    22   18   21 1
    23   19   20 1
    24   19   26 1
    25   20   21 2
    26   20   25 1
    27   21   22 1
    28   22   23 2
    29   23   24 1
    30   24   25 2
    31    1   27 1
    32    2   28 1
    33    3   29 1
    34    4   30 1
    35   15   31 1
    36   15   32 1
    37   15   33 1
    38   16   34 1
    39   16   35 1
    40   22   36 1
    41   23   37 1
    42   24   38 1
    43   25   39 1
    44   26   40 1
    45   26   41 1
    46   26   42 1
@<TRIPOS>PROPERTY_DATA
  Total_Score	| 8.1618
  Crash		| -0.8959
  Polar		| 1.7001
  FragIndex	| 1
  FragRMSD	| 0.204

