@<TRIPOS>MOLECULE
BindingDB_50334653
 39 43 0 0 0
SMALL
NO_CHARGES


@<TRIPOS>ATOM
1    C       -19.8173   -9.9241   34.0657  C     
2    C       -19.5646   -9.5916   35.4111  C     
3    C       -19.7933  -10.5472   36.4354  C     
4    C       -20.2799  -11.2068   33.7424  C     
5    C       -20.5242  -12.1508   34.7665  C     
6    C       -20.2855  -11.8392   36.1315  C     
7    N       -20.5688  -12.7743   37.1114  N     
8    C       -21.0833  -14.0081   36.8151  C     
9    N       -21.8752  -15.3611   34.9934  N     
10   C       -21.9927  -15.1395   33.6694  C     
11   N       -21.4870  -13.9383   33.3432  N     
12   C       -21.0599  -13.4279   34.5074  C     
13   N       -21.3248  -14.3025   35.5082  N     
14   C       -22.6471  -16.0486   32.7216  C     
15   S       -21.3971  -15.2849   37.9895  S     
16   C       -21.2734  -14.4937   39.6073  C     
17   C       -22.5332  -13.8472   40.0089  C     
18   N       -23.6689  -14.4875   40.3609  N     
19   N       -22.7082  -12.5125   40.1563  N     
20   C       -23.9694  -12.3476   40.5965  C     
21   C       -24.5737  -13.5813   40.7593  C     
22   C       -25.8593  -13.7081   41.3226  C     
23   C       -26.5482  -12.5194   41.6876  C     
24   C       -25.9561  -11.2476   41.4701  C     
25   C       -24.6635  -11.1467   40.9186  C     
26   H       -19.6802   -9.2261   33.3323  H     
27   H       -19.2470   -8.6446   35.6376  H     
28   H       -19.6032  -10.2750   37.3938  H     
29   H       -20.4794  -11.4292   32.7584  H     
30   H       -22.1618  -17.0268   32.7419  H     
31   H       -22.5963  -15.6523   31.7026  H     
32   H       -23.6994  -16.1748   32.9947  H     
33   H       -21.0106  -15.2478   40.3603  H     
34   H       -20.4322  -13.7784   39.5797  H     
35   H       -23.7906  -15.4428   40.3637  H     
36   H       -26.2734  -14.6031   41.5273  H     
37   H       -27.4777  -12.5703   42.1179  H     
38   H       -26.4651  -10.3915   41.7442  H     
39   H       -24.2127  -10.2436   40.7913  H     
@<TRIPOS>BOND
     1    1    2 2
     2    1    4 1
     3    2    3 1
     4    3    6 2
     5    4    5 2
     6    5    6 1
     7    5   12 1
     8    6    7 1
     9    7    8 2
    10    8   13 1
    11    8   15 1
    12    9   10 2
    13    9   13 1
    14   10   11 1
    15   10   14 1
    16   11   12 2
    17   12   13 1
    18   15   16 1
    19   16   17 1
    20   17   18 1
    21   17   19 2
    22   18   21 1
    23   19   20 1
    24   20   21 2
    25   20   25 1
    26   21   22 1
    27   22   23 2
    28   23   24 1
    29   24   25 2
    30    1   26 1
    31    2   27 1
    32    3   28 1
    33    4   29 1
    34   14   30 1
    35   14   31 1
    36   14   32 1
    37   16   33 1
    38   16   34 1
    39   18   35 1
    40   22   36 1
    41   23   37 1
    42   24   38 1
    43   25   39 1
@<TRIPOS>PROPERTY_DATA
  Total_Score	| 7.2843
  Crash		| -0.4756
  Polar		| 1.8665
  FragIndex	| 1
  FragRMSD	| 0.179

