@<TRIPOS>MOLECULE
BindingDB_50345091
 39 43 0 0 0
SMALL
NO_CHARGES


@<TRIPOS>ATOM
1    C       -19.7300   -9.9504   34.3315  C     
2    C       -19.4838   -9.7150   35.6978  C     
3    C       -19.7782  -10.7092   36.6510  C     
4    C       -20.2651  -11.1830   33.9125  C     
5    C       -20.5690  -12.1792   34.8623  C     
6    C       -20.3259  -11.9409   36.2400  C     
7    N       -20.6112  -12.9176   37.1565  N     
8    C       -21.1404  -14.1241   36.8140  C     
9    C       -21.1174  -13.4418   34.5370  C     
10   N       -21.3858  -14.3566   35.4930  N     
11   N       -21.8699  -15.4142   34.9247  N     
12   C       -21.9223  -15.1788   33.6022  C     
13   N       -21.4524  -13.9483   33.3427  N     
14   S       -21.3736  -15.3861   38.0007  S     
15   C       -22.4198  -16.1348   32.6068  C     
16   C       -21.1996  -14.5306   39.5889  C     
17   C       -22.4567  -13.8808   39.9964  C     
18   C       -23.6060  -14.5262   40.4549  C     
19   N       -22.6799  -12.5536   40.0249  N     
20   C       -23.9338  -12.3795   40.4746  C     
21   N       -24.5067  -13.5765   40.7463  N     
22   C       -25.7630  -13.6766   41.2284  C     
23   C       -26.4729  -12.5460   41.4359  C     
24   C       -25.9148  -11.3179   41.1553  C     
25   C       -24.6550  -11.2108   40.6786  C     
26   H       -19.5074   -9.2309   33.6395  H     
27   H       -19.0783   -8.8248   35.9958  H     
28   H       -19.5870  -10.5329   37.6414  H     
29   H       -20.4234  -11.3522   32.9169  H     
30   H       -21.8222  -17.0474   32.6452  H     
31   H       -22.3539  -15.7103   31.6039  H     
32   H       -23.4623  -16.3799   32.8211  H     
33   H       -20.9385  -15.2769   40.3416  H     
34   H       -20.3843  -13.8073   39.5562  H     
35   H       -23.7298  -15.5368   40.5655  H     
36   H       -26.1578  -14.5677   41.4308  H     
37   H       -27.3996  -12.6023   41.7903  H     
38   H       -26.4518  -10.4940   41.3062  H     
39   H       -24.2554  -10.3250   40.4754  H     
@<TRIPOS>BOND
     1    1    2 2
     2    1    4 1
     3    2    3 1
     4    3    6 2
     5    4    5 2
     6    5    6 1
     7    5    9 1
     8    6    7 1
     9    7    8 2
    10    8   10 1
    11    8   14 1
    12    9   10 1
    13    9   13 2
    14   10   11 1
    15   11   12 2
    16   12   13 1
    17   12   15 1
    18   14   16 1
    19   16   17 1
    20   17   18 2
    21   17   19 1
    22   18   21 1
    23   19   20 2
    24   20   21 1
    25   20   25 1
    26   21   22 1
    27   22   23 2
    28   23   24 1
    29   24   25 2
    30    1   26 1
    31    2   27 1
    32    3   28 1
    33    4   29 1
    34   15   30 1
    35   15   31 1
    36   15   32 1
    37   16   33 1
    38   16   34 1
    39   18   35 1
    40   22   36 1
    41   23   37 1
    42   24   38 1
    43   25   39 1
@<TRIPOS>PROPERTY_DATA
  Total_Score	| 7.1360
  Crash		| -0.4476
  Polar		| 1.7339
  FragIndex	| 1
  FragRMSD	| 0.779

