@<TRIPOS>MOLECULE
BindingDB_50345096
 35 38 0 0 0
SMALL
NO_CHARGES


@<TRIPOS>ATOM
1    C       -19.8058   -9.9610   34.2688  C     
2    C       -19.6306   -9.6878   35.6384  C     
3    C       -19.8801  -10.6920   36.5939  C     
4    C       -20.2340  -11.2338   33.8474  C     
5    C       -20.5172  -12.2313   34.8028  C     
6    C       -20.3382  -11.9575   36.1856  C     
7    N       -20.6641  -12.9046   37.1191  N     
8    C       -21.1768  -14.1200   36.7851  C     
9    C       -21.0269  -13.5126   34.4846  C     
10   N       -21.3414  -14.3986   35.4576  N     
11   N       -21.8089  -15.4772   34.8968  N     
12   C       -21.7986  -15.2840   33.5648  C     
13   N       -21.3151  -14.0589   33.2929  N     
14   S       -21.6476  -15.2652   38.0228  S     
15   C       -22.2404  -16.2699   32.5695  C     
16   C       -21.9280  -14.1528   39.4319  C     
17   C       -22.9346  -14.6993   40.3867  C     
18   C       -22.6152  -15.8167   41.1947  C     
19   C       -23.5693  -16.3117   42.1029  C     
20   N       -24.7837  -15.7146   42.2032  N     
21   C       -25.1346  -14.6409   41.4538  C     
22   C       -24.2180  -14.1108   40.5261  C     
23   H       -19.6393   -9.2259   33.5791  H     
24   H       -19.3400   -8.7519   35.9414  H     
25   H       -19.7518  -10.4839   37.5867  H     
26   H       -20.3637  -11.4191   32.8516  H     
27   H       -21.6147  -17.1629   32.6560  H     
28   H       -22.1486  -15.8637   31.5571  H     
29   H       -23.2863  -16.5323   32.7562  H     
30   H       -20.9742  -13.9876   39.9428  H     
31   H       -22.2632  -13.1795   39.0618  H     
32   H       -21.7014  -16.2708   41.1227  H     
33   H       -23.3521  -17.1120   42.6982  H     
34   H       -26.0618  -14.2250   41.5680  H     
35   H       -24.4961  -13.3084   39.9593  H     
@<TRIPOS>BOND
     1    1    2 2
     2    1    4 1
     3    2    3 1
     4    3    6 2
     5    4    5 2
     6    5    6 1
     7    5    9 1
     8    6    7 1
     9    7    8 2
    10    8   10 1
    11    8   14 1
    12    9   10 1
    13    9   13 2
    14   10   11 1
    15   11   12 2
    16   12   13 1
    17   12   15 1
    18   14   16 1
    19   16   17 1
    20   17   18 2
    21   17   22 1
    22   18   19 1
    23   19   20 2
    24   20   21 1
    25   21   22 2
    26    1   23 1
    27    2   24 1
    28    3   25 1
    29    4   26 1
    30   15   27 1
    31   15   28 1
    32   15   29 1
    33   16   30 1
    34   16   31 1
    35   18   32 1
    36   19   33 1
    37   21   34 1
    38   22   35 1
@<TRIPOS>PROPERTY_DATA
  Total_Score	| 6.2658
  Crash		| -0.4567
  Polar		| 1.7327
  FragIndex	| 1
  FragRMSD	| 0.332

