@<TRIPOS>MOLECULE
BindingDB_50345117
 28 30 0 0 0
SMALL
NO_CHARGES


@<TRIPOS>ATOM
1    C       -19.7874   -9.9185   34.2753  C     
2    C       -19.5809   -9.6409   35.6399  C     
3    C       -19.8495  -10.6238   36.6121  C     
4    C       -20.2639  -11.1806   33.8745  C     
5    C       -20.5445  -12.1644   34.8453  C     
6    C       -20.3326  -11.8885   36.2221  C     
7    N       -20.6034  -12.8537   37.1581  N     
8    C       -21.0937  -14.0813   36.8284  C     
9    C       -21.0427  -13.4506   34.5395  C     
10   N       -21.3044  -14.3522   35.5094  N     
11   N       -21.7479  -15.4390   34.9543  N     
12   C       -21.7682  -15.2340   33.6241  C     
13   N       -21.3304  -13.9949   33.3508  N     
14   S       -21.3890  -15.3014   38.0425  S     
15   C       -22.1907  -16.2200   32.6204  C     
16   O       -23.6112  -16.3084   32.5837  O     
17   C       -21.5865  -14.2837   39.5225  C     
18   C       -21.6755  -15.1057   40.6093  C     
19   N       -21.7619  -15.8017   41.5201  N     
20   H       -19.5926   -9.2008   33.5734  H     
21   H       -19.2367   -8.7213   35.9260  H     
22   H       -19.6957  -10.4135   37.6015  H     
23   H       -20.4036  -11.3740   32.8798  H     
24   H       -21.8381  -15.9257   31.6293  H     
25   H       -21.7672  -17.1960   32.8650  H     
26   H       -23.8582  -16.8914   33.3310  H     
27   H       -20.7279  -13.6198   39.6399  H     
28   H       -22.5016  -13.6947   39.4518  H     
@<TRIPOS>BOND
     1    1    2 2
     2    1    4 1
     3    2    3 1
     4    3    6 2
     5    4    5 2
     6    5    6 1
     7    5    9 1
     8    6    7 1
     9    7    8 2
    10    8   10 1
    11    8   14 1
    12    9   10 1
    13    9   13 2
    14   10   11 1
    15   11   12 2
    16   12   13 1
    17   12   15 1
    18   14   17 1
    19   15   16 1
    20   17   18 1
    21   18   19 3
    22    1   20 1
    23    2   21 1
    24    3   22 1
    25    4   23 1
    26   15   24 1
    27   15   25 1
    28   16   26 1
    29   17   27 1
    30   17   28 1
@<TRIPOS>PROPERTY_DATA
  Total_Score	| 5.2163
  Crash		| -0.3327
  Polar		| 2.8937
  FragIndex	| 1
  FragRMSD	| 0.143

