@<TRIPOS>MOLECULE
BindingDB_26673
 34 36 0 0 0
SMALL
NO_CHARGES


@<TRIPOS>ATOM
1    C       -16.9408   34.3184    1.0213  C     
2    C       -18.4285   36.1119    0.5372  C     
3    C       -18.1119   35.9760   -0.7773  C     
4    C       -17.2457   34.9856   -1.2193  C     
5    C       -16.6327   34.1679   -0.3153  C     
6    O       -16.4808   33.6129    1.9147  O     
7    N       -17.8211   35.2457    1.3908  N     
8    C       -15.7413   33.2963   -0.6533  C     
9    N       -14.9439   32.5331   -0.9604  N     
10   C       -17.0709   34.8571   -2.6008  C     
11   C       -16.2396   35.7614   -3.3053  C     
12   C       -17.7535   33.8451   -3.3180  C     
13   C       -17.5802   33.7194   -4.7065  C     
14   C       -16.7284   34.6049   -5.3930  C     
15   C       -16.0636   35.6292   -4.6919  C     
16   C       -19.3558   37.0670    1.0454  C     
17   C       -20.3211   37.6868    0.1967  C     
18   C       -21.2666   38.6159    0.6769  C     
19   C       -21.3151   38.9263    2.0451  C     
20   C       -20.3950   38.3277    2.9208  C     
21   C       -19.4125   37.4398    2.4300  C     
22   Br      -22.4540   39.4161   -0.5090  Br    
23   O       -18.5392   37.0054    3.3751  O     
24   H       -18.4899   36.6068   -1.4475  H     
25   H       -18.0418   35.2795    2.3318  H     
26   H       -15.7519   36.5117   -2.8058  H     
27   H       -18.3862   33.1993   -2.8306  H     
28   H       -18.0680   32.9773   -5.2174  H     
29   H       -16.5921   34.5038   -6.4008  H     
30   H       -15.4429   36.2704   -5.1919  H     
31   H       -20.3713   37.4645   -0.7946  H     
32   H       -22.0121   39.5832    2.4080  H     
33   H       -20.4316   38.5565    3.9184  H     
34   H       -17.6725   37.3958    3.1407  H     
@<TRIPOS>BOND
     1    1    5 1
     2    1    6 2
     3    1    7 1
     4    2    3 2
     5    2    7 1
     6    2   16 1
     7    3    4 1
     8    4    5 2
     9    4   10 1
    10    5    8 1
    11    8    9 3
    12   10   11 2
    13   10   12 1
    14   11   15 1
    15   12   13 2
    16   13   14 1
    17   14   15 2
    18   16   17 1
    19   16   21 2
    20   17   18 2
    21   18   19 1
    22   18   22 1
    23   19   20 2
    24   20   21 1
    25   21   23 1
    26    3   24 1
    27    7   25 1
    28   11   26 1
    29   12   27 1
    30   13   28 1
    31   14   29 1
    32   15   30 1
    33   17   31 1
    34   19   32 1
    35   20   33 1
    36   23   34 1
@<TRIPOS>PROPERTY_DATA
  Total_Score	| 3.9290
  Crash		| -0.5095
  Polar		| 1.1389
  FragIndex	| 1
  FragRMSD	| 0.188

