@<TRIPOS>MOLECULE
BindingDB_26676
 35 37 0 0 0
SMALL
NO_CHARGES


@<TRIPOS>ATOM
1    C       -16.9656   34.2777    0.9018  C     
2    C       -18.4378   36.0899    0.4464  C     
3    C       -18.0444   36.0376   -0.8510  C     
4    C       -17.1410   35.0830   -1.3047  C     
5    C       -16.5824   34.1967   -0.4257  C     
6    O       -16.5142   33.5464    1.7807  O     
7    N       -17.8727   35.1778    1.2811  N     
8    C       -15.6974   33.3173   -0.7743  C     
9    N       -14.9103   32.5452   -1.0853  N     
10   C       -16.8535   35.0736   -2.6778  C     
11   C       -15.9084   35.9818   -3.2124  C     
12   C       -17.5163   34.1759   -3.5496  C     
13   C       -17.2272   34.1832   -4.9275  C     
14   C       -16.2590   35.0676   -5.4460  C     
15   C       -15.6118   35.9784   -4.5871  C     
16   C       -19.3973   37.0143    0.9513  C     
17   C       -20.4238   37.5412    0.1153  C     
18   C       -21.3893   38.4454    0.5990  C     
19   C       -21.3829   38.8368    1.9450  C     
20   C       -20.4030   38.3207    2.8040  C     
21   C       -19.4102   37.4436    2.3143  C     
22   O       -15.9652   35.0109   -6.7729  O     
23   O       -18.4770   37.0573    3.2247  O     
24   H       -18.3852   36.7132   -1.4935  H     
25   H       -18.1460   35.1700    2.2083  H     
26   H       -15.4300   36.6492   -2.6014  H     
27   H       -18.2210   33.5267   -3.1916  H     
28   H       -17.7125   33.5312   -5.5500  H     
29   H       -14.9192   36.6306   -4.9568  H     
30   H       -20.5026   37.2443   -0.8581  H     
31   H       -22.1115   38.8160   -0.0215  H     
32   H       -22.0898   39.4835    2.3056  H     
33   H       -20.4044   38.5979    3.7887  H     
34   H       -14.9915   35.0784   -6.8524  H     
35   H       -17.6305   37.4071    2.8931  H     
@<TRIPOS>BOND
     1    1    5 1
     2    1    6 2
     3    1    7 1
     4    2    3 2
     5    2    7 1
     6    2   16 1
     7    3    4 1
     8    4    5 2
     9    4   10 1
    10    5    8 1
    11    8    9 3
    12   10   11 2
    13   10   12 1
    14   11   15 1
    15   12   13 2
    16   13   14 1
    17   14   15 2
    18   14   22 1
    19   16   17 1
    20   16   21 2
    21   17   18 2
    22   18   19 1
    23   19   20 2
    24   20   21 1
    25   21   23 1
    26    3   24 1
    27    7   25 1
    28   11   26 1
    29   12   27 1
    30   13   28 1
    31   15   29 1
    32   17   30 1
    33   18   31 1
    34   19   32 1
    35   20   33 1
    36   22   34 1
    37   23   35 1
@<TRIPOS>PROPERTY_DATA
  Total_Score	| 3.9383
  Crash		| -0.4522
  Polar		| 2.1656
  FragIndex	| 1
  FragRMSD	| 0.309

