@<TRIPOS>MOLECULE
BindingDB_26687
 35 38 0 0 0
SMALL
NO_CHARGES


@<TRIPOS>ATOM
1    C       -19.2990   37.3096    2.5656  C     
2    C       -20.1559   38.3046    3.0727  C     
3    C       -20.9404   39.0780    2.2022  C     
4    C       -20.8652   38.8538    0.8192  C     
5    C       -19.2068   37.0689    1.1703  C     
6    C       -20.0015   37.8671    0.3083  C     
7    C       -18.8031   37.0794   -1.5935  C     
8    O       -20.0159   37.6286   -1.0391  O     
9    C       -18.1614   36.0440   -0.7639  C     
10   C       -18.3731   36.1013    0.5810  C     
11   C       -16.9251   34.2790    0.9146  C     
12   C       -17.2698   35.0876   -1.2793  C     
13   C       -16.6555   34.2002   -0.4334  C     
14   N       -17.7585   35.2039    1.3706  N     
15   O       -16.4324   33.5432    1.7615  O     
16   C       -15.8214   33.3013   -0.8384  C     
17   N       -15.0797   32.5067   -1.1983  N     
18   C       -16.9809   35.0768   -2.6572  C     
19   C       -15.9488   35.9132   -3.1472  C     
20   C       -17.6740   34.2395   -3.5724  C     
21   C       -17.3546   34.2809   -4.9437  C     
22   C       -16.3393   35.1288   -5.4175  C     
23   C       -15.6292   35.9383   -4.5167  C     
24   Cl      -18.8960   33.1669   -3.0974  Cl    
25   H       -18.7355   36.7792    3.2328  H     
26   H       -20.2027   38.4729    4.0814  H     
27   H       -21.5672   39.7978    2.5746  H     
28   H       -21.4419   39.4089    0.1851  H     
29   H       -19.0915   36.6826   -2.5658  H     
30   H       -18.0912   37.8889   -1.7540  H     
31   H       -17.9336   35.2234    2.3225  H     
32   H       -15.4169   36.5179   -2.5132  H     
33   H       -17.8565   33.6878   -5.6104  H     
34   H       -16.1175   35.1515   -6.4163  H     
35   H       -14.8869   36.5467   -4.8599  H     
@<TRIPOS>BOND
     1    1    2 2
     2    1    5 1
     3    2    3 1
     4    3    4 2
     5    4    6 1
     6    5    6 2
     7    5   10 1
     8    6    8 1
     9    7    8 1
    10    7    9 1
    11    9   10 2
    12    9   12 1
    13   10   14 1
    14   11   13 1
    15   11   14 1
    16   11   15 2
    17   12   13 2
    18   12   18 1
    19   13   16 1
    20   16   17 3
    21   18   19 2
    22   18   20 1
    23   19   23 1
    24   20   21 2
    25   20   24 1
    26   21   22 1
    27   22   23 2
    28    1   25 1
    29    2   26 1
    30    3   27 1
    31    4   28 1
    32    7   29 1
    33    7   30 1
    34   14   31 1
    35   19   32 1
    36   21   33 1
    37   22   34 1
    38   23   35 1
@<TRIPOS>PROPERTY_DATA
  Total_Score	| 4.3253
  Crash		| -0.5183
  Polar		| 1.0858
  FragIndex	| 1
  FragRMSD	| 1.469

