@<TRIPOS>MOLECULE
BindingDB_26682
 35 37 0 0 0
SMALL
NO_CHARGES


@<TRIPOS>ATOM
1    C       -16.6167   34.6063    0.8512  C     
2    C       -18.3880   36.1441    0.3299  C     
3    C       -18.1811   35.9165   -1.0458  C     
4    C       -17.2005   34.9961   -1.4722  C     
5    C       -16.4077   34.3066   -0.5136  C     
6    N       -17.5820   35.4850    1.2042  N     
7    C       -15.5070   33.4266   -0.8702  C     
8    N       -14.7153   32.6542   -1.1910  N     
9    N       -15.8935   34.0581    1.8492  N     
10   C       -17.0473   34.8072   -2.8693  C     
11   C       -16.2166   35.6732   -3.6170  C     
12   C       -17.7394   33.7652   -3.5261  C     
13   C       -17.5895   33.5826   -4.9126  C     
14   C       -16.7515   34.4411   -5.6489  C     
15   C       -16.0667   35.4875   -5.0015  C     
16   C       -19.3802   37.0336    0.8299  C     
17   C       -20.4893   37.4447    0.0462  C     
18   C       -21.4677   38.3099    0.5716  C     
19   C       -21.3659   38.7718    1.8896  C     
20   C       -20.2805   38.3712    2.6909  C     
21   C       -19.2925   37.5194    2.1606  C     
22   O       -22.3116   39.6077    2.3743  O     
23   H       -18.7283   36.4270   -1.7390  H     
24   H       -16.0785   34.2995    2.7740  H     
25   H       -15.1823   33.4344    1.6464  H     
26   H       -15.7146   36.4407   -3.1531  H     
27   H       -18.3567   33.1363   -2.9996  H     
28   H       -18.0915   32.8279   -5.3839  H     
29   H       -16.6408   34.3060   -6.6557  H     
30   H       -15.4585   36.1094   -5.5361  H     
31   H       -20.6195   37.1021   -0.9063  H     
32   H       -22.2683   38.5862   -0.0068  H     
33   H       -20.2009   38.6914    3.6583  H     
34   H       -18.5002   37.2661    2.7598  H     
35   H       -22.2085   39.5696    3.3600  H     
@<TRIPOS>BOND
     1    1    5 1
     2    1    6 2
     3    1    9 1
     4    2    3 2
     5    2    6 1
     6    2   16 1
     7    3    4 1
     8    4    5 2
     9    4   10 1
    10    5    7 1
    11    7    8 3
    12   10   11 2
    13   10   12 1
    14   11   15 1
    15   12   13 2
    16   13   14 1
    17   14   15 2
    18   16   17 1
    19   16   21 2
    20   17   18 2
    21   18   19 1
    22   19   20 2
    23   19   22 1
    24   20   21 1
    25    3   23 1
    26    9   24 1
    27    9   25 1
    28   11   26 1
    29   12   27 1
    30   13   28 1
    31   14   29 1
    32   15   30 1
    33   17   31 1
    34   18   32 1
    35   20   33 1
    36   21   34 1
    37   22   35 1
@<TRIPOS>PROPERTY_DATA
  Total_Score	| 3.4204
  Crash		| -1.3562
  Polar		| 1.0764
  FragIndex	| 1
  FragRMSD	| 0.375

