@<TRIPOS>MOLECULE
BindingDB_26690
 34 37 0 0 0
SMALL
NO_CHARGES


@<TRIPOS>ATOM
1    C       -19.3996   37.3929    2.6752  C     
2    C       -20.3040   38.3723    3.1267  C     
3    C       -21.1793   38.9948    2.2211  C     
4    C       -21.1484   38.6404    0.8621  C     
5    C       -19.3529   37.0194    1.3073  C     
6    C       -20.2354   37.6704    0.4061  C     
7    C       -19.0429   36.7989   -1.4561  C     
8    O       -20.2804   37.3024   -0.9132  O     
9    C       -18.2926   35.8986   -0.5595  C     
10   C       -18.4704   36.0586    0.7822  C     
11   C       -16.8912   34.3637    1.2167  C     
12   C       -17.3482   34.9676   -1.0217  C     
13   C       -16.6602   34.1918   -0.1308  C     
14   N       -17.7675   35.2740    1.6225  N     
15   O       -16.3379   33.7177    2.0991  O     
16   C       -15.7791   33.3196   -0.4920  C     
17   N       -15.0027   32.5399   -0.8177  N     
18   C       -17.1193   34.8447   -2.3966  C     
19   C       -17.7542   33.8495   -3.1730  C     
20   C       -17.4903   33.7834   -4.5525  C     
21   C       -15.9963   35.6783   -4.3359  C     
22   C       -16.6048   34.7018   -5.1435  C     
23   N       -16.2722   35.7177   -3.0080  N     
24   H       -18.7721   36.9674    3.3600  H     
25   H       -20.3245   38.6323    4.1152  H     
26   H       -21.8408   39.7011    2.5515  H     
27   H       -21.7942   39.0862    0.2066  H     
28   H       -19.3227   36.2909   -2.3805  H     
29   H       -18.3995   37.6432   -1.7155  H     
30   H       -17.9103   35.3664    2.5764  H     
31   H       -18.4010   33.1826   -2.7453  H     
32   H       -17.9438   33.0687   -5.1248  H     
33   H       -15.3504   36.3585   -4.7391  H     
34   H       -16.4075   34.6614   -6.1447  H     
@<TRIPOS>BOND
     1    1    2 2
     2    1    5 1
     3    2    3 1
     4    3    4 2
     5    4    6 1
     6    5    6 2
     7    5   10 1
     8    6    8 1
     9    7    8 1
    10    7    9 1
    11    9   10 2
    12    9   12 1
    13   10   14 1
    14   11   13 1
    15   11   14 1
    16   11   15 2
    17   12   13 2
    18   12   18 1
    19   13   16 1
    20   16   17 3
    21   18   19 1
    22   18   23 2
    23   19   20 2
    24   20   22 1
    25   21   22 2
    26   21   23 1
    27    1   24 1
    28    2   25 1
    29    3   26 1
    30    4   27 1
    31    7   28 1
    32    7   29 1
    33   14   30 1
    34   19   31 1
    35   20   32 1
    36   21   33 1
    37   22   34 1
@<TRIPOS>PROPERTY_DATA
  Total_Score	| 3.9634
  Crash		| -0.3272
  Polar		| 1.1419
  FragIndex	| 1
  FragRMSD	| 1.491

