@<TRIPOS>MOLECULE
BindingDB_26675
 37 39 0 0 0
SMALL
NO_CHARGES


@<TRIPOS>ATOM
1    C       -16.9686   34.3030    1.0036  C     
2    C       -18.4830   36.0642    0.5393  C     
3    C       -18.1910   35.9442   -0.7792  C     
4    C       -17.3255   34.9612   -1.2396  C     
5    C       -16.6979   34.1425   -0.3437  C     
6    O       -16.4542   33.6344    1.8905  O     
7    N       -17.8449   35.2277    1.3903  N     
8    C       -15.8439   33.2492   -0.6987  C     
9    N       -15.0698   32.4582   -1.0094  N     
10   C       -17.1601   34.8505   -2.6310  C     
11   C       -16.4022   35.8200   -3.3259  C     
12   C       -17.7625   33.7985   -3.3617  C     
13   C       -17.5979   33.7213   -4.7543  C     
14   C       -16.8396   34.6924   -5.4351  C     
15   C       -16.2327   35.7537   -4.7281  C     
16   C       -19.4065   36.9938    1.0551  C     
17   C       -20.4712   37.5224    0.2748  C     
18   C       -21.3810   38.4577    0.8083  C     
19   C       -21.2685   38.8725    2.1441  C     
20   C       -20.2462   38.3441    2.9501  C     
21   C       -19.3232   37.4238    2.4087  C     
22   C       -15.4204   36.7806   -5.4153  C     
23   O       -18.5147   32.8518   -2.7472  O     
24   H       -18.5962   36.5817   -1.4301  H     
25   H       -18.0380   35.2890    2.3415  H     
26   H       -15.9611   36.5870   -2.8071  H     
27   H       -18.0323   32.9598   -5.2838  H     
28   H       -16.7364   34.6194   -6.4503  H     
29   H       -20.6173   37.2106   -0.6910  H     
30   H       -22.1399   38.8304    0.2236  H     
31   H       -21.9289   39.5460    2.5342  H     
32   H       -20.1671   38.6242    3.9304  H     
33   H       -18.5767   37.0857    3.0239  H     
34   H       -15.8544   37.7676   -5.2426  H     
35   H       -15.3656   36.6142   -6.4934  H     
36   H       -14.4042   36.7679   -5.0174  H     
37   H       -19.4514   33.1012   -2.9563  H     
@<TRIPOS>BOND
     1    1    5 1
     2    1    6 2
     3    1    7 1
     4    2    3 2
     5    2    7 1
     6    2   16 1
     7    3    4 1
     8    4    5 2
     9    4   10 1
    10    5    8 1
    11    8    9 3
    12   10   11 2
    13   10   12 1
    14   11   15 1
    15   12   13 2
    16   12   23 1
    17   13   14 1
    18   14   15 2
    19   15   22 1
    20   16   17 1
    21   16   21 2
    22   17   18 2
    23   18   19 1
    24   19   20 2
    25   20   21 1
    26    3   24 1
    27    7   25 1
    28   11   26 1
    29   13   27 1
    30   14   28 1
    31   17   29 1
    32   18   30 1
    33   19   31 1
    34   20   32 1
    35   21   33 1
    36   22   34 1
    37   22   35 1
    38   22   36 1
    39   23   37 1
@<TRIPOS>PROPERTY_DATA
  Total_Score	| 4.2457
  Crash		| -0.6864
  Polar		| 1.1326
  FragIndex	| 1
  FragRMSD	| 0.146

