@<TRIPOS>MOLECULE
BindingDB_26686
 35 38 0 0 0
SMALL
NO_CHARGES


@<TRIPOS>ATOM
1    C       -19.4182   37.3667    2.6942  C     
2    C       -20.3347   38.3258    3.1621  C     
3    C       -21.2585   38.9148    2.2855  C     
4    C       -21.2641   38.5448    0.9314  C     
5    C       -19.4038   36.9816    1.3298  C     
6    C       -20.3360   37.6003    0.4579  C     
7    C       -19.1418   36.8094   -1.4330  C     
8    O       -20.3980   37.2276   -0.8593  O     
9    C       -18.3716   35.8833   -0.5787  C     
10   C       -18.5150   36.0383    0.7715  C     
11   C       -16.9065   34.3691    1.1532  C     
12   C       -17.4171   34.9777   -1.0730  C     
13   C       -16.6933   34.2123   -0.1977  C     
14   N       -17.7907   35.2552    1.5868  N     
15   O       -16.3396   33.7141    2.0195  O     
16   C       -15.8310   33.3315   -0.5758  C     
17   N       -15.0602   32.5444   -0.9037  N     
18   C       -17.1913   34.8793   -2.4617  C     
19   C       -16.1517   35.6192   -3.0718  C     
20   C       -17.9827   34.0237   -3.2643  C     
21   C       -17.7608   33.9500   -4.6576  C     
22   C       -16.7357   34.7013   -5.2571  C     
23   C       -15.9185   35.5259   -4.4586  C     
24   Cl      -16.4816   34.6212   -6.9260  Cl    
25   H       -18.7566   36.9685    3.3557  H     
26   H       -20.3313   38.5938    4.1506  H     
27   H       -21.9338   39.5988    2.6329  H     
28   H       -21.9486   38.9601    0.2966  H     
29   H       -19.3949   36.3598   -2.3918  H     
30   H       -18.5289   37.6963   -1.6300  H     
31   H       -17.9267   35.3302    2.5442  H     
32   H       -15.5445   36.2228   -2.5082  H     
33   H       -18.7236   33.4567   -2.8512  H     
34   H       -18.3546   33.3387   -5.2299  H     
35   H       -15.1613   36.0664   -4.8786  H     
@<TRIPOS>BOND
     1    1    2 2
     2    1    5 1
     3    2    3 1
     4    3    4 2
     5    4    6 1
     6    5    6 2
     7    5   10 1
     8    6    8 1
     9    7    8 1
    10    7    9 1
    11    9   10 2
    12    9   12 1
    13   10   14 1
    14   11   13 1
    15   11   14 1
    16   11   15 2
    17   12   13 2
    18   12   18 1
    19   13   16 1
    20   16   17 3
    21   18   19 2
    22   18   20 1
    23   19   23 1
    24   20   21 2
    25   21   22 1
    26   22   23 2
    27   22   24 1
    28    1   25 1
    29    2   26 1
    30    3   27 1
    31    4   28 1
    32    7   29 1
    33    7   30 1
    34   14   31 1
    35   19   32 1
    36   20   33 1
    37   21   34 1
    38   23   35 1
@<TRIPOS>PROPERTY_DATA
  Total_Score	| 4.0122
  Crash		| -0.3725
  Polar		| 1.1582
  FragIndex	| 1
  FragRMSD	| 1.462

