@<TRIPOS>MOLECULE
BindingDB_26695
 36 39 0 0 0
SMALL
NO_CHARGES


@<TRIPOS>ATOM
1    C       -19.5925   37.2246    2.4928  C     
2    C       -20.4424   38.2284    2.9883  C     
3    C       -21.0299   39.1515    2.1100  C     
4    C       -20.7781   39.0570    0.7330  C     
5    C       -19.3051   37.1152    1.1034  C     
6    C       -19.9392   38.0399    0.2246  C     
7    C       -19.2426   36.5669   -1.6805  C     
8    C       -18.2971   35.8986   -0.7612  C     
9    C       -18.4196   36.1438    0.5764  C     
10   C       -16.8092   34.4785    1.0534  C     
11   C       -17.4072   34.8941   -1.1944  C     
12   C       -16.6805   34.1782   -0.2825  C     
13   N       -17.6471   35.4370    1.4291  N     
14   O       -16.2614   33.8467    1.9520  O     
15   C       -15.8502   33.2445   -0.6137  C     
16   N       -15.1127   32.4167   -0.9068  N     
17   C       -17.2574   34.6394   -2.5693  C     
18   C       -17.9750   33.5956   -3.1942  C     
19   C       -16.3692   35.4123   -3.3512  C     
20   C       -16.2310   35.1307   -4.7217  C     
21   C       -17.7948   33.3538   -4.5666  C     
22   N       -16.9371   34.1189   -5.2834  N     
23   C       -19.6557   37.9891   -1.2281  C     
24   H       -19.1973   36.5710    3.1729  H     
25   H       -20.6265   38.2940    3.9930  H     
26   H       -21.6266   39.8992    2.4736  H     
27   H       -21.1940   39.7499    0.1056  H     
28   H       -18.8400   36.6764   -2.6895  H     
29   H       -20.1395   35.9439   -1.7496  H     
30   H       -17.7132   35.6240    2.3772  H     
31   H       -18.6244   33.0110   -2.6611  H     
32   H       -15.8264   36.1730   -2.9312  H     
33   H       -15.5982   35.6833   -5.3027  H     
34   H       -18.3068   32.5991   -5.0285  H     
35   H       -20.5366   38.2962   -1.8019  H     
36   H       -18.8464   38.6919   -1.4434  H     
@<TRIPOS>BOND
     1    1    2 2
     2    1    5 1
     3    2    3 1
     4    3    4 2
     5    4    6 1
     6    5    6 2
     7    5    9 1
     8    6   23 1
     9    7    8 1
    10    7   23 1
    11    8    9 2
    12    8   11 1
    13    9   13 1
    14   10   12 1
    15   10   13 1
    16   10   14 2
    17   11   12 2
    18   11   17 1
    19   12   15 1
    20   15   16 3
    21   17   18 2
    22   17   19 1
    23   18   21 1
    24   19   20 2
    25   20   22 1
    26   21   22 2
    27    1   24 1
    28    2   25 1
    29    3   26 1
    30    4   27 1
    31    7   28 1
    32    7   29 1
    33   13   30 1
    34   18   31 1
    35   19   32 1
    36   20   33 1
    37   21   34 1
    38   23   35 1
    39   23   36 1
@<TRIPOS>PROPERTY_DATA
  Total_Score	| 4.2293
  Crash		| -0.4028
  Polar		| 1.1142
  FragIndex	| 1
  FragRMSD	| 0.441

