@<TRIPOS>MOLECULE
BindingDB_26688
 39 42 0 0 0
SMALL
NO_CHARGES


@<TRIPOS>ATOM
1    C       -19.1789   37.2835    2.8977  C     
2    C       -20.0468   38.2761    3.3895  C     
3    C       -20.7249   39.1273    2.5051  C     
4    C       -20.5299   38.9870    1.1207  C     
5    C       -18.9571   37.1258    1.5045  C     
6    C       -19.6498   38.0016    0.6294  C     
7    C       -19.0307   36.6752   -1.2524  C     
8    O       -19.4018   37.9655   -0.7186  O     
9    C       -18.0858   35.9205   -0.4138  C     
10   C       -18.1208   36.1501    0.9331  C     
11   C       -16.5771   34.4165    1.2892  C     
12   C       -17.2820   34.8827   -0.9178  C     
13   C       -16.5220   34.1387   -0.0577  C     
14   N       -17.3545   35.3922    1.7333  N     
15   O       -15.9673   33.7849    2.1435  O     
16   C       -15.7212   33.1988   -0.4532  C     
17   N       -15.0086   32.3639   -0.7931  N     
18   C       -17.2261   34.6290   -2.2961  C     
19   C       -17.9053   33.5205   -2.8510  C     
20   C       -16.4352   35.4342   -3.1529  C     
21   C       -16.2942   35.1161   -4.5220  C     
22   C       -16.9603   33.9961   -5.0696  C     
23   C       -17.7731   33.2051   -4.2189  C     
24   O       -16.7115   33.7197   -6.3996  O     
25   C       -17.6008   32.8407   -7.1127  C     
26   H       -18.7206   36.6728    3.5727  H     
27   H       -20.1925   38.3794    4.3936  H     
28   H       -21.3483   39.8528    2.8618  H     
29   H       -21.0198   39.6123    0.4760  H     
30   H       -19.9301   36.0643   -1.3933  H     
31   H       -18.6057   36.8803   -2.2347  H     
32   H       -17.3763   35.5502    2.6852  H     
33   H       -18.4875   32.9086   -2.2731  H     
34   H       -15.9362   36.2490   -2.7803  H     
35   H       -15.6925   35.7096   -5.1145  H     
36   H       -18.2670   32.3976   -4.5865  H     
37   H       -17.5627   31.8286   -6.6900  H     
38   H       -17.3120   32.8094   -8.1629  H     
39   H       -18.6257   33.2108   -7.0588  H     
@<TRIPOS>BOND
     1    1    2 2
     2    1    5 1
     3    2    3 1
     4    3    4 2
     5    4    6 1
     6    5    6 2
     7    5   10 1
     8    6    8 1
     9    7    8 1
    10    7    9 1
    11    9   10 2
    12    9   12 1
    13   10   14 1
    14   11   13 1
    15   11   14 1
    16   11   15 2
    17   12   13 2
    18   12   18 1
    19   13   16 1
    20   16   17 3
    21   18   19 2
    22   18   20 1
    23   19   23 1
    24   20   21 2
    25   21   22 1
    26   22   23 2
    27   22   24 1
    28   24   25 1
    29    1   26 1
    30    2   27 1
    31    3   28 1
    32    4   29 1
    33    7   30 1
    34    7   31 1
    35   14   32 1
    36   19   33 1
    37   20   34 1
    38   21   35 1
    39   23   36 1
    40   25   37 1
    41   25   38 1
    42   25   39 1
@<TRIPOS>PROPERTY_DATA
  Total_Score	| 4.0007
  Crash		| -0.9783
  Polar		| 0.9740
  FragIndex	| 1
  FragRMSD	| 1.327

