@<TRIPOS>MOLECULE
BindingDB_26677
 40 42 0 0 0
SMALL
NO_CHARGES


@<TRIPOS>ATOM
1    C       -16.9180   34.3548    0.9428  C     
2    C       -18.3758   36.1767    0.5115  C     
3    C       -18.1084   36.0178   -0.8169  C     
4    C       -17.2916   35.0044   -1.2861  C     
5    C       -16.6675   34.1800   -0.3976  C     
6    O       -16.4305   33.6655    1.8260  O     
7    N       -17.7713   35.2855    1.3374  N     
8    C       -15.8300   33.2624   -0.7515  C     
9    N       -15.0833   32.4435   -1.0544  N     
10   C       -17.1604   34.8600   -2.6780  C     
11   C       -16.3960   35.7842   -3.4371  C     
12   C       -17.8197   33.8011   -3.3555  C     
13   C       -17.6848   33.6499   -4.7482  C     
14   C       -16.9027   34.5550   -5.4858  C     
15   C       -16.2571   35.6257   -4.8351  C     
16   C       -19.2227   37.1965    1.0468  C     
17   C       -20.0145   38.0451    0.2139  C     
18   C       -20.8343   39.0828    0.7264  C     
19   C       -20.9654   39.2237    2.1257  C     
20   C       -20.2302   38.3963    2.9806  C     
21   C       -19.3520   37.4307    2.4546  C     
22   C       -21.5351   40.0202   -0.2010  C     
23   C       -22.7253   39.3481   -0.9224  C     
24   O       -18.6094   36.7938    3.3963  O     
25   Cl      -15.3361   36.7311   -5.7285  Cl    
26   H       -18.5032   36.6471   -1.4847  H     
27   H       -17.9613   35.3117    2.2877  H     
28   H       -15.9222   36.5625   -2.9607  H     
29   H       -18.4011   33.1314   -2.8408  H     
30   H       -18.1706   32.8929   -5.2350  H     
31   H       -16.8086   34.4473   -6.4967  H     
32   H       -20.0085   37.9507   -0.8044  H     
33   H       -21.5712   39.9441    2.5182  H     
34   H       -20.3012   38.5138    3.9945  H     
35   H       -21.9154   40.9026    0.3361  H     
36   H       -20.8287   40.3956   -0.9540  H     
37   H       -22.3641   38.6088   -1.6404  H     
38   H       -23.3166   40.0891   -1.4610  H     
39   H       -23.3668   38.8527   -0.1920  H     
40   H       -17.7359   37.2651    3.4083  H     
@<TRIPOS>BOND
     1    1    5 1
     2    1    6 2
     3    1    7 1
     4    2    3 2
     5    2    7 1
     6    2   16 1
     7    3    4 1
     8    4    5 2
     9    4   10 1
    10    5    8 1
    11    8    9 3
    12   10   11 2
    13   10   12 1
    14   11   15 1
    15   12   13 2
    16   13   14 1
    17   14   15 2
    18   15   25 1
    19   16   17 1
    20   16   21 2
    21   17   18 2
    22   18   19 1
    23   18   22 1
    24   19   20 2
    25   20   21 1
    26   21   24 1
    27   22   23 1
    28    3   26 1
    29    7   27 1
    30   11   28 1
    31   12   29 1
    32   13   30 1
    33   14   31 1
    34   17   32 1
    35   19   33 1
    36   20   34 1
    37   22   35 1
    38   22   36 1
    39   23   37 1
    40   23   38 1
    41   23   39 1
    42   24   40 1
@<TRIPOS>PROPERTY_DATA
  Total_Score	| 5.5627
  Crash		| -0.7876
  Polar		| 1.1321
  FragIndex	| 1
  FragRMSD	| 0.310

