@<TRIPOS>MOLECULE
BindingDB_50209188
 34 36 0 0 0
SMALL
NO_CHARGES


@<TRIPOS>ATOM
1    C       -21.3738   38.8713    2.1108  C     
2    C       -21.4116   38.4951    0.7570  C     
3    C       -20.4716   37.5884    0.2508  C     
4    C       -19.4262   37.0376    1.0567  C     
5    C       -19.4232   37.4521    2.4328  C     
6    C       -20.3830   38.3357    2.9480  C     
7    O       -18.4972   37.0663    3.3404  O     
8    C       -18.4858   36.0934    0.5394  C     
9    C       -18.0814   36.0367   -0.7686  C     
10   C       -17.2367   35.0472   -1.2314  C     
11   C       -16.6286   34.2130   -0.3266  C     
12   C       -16.9958   34.3008    0.9999  C     
13   N       -17.9303   35.1500    1.3615  N     
14   O       -16.5393   33.5821    1.8845  O     
15   C       -15.7540   33.3447   -0.6736  C     
16   N       -14.9683   32.5646   -0.9784  N     
17   C       -17.1273   34.8669   -2.6208  C     
18   C       -16.4031   35.7770   -3.4235  C     
19   C       -16.3375   35.6007   -4.8233  C     
20   C       -16.9960   34.5169   -5.4306  C     
21   C       -17.7260   33.6106   -4.6435  C     
22   C       -17.7915   33.7808   -3.2483  C     
23   H       -22.0803   39.5142    2.4815  H     
24   H       -22.1521   38.8604    0.1504  H     
25   H       -20.6062   37.3096   -0.7197  H     
26   H       -20.3661   38.6000    3.9317  H     
27   H       -17.6346   37.3635    2.9597  H     
28   H       -18.3573   36.7611   -1.3990  H     
29   H       -18.2178   35.1030    2.2834  H     
30   H       -15.9129   36.5723   -3.0002  H     
31   H       -15.8110   36.2669   -5.3953  H     
32   H       -16.9638   34.4040   -6.4420  H     
33   H       -18.2182   32.8298   -5.0846  H     
34   H       -18.3416   33.1157   -2.6926  H     
@<TRIPOS>BOND
     1    1    2 2
     2    1    6 1
     3    2    3 1
     4    3    4 2
     5    4    5 1
     6    4    8 1
     7    5    6 2
     8    5    7 1
     9    8    9 2
    10    8   13 1
    11    9   10 1
    12   10   11 2
    13   10   17 1
    14   11   12 1
    15   11   15 1
    16   12   13 1
    17   12   14 2
    18   15   16 3
    19   17   18 2
    20   17   22 1
    21   18   19 1
    22   19   20 2
    23   20   21 1
    24   21   22 2
    25    1   23 1
    26    2   24 1
    27    3   25 1
    28    6   26 1
    29    7   27 1
    30    9   28 1
    31   13   29 1
    32   18   30 1
    33   19   31 1
    34   20   32 1
    35   21   33 1
    36   22   34 1
@<TRIPOS>PROPERTY_DATA
  Total_Score	| 3.5480
  Crash		| -0.3497
  Polar		| 1.1226
  FragIndex	| 1
  FragRMSD	| 0.194

