@<TRIPOS>MOLECULE
BindingDB_26689
 34 37 0 0 0
SMALL
NO_CHARGES


@<TRIPOS>ATOM
1    C       -19.6575   37.1381    2.6096  C     
2    C       -20.5840   38.1027    3.0476  C     
3    C       -21.0952   39.0572    2.1554  C     
4    C       -20.6612   39.0592    0.8215  C     
5    C       -19.2060   37.1228    1.2663  C     
6    C       -19.7297   38.0997    0.3827  C     
7    C       -18.8811   36.9204   -1.4933  C     
8    O       -19.2713   38.1782   -0.9035  O     
9    C       -18.0921   36.0515   -0.6000  C     
10   C       -18.2949   36.1878    0.7414  C     
11   C       -16.7724   34.4444    1.1703  C     
12   C       -17.2480   35.0309   -1.0683  C     
13   C       -16.5829   34.2333   -0.1778  C     
14   N       -17.6095   35.3891    1.5804  N     
15   O       -16.2331   33.7821    2.0488  O     
16   C       -15.7883   33.2840   -0.5418  C     
17   N       -15.0814   32.4385   -0.8655  N     
18   C       -17.1215   34.8244   -2.4512  C     
19   C       -17.9117   33.8523   -3.1045  C     
20   C       -16.2010   35.5807   -3.2109  C     
21   C       -16.1096   35.3639   -4.5979  C     
22   C       -17.7746   33.6719   -4.4928  C     
23   N       -16.8888   34.4254   -5.1900  N     
24   H       -19.3263   36.4469    3.2844  H     
25   H       -20.8905   38.1141    4.0196  H     
26   H       -21.7722   39.7525    2.4779  H     
27   H       -21.0195   39.7638    0.1734  H     
28   H       -19.7749   36.3777   -1.8147  H     
29   H       -18.3122   37.1911   -2.3834  H     
30   H       -17.7244   35.5067    2.5351  H     
31   H       -18.5827   33.2805   -2.5834  H     
32   H       -15.6126   36.2925   -2.7690  H     
33   H       -15.4586   35.9108   -5.1637  H     
34   H       -18.3380   32.9728   -4.9807  H     
@<TRIPOS>BOND
     1    1    2 2
     2    1    5 1
     3    2    3 1
     4    3    4 2
     5    4    6 1
     6    5    6 2
     7    5   10 1
     8    6    8 1
     9    7    8 1
    10    7    9 1
    11    9   10 2
    12    9   12 1
    13   10   14 1
    14   11   13 1
    15   11   14 1
    16   11   15 2
    17   12   13 2
    18   12   18 1
    19   13   16 1
    20   16   17 3
    21   18   19 2
    22   18   20 1
    23   19   22 1
    24   20   21 2
    25   21   23 1
    26   22   23 2
    27    1   24 1
    28    2   25 1
    29    3   26 1
    30    4   27 1
    31    7   28 1
    32    7   29 1
    33   14   30 1
    34   19   31 1
    35   20   32 1
    36   21   33 1
    37   22   34 1
@<TRIPOS>PROPERTY_DATA
  Total_Score	| 3.8191
  Crash		| -0.6550
  Polar		| 1.1574
  FragIndex	| 1
  FragRMSD	| 1.451

