@<TRIPOS>MOLECULE
BindingDB_26674
 37 39 0 0 0
SMALL
NO_CHARGES


@<TRIPOS>ATOM
1    C       -16.8502   34.5070    1.0206  C     
2    C       -18.4020   36.2246    0.4963  C     
3    C       -18.2303   35.9322   -0.8174  C     
4    C       -17.3134   34.9852   -1.2425  C     
5    C       -16.6384   34.2441   -0.3167  C     
6    O       -16.3728   33.8341    1.9270  O     
7    N       -17.6596   35.5040    1.3728  N     
8    C       -15.7456   33.3756   -0.6461  C     
9    N       -14.9487   32.6035   -0.9417  N     
10   C       -17.1290   34.8420   -2.6275  C     
11   C       -16.2938   35.7365   -3.3430  C     
12   C       -17.7697   33.7957   -3.3320  C     
13   C       -17.5750   33.6422   -4.7175  C     
14   C       -16.7337   34.5279   -5.4128  C     
15   C       -16.0938   35.5758   -4.7259  C     
16   C       -19.3519   37.1685    0.9685  C     
17   C       -20.2267   37.8507    0.0734  C     
18   C       -21.2358   38.7354    0.5208  C     
19   C       -21.3348   39.0074    1.8993  C     
20   C       -20.4542   38.3999    2.8042  C     
21   C       -19.5013   37.4653    2.3574  C     
22   O       -18.7925   36.8496    3.3378  O     
23   C       -22.2101   39.3480   -0.4102  C     
24   H       -18.8305   36.3483   -1.4922  H     
25   H       -17.7486   35.6889    2.3189  H     
26   H       -15.8154   36.5034   -2.8606  H     
27   H       -18.3807   33.1385   -2.8356  H     
28   H       -18.0417   32.8812   -5.2175  H     
29   H       -16.5892   34.4118   -6.4179  H     
30   H       -15.4860   36.2228   -5.2324  H     
31   H       -20.1398   37.7052   -0.9352  H     
32   H       -22.0518   39.6467    2.2528  H     
33   H       -20.5406   38.6124    3.8009  H     
34   H       -19.2512   35.9964    3.4916  H     
35   H       -22.1874   40.4356   -0.3194  H     
36   H       -23.2152   38.9985   -0.1612  H     
37   H       -22.0070   39.0873   -1.4514  H     
@<TRIPOS>BOND
     1    1    5 1
     2    1    6 2
     3    1    7 1
     4    2    3 2
     5    2    7 1
     6    2   16 1
     7    3    4 1
     8    4    5 2
     9    4   10 1
    10    5    8 1
    11    8    9 3
    12   10   11 2
    13   10   12 1
    14   11   15 1
    15   12   13 2
    16   13   14 1
    17   14   15 2
    18   16   17 1
    19   16   21 2
    20   17   18 2
    21   18   19 1
    22   18   23 1
    23   19   20 2
    24   20   21 1
    25   21   22 1
    26    3   24 1
    27    7   25 1
    28   11   26 1
    29   12   27 1
    30   13   28 1
    31   14   29 1
    32   15   30 1
    33   17   31 1
    34   19   32 1
    35   20   33 1
    36   22   34 1
    37   23   35 1
    38   23   36 1
    39   23   37 1
@<TRIPOS>PROPERTY_DATA
  Total_Score	| 4.2588
  Crash		| -0.9198
  Polar		| 1.1316
  FragIndex	| 1
  FragRMSD	| 0.302

