@<TRIPOS>MOLECULE
BindingDB_50212517
 42 46 0 0 0
SMALL
NO_CHARGES


@<TRIPOS>ATOM
1    C        21.9616   -4.3872    9.1445  C     
2    C        21.9108   -5.2049   10.2962  C     
3    C        20.6894   -5.4198   10.9695  C     
4    C        20.7889   -3.7674    8.6639  C     
5    C        19.5820   -3.9967    9.3498  C     
6    C        19.5217   -4.8093   10.4887  C     
7    C        18.1399   -4.9092   11.0089  C     
8    C        18.3032   -3.5512    9.1009  C     
9    C        17.4312   -4.0549   10.0338  C     
10   C        16.1772   -3.5291    9.7064  C     
11   N        16.3777   -2.7556    8.6112  N     
12   N        17.6273   -2.7723    8.2578  N     
13   C        14.9149   -3.6744   10.3590  C     
14   C        13.7866   -2.9404    9.9191  C     
15   C        12.5476   -3.0225   10.5846  C     
16   C        12.3860   -3.8527   11.7136  C     
17   C        13.5038   -4.6082   12.1481  C     
18   C        14.7447   -4.5193   11.4804  C     
19   C        11.1310   -3.9463   12.3850  C     
20   C        10.3989   -2.7940   12.7421  C     
21   C         9.1581   -2.9004   13.4008  C     
22   C         8.6246   -4.1591   13.7113  C     
23   C         9.3368   -5.3206   13.3501  C     
24   C        10.5768   -5.2133   12.6952  C     
25   O         7.4292   -4.2316   14.3457  O     
26   O        20.8368   -2.9763    7.5632  O     
27   H        22.8533   -4.2445    8.6623  H     
28   H        22.7639   -5.6594   10.6349  H     
29   H        20.6486   -6.0233   11.7963  H     
30   H        17.7754   -5.9384   10.9680  H     
31   H        18.0610   -4.4968   12.0167  H     
32   H        18.0235   -2.2922    7.5087  H     
33   H        13.8526   -2.3167    9.1039  H     
34   H        11.7595   -2.4782   10.2235  H     
35   H        13.4276   -5.2212   12.9671  H     
36   H        15.5111   -5.0840   11.8419  H     
37   H        10.7644   -1.8549   12.5419  H     
38   H         8.6388   -2.0500   13.6409  H     
39   H         8.9541   -6.2458   13.5464  H     
40   H        11.0700   -6.0723   12.4312  H     
41   H         7.2543   -5.1943   14.5060  H     
42   H        20.5684   -2.0855    7.8831  H     
@<TRIPOS>BOND
     1    1    2 2
     2    1    4 1
     3    2    3 1
     4    3    6 2
     5    4    5 2
     6    4   26 1
     7    5    6 1
     8    5    8 1
     9    6    7 1
    10    7    9 1
    11    8    9 2
    12    8   12 1
    13    9   10 1
    14   10   11 2
    15   10   13 1
    16   11   12 1
    17   13   14 2
    18   13   18 1
    19   14   15 1
    20   15   16 2
    21   16   17 1
    22   16   19 1
    23   17   18 2
    24   19   20 2
    25   19   24 1
    26   20   21 1
    27   21   22 2
    28   22   23 1
    29   22   25 1
    30   23   24 2
    31    1   27 1
    32    2   28 1
    33    3   29 1
    34    7   30 1
    35    7   31 1
    36   12   32 1
    37   14   33 1
    38   15   34 1
    39   17   35 1
    40   18   36 1
    41   20   37 1
    42   21   38 1
    43   23   39 1
    44   24   40 1
    45   25   41 1
    46   26   42 1
@<TRIPOS>PROPERTY_DATA
  Total_Score	| 9.5852
  Crash		| -0.7390
  Polar		| 3.6026
  FragIndex	| 1
  FragRMSD	| 0.929

