@<TRIPOS>MOLECULE
BindingDB_50221615
 47 51 0 0 0
SMALL
NO_CHARGES


@<TRIPOS>ATOM
1    C        21.7821   -4.1859    8.7063  C     
2    C        21.7622   -5.1233    9.7688  C     
3    C        20.5578   -5.4053   10.4527  C     
4    C        20.5990   -3.4951    8.3490  C     
5    C        19.4089   -3.7878    9.0526  C     
6    C        19.3816   -4.7271   10.0900  C     
7    C        18.0176   -4.9082   10.6249  C     
8    C        18.1190   -3.3091    8.9079  C     
9    C        17.2848   -3.9403    9.8010  C     
10   C        16.0127   -3.3933    9.6018  C     
11   N        16.1908   -2.4906    8.6049  N     
12   N        17.4207   -2.4235    8.1912  N     
13   C        14.7773   -3.6251   10.2880  C     
14   C        14.6282   -4.6176   11.2848  C     
15   C        13.4183   -4.7777   11.9897  C     
16   C        12.3066   -3.9397   11.7363  C     
17   C        12.4414   -2.9679   10.7181  C     
18   C        13.6444   -2.8200   10.0065  C     
19   O        22.9415   -4.0526    7.9801  O     
20   C        23.4501   -2.7134    7.8613  C     
21   O        22.8915   -5.8485   10.0427  O     
22   C        23.5631   -5.4482   11.2518  C     
23   C        11.0910   -4.0549   12.4781  C     
24   C        10.4088   -2.9014   12.9489  C     
25   C         9.2025   -3.0321   13.6666  C     
26   N         8.6881   -4.2648   13.9022  N     
27   C         9.2925   -5.3988   13.4601  C     
28   C        10.5069   -5.3187   12.7477  C     
29   H        20.5382   -6.1102   11.1882  H     
30   H        20.5993   -2.8264    7.5704  H     
31   H        17.6587   -5.9252   10.4470  H     
32   H        17.9699   -4.6480   11.6796  H     
33   H        15.4846   -1.9288    8.2496  H     
34   H        15.4080   -5.2363   11.5153  H     
35   H        13.3657   -5.5008   12.7133  H     
36   H        11.6549   -2.3604   10.4785  H     
37   H        13.6831   -2.0952    9.2856  H     
38   H        24.4344   -2.7574    7.3733  H     
39   H        23.5793   -2.2349    8.8409  H     
40   H        22.7721   -2.1209    7.2401  H     
41   H        24.4644   -6.0546   11.3538  H     
42   H        22.9360   -5.6194   12.1313  H     
43   H        23.8647   -4.3978   11.2139  H     
44   H        10.7908   -1.9646   12.7955  H     
45   H         8.7140   -2.2085   14.0178  H     
46   H         8.8581   -6.3035   13.6490  H     
47   H        10.9448   -6.1783   12.4176  H     
@<TRIPOS>BOND
     1    1    2 2
     2    1    4 1
     3    1   19 1
     4    2    3 1
     5    2   21 1
     6    3    6 2
     7    4    5 2
     8    5    6 1
     9    5    8 1
    10    6    7 1
    11    7    9 1
    12    8    9 1
    13    8   12 2
    14    9   10 2
    15   10   11 1
    16   10   13 1
    17   11   12 1
    18   13   14 2
    19   13   18 1
    20   14   15 1
    21   15   16 2
    22   16   17 1
    23   16   23 1
    24   17   18 2
    25   19   20 1
    26   21   22 1
    27   23   24 2
    28   23   28 1
    29   24   25 1
    30   25   26 2
    31   26   27 1
    32   27   28 2
    33    3   29 1
    34    4   30 1
    35    7   31 1
    36    7   32 1
    37   11   33 1
    38   14   34 1
    39   15   35 1
    40   17   36 1
    41   18   37 1
    42   20   38 1
    43   20   39 1
    44   20   40 1
    45   22   41 1
    46   22   42 1
    47   22   43 1
    48   24   44 1
    49   25   45 1
    50   27   46 1
    51   28   47 1
@<TRIPOS>PROPERTY_DATA
  Total_Score	| 7.2419
  Crash		| -0.9474
  Polar		| 1.2742
  FragIndex	| 1
  FragRMSD	| 1.211

