@<TRIPOS>MOLECULE
BindingDB_50212495
 45 49 0 0 0
SMALL
NO_CHARGES


@<TRIPOS>ATOM
1    C        21.9023   -4.2986    8.8739  C     
2    C        21.8582   -5.2890    9.8813  C     
3    C        20.6340   -5.6579   10.5096  C     
4    C        20.7230   -3.6483    8.4654  C     
5    C        19.5200   -3.9987    9.1058  C     
6    C        19.4574   -4.9729   10.1132  C     
7    C        18.0582   -5.0839   10.6212  C     
8    C        18.2526   -3.4844    8.9331  C     
9    C        17.3719   -4.0685    9.8074  C     
10   C        16.1334   -3.4493    9.6008  C     
11   N        16.3521   -2.5367    8.6198  N     
12   N        17.5949   -2.5676    8.2321  N     
13   C        14.8838   -3.6315   10.2695  C     
14   C        13.7475   -2.8735    9.8894  C     
15   C        12.5272   -2.9929   10.5751  C     
16   C        12.3868   -3.8751   11.6710  C     
17   C        13.5060   -4.6624   12.0316  C     
18   C        14.7261   -4.5417   11.3425  C     
19   C        11.1490   -3.9744   12.3740  C     
20   C        10.4209   -2.8142   12.7334  C     
21   C         9.1683   -2.9054   13.3656  C     
22   C         8.6209   -4.1642   13.6703  C     
23   C         9.3355   -5.3320   13.3233  C     
24   C        10.5861   -5.2383   12.6886  C     
25   O         7.4063   -4.2346   14.2696  O     
26   C        20.6766   -6.7293   11.5407  C     
27   O        19.4039   -7.1791   12.0015  O     
28   H        22.7928   -4.0607    8.4265  H     
29   H        22.7336   -5.7488   10.1481  H     
30   H        20.7437   -2.9294    7.7374  H     
31   H        17.6457   -6.0717   10.4265  H     
32   H        18.0095   -4.8252   11.6823  H     
33   H        18.0001   -1.9989    7.5593  H     
34   H        13.7936   -2.2179    9.1054  H     
35   H        11.7327   -2.4242   10.2620  H     
36   H        13.4524   -5.3070   12.8189  H     
37   H        15.5034   -5.1245   11.6503  H     
38   H        10.7967   -1.8785   12.5454  H     
39   H         8.6529   -2.0531   13.6055  H     
40   H         8.9412   -6.2581   13.5275  H     
41   H        11.0699   -6.1024   12.4342  H     
42   H         7.2646   -5.1804   14.4936  H     
43   H        21.1877   -7.6051   11.1420  H     
44   H        21.2570   -6.3727   12.3943  H     
45   H        19.5020   -7.2849   12.9738  H     
@<TRIPOS>BOND
     1    1    2 2
     2    1    4 1
     3    2    3 1
     4    3    6 2
     5    3   26 1
     6    4    5 2
     7    5    6 1
     8    5    8 1
     9    6    7 1
    10    7    9 1
    11    8    9 2
    12    8   12 1
    13    9   10 1
    14   10   11 2
    15   10   13 1
    16   11   12 1
    17   13   14 2
    18   13   18 1
    19   14   15 1
    20   15   16 2
    21   16   17 1
    22   16   19 1
    23   17   18 2
    24   19   20 2
    25   19   24 1
    26   20   21 1
    27   21   22 2
    28   22   23 1
    29   22   25 1
    30   23   24 2
    31   26   27 1
    32    1   28 1
    33    2   29 1
    34    4   30 1
    35    7   31 1
    36    7   32 1
    37   12   33 1
    38   14   34 1
    39   15   35 1
    40   17   36 1
    41   18   37 1
    42   20   38 1
    43   21   39 1
    44   23   40 1
    45   24   41 1
    46   25   42 1
    47   26   43 1
    48   26   44 1
    49   27   45 1
@<TRIPOS>PROPERTY_DATA
  Total_Score	| 9.1180
  Crash		| -1.4513
  Polar		| 3.9683
  FragIndex	| 1
  FragRMSD	| 0.322

