@<TRIPOS>MOLECULE
BindingDB_50212489
 45 49 0 0 0
SMALL
NO_CHARGES


@<TRIPOS>ATOM
1    C        21.8978   -4.4143    9.2385  C     
2    C        21.8465   -5.1984   10.4241  C     
3    C        20.5976   -5.4157   11.0579  C     
4    C        20.7295   -3.8426    8.7006  C     
5    C        19.5121   -4.0699    9.3512  C     
6    C        19.4351   -4.8521   10.5044  C     
7    C        18.0486   -4.9453   11.0091  C     
8    C        18.2409   -3.6137    9.0846  C     
9    C        17.3548   -4.1011   10.0178  C     
10   C        16.1068   -3.5694    9.7030  C     
11   N        16.3163   -2.7833    8.6191  N     
12   N        17.5652   -2.8177    8.2584  N     
13   C        14.8583   -3.7162   10.3739  C     
14   C        14.6812   -4.5963   11.4714  C     
15   C        13.4488   -4.6978   12.1405  C     
16   C        12.3386   -3.9161   11.7476  C     
17   C        12.5015   -3.0536   10.6442  C     
18   C        13.7320   -2.9519    9.9638  C     
19   C        11.0837   -4.0050   12.4237  C     
20   C        10.5131   -5.2669   12.7275  C     
21   C         9.2548   -5.3649   13.3485  C     
22   C         8.5438   -4.2009   13.7021  C     
23   C         9.0986   -2.9356   13.4108  C     
24   C        10.3551   -2.8417   12.7846  C     
25   O         7.3399   -4.2621   14.3285  O     
26   C        23.0791   -5.7769   11.0229  C     
27   O        23.4094   -5.0276   12.1933  O     
28   H        22.7883   -4.2551    8.7718  H     
29   H        20.5323   -5.9809   11.9075  H     
30   H        20.7690   -3.2685    7.8510  H     
31   H        17.6837   -5.9731   10.9662  H     
32   H        17.9656   -4.5333   12.0204  H     
33   H        17.9457   -2.3414    7.5115  H     
34   H        15.4366   -5.1944   11.7815  H     
35   H        13.3726   -5.3382   12.9353  H     
36   H        11.7214   -2.4760   10.3126  H     
37   H        13.7943   -2.2988    9.1798  H     
38   H        10.9947   -6.1302   12.4750  H     
39   H         8.8459   -6.2816   13.5401  H     
40   H         8.5826   -2.0852   13.6550  H     
41   H        10.7406   -1.9106   12.6064  H     
42   H         7.1856   -5.2107   14.5455  H     
43   H        22.9057   -6.8222   11.3046  H     
44   H        23.9166   -5.7655   10.3139  H     
45   H        24.1139   -5.5204   12.6661  H     
@<TRIPOS>BOND
     1    1    2 2
     2    1    4 1
     3    2    3 1
     4    2   26 1
     5    3    6 2
     6    4    5 2
     7    5    6 1
     8    5    8 1
     9    6    7 1
    10    7    9 1
    11    8    9 2
    12    8   12 1
    13    9   10 1
    14   10   11 2
    15   10   13 1
    16   11   12 1
    17   13   14 2
    18   13   18 1
    19   14   15 1
    20   15   16 2
    21   16   17 1
    22   16   19 1
    23   17   18 2
    24   19   20 2
    25   19   24 1
    26   20   21 1
    27   21   22 2
    28   22   23 1
    29   22   25 1
    30   23   24 2
    31   26   27 1
    32    1   28 1
    33    3   29 1
    34    4   30 1
    35    7   31 1
    36    7   32 1
    37   12   33 1
    38   14   34 1
    39   15   35 1
    40   17   36 1
    41   18   37 1
    42   20   38 1
    43   21   39 1
    44   23   40 1
    45   24   41 1
    46   25   42 1
    47   26   43 1
    48   26   44 1
    49   27   45 1
@<TRIPOS>PROPERTY_DATA
  Total_Score	| 11.3052
  Crash		| -0.7602
  Polar		| 5.2230
  FragIndex	| 1
  FragRMSD	| 1.048

