@<TRIPOS>MOLECULE
BindingDB_50214559
 46 50 0 0 0
SMALL
NO_CHARGES


@<TRIPOS>ATOM
1    C        21.9127   -4.5863    9.2103  C     
2    C        21.8093   -5.5301   10.2629  C     
3    C        20.5589   -5.7644   10.8813  C     
4    C        20.7767   -3.8647    8.7787  C     
5    C        19.5430   -4.1133    9.4055  C     
6    C        19.4270   -5.0415   10.4490  C     
7    C        18.0348   -5.1338   10.9341  C     
8    C        18.2859   -3.5874    9.1800  C     
9    C        17.3838   -4.1551   10.0485  C     
10   C        16.1502   -3.5676    9.7562  C     
11   N        16.4102   -2.7115    8.7388  N     
12   N        17.6616   -2.6970    8.3954  N     
13   C        14.8776   -3.7284   10.3776  C     
14   C        13.7567   -2.9762    9.9420  C     
15   C        12.5169   -3.0674   10.6016  C     
16   C        12.3464   -3.9167   11.7271  C     
17   C        13.4599   -4.6736   12.1562  C     
18   C        14.6939   -4.5915   11.4867  C     
19   C        11.0951   -4.0030   12.4019  C     
20   C        10.5194   -5.2644   12.6998  C     
21   C         9.2755   -5.3561   13.3528  C     
22   C         8.5781   -4.1895   13.7243  C     
23   C         9.1383   -2.9313   13.4282  C     
24   C        10.3820   -2.8375   12.7749  C     
25   O         7.3752   -4.2559   14.3581  O     
26   O        23.1028   -4.3854    8.5976  O     
27   O        22.9063   -6.2725   10.6258  O     
28   C        23.6654   -5.7076   11.7120  C     
29   H        20.4647   -6.4692   11.6097  H     
30   H        20.8453   -3.1927    8.0122  H     
31   H        17.6282   -6.1363   10.7845  H     
32   H        17.9623   -4.8315   11.9804  H     
33   H        15.7401   -2.1485    8.3222  H     
34   H        13.8290   -2.3432    9.1448  H     
35   H        11.7275   -2.5125   10.2482  H     
36   H        13.3888   -5.2766   12.9761  H     
37   H        15.4647   -5.1633   11.8348  H     
38   H        10.9921   -6.1296   12.4188  H     
39   H         8.8785   -6.2786   13.5519  H     
40   H         8.6407   -2.0737   13.6819  H     
41   H        10.7716   -1.9102   12.5870  H     
42   H         7.1921   -5.2062   14.5224  H     
43   H        23.3307   -3.4411    8.7605  H     
44   H        24.0390   -4.7084   11.4610  H     
45   H        24.5208   -6.3588   11.8952  H     
46   H        23.0625   -5.6617   12.6243  H     
@<TRIPOS>BOND
     1    1    2 2
     2    1    4 1
     3    1   26 1
     4    2    3 1
     5    2   27 1
     6    3    6 2
     7    4    5 2
     8    5    6 1
     9    5    8 1
    10    6    7 1
    11    7    9 1
    12    8    9 1
    13    8   12 2
    14    9   10 2
    15   10   11 1
    16   10   13 1
    17   11   12 1
    18   13   14 2
    19   13   18 1
    20   14   15 1
    21   15   16 2
    22   16   17 1
    23   16   19 1
    24   17   18 2
    25   19   20 2
    26   19   24 1
    27   20   21 1
    28   21   22 2
    29   22   23 1
    30   22   25 1
    31   23   24 2
    32   27   28 1
    33    3   29 1
    34    4   30 1
    35    7   31 1
    36    7   32 1
    37   11   33 1
    38   14   34 1
    39   15   35 1
    40   17   36 1
    41   18   37 1
    42   20   38 1
    43   21   39 1
    44   23   40 1
    45   24   41 1
    46   25   42 1
    47   26   43 1
    48   28   44 1
    49   28   45 1
    50   28   46 1
@<TRIPOS>PROPERTY_DATA
  Total_Score	| 9.6456
  Crash		| -0.4415
  Polar		| 3.1837
  FragIndex	| 1
  FragRMSD	| 0.594

