@<TRIPOS>MOLECULE
BindingDB_91827
 44 48 0 0 0
SMALL
NO_CHARGES


@<TRIPOS>ATOM
1    O        23.0750   -2.9998    6.8300  O     
2    C        23.1639   -3.5421    8.1561  C     
3    C        21.8723   -3.8517    8.8182  C     
4    C        20.6409   -3.3001    8.3826  C     
5    C        19.4609   -3.6389    9.0682  C     
6    C        19.4713   -4.5159   10.1589  C     
7    C        18.1149   -4.7119   10.7184  C     
8    C        17.3449   -3.8421    9.8131  C     
9    C        18.1565   -3.2391    8.8836  C     
10   N        17.4246   -2.4134    8.1300  N     
11   N        16.1919   -2.5058    8.5312  N     
12   C        16.0594   -3.3561    9.5760  C     
13   C        14.8373   -3.5796   10.2687  C     
14   C        13.6740   -2.8716    9.8798  C     
15   C        12.4621   -3.0069   10.5789  C     
16   C        12.3591   -3.8623   11.6980  C     
17   C        11.1208   -3.9816   12.4045  C     
18   C        10.5812   -5.2524   12.7190  C     
19   C         9.3459   -5.3719   13.3852  C     
20   C         8.6187   -4.2184   13.7446  C     
21   O         7.4130   -4.2969   14.3675  O     
22   C         9.1446   -2.9474   13.4485  C     
23   C        10.3817   -2.8304   12.7841  C     
24   C        13.5114   -4.5910   12.0767  C     
25   C        14.7266   -4.4547   11.3740  C     
26   C        20.6844   -5.0667   10.6068  C     
27   C        21.8778   -4.7255    9.9388  C     
28   H        23.2541   -2.0233    6.9041  H     
29   H        23.7265   -4.4792    8.0525  H     
30   H        23.7426   -2.8535    8.7876  H     
31   H        20.6019   -2.6505    7.5920  H     
32   H        18.0499   -4.3571   11.7482  H     
33   H        17.7974   -5.7585   10.6408  H     
34   H        13.6976   -2.2290    9.0820  H     
35   H        11.6523   -2.4818   10.2475  H     
36   H        11.0699   -6.1066   12.4385  H     
37   H         8.9681   -6.2993   13.5934  H     
38   H         7.2561   -5.2491   14.5638  H     
39   H         8.6261   -2.1059   13.7038  H     
40   H        10.7402   -1.8931   12.5832  H     
41   H        13.4785   -5.2225   12.8858  H     
42   H        15.5294   -4.9959   11.6950  H     
43   H        20.7080   -5.6940   11.4165  H     
44   H        22.7592   -5.1144   10.2800  H     
@<TRIPOS>BOND
     1    1    2 1
     2    2    3 1
     3    3    4 ar
     4    4    5 ar
     5    5    6 ar
     6    6    7 1
     7    7    8 1
     8    8    9 ar
     9    5    9 1
    10    9   10 ar
    11   10   11 ar
    12   11   12 ar
    13    8   12 ar
    14   12   13 1
    15   13   14 ar
    16   14   15 ar
    17   15   16 ar
    18   16   17 1
    19   17   18 ar
    20   18   19 ar
    21   19   20 ar
    22   20   21 1
    23   20   22 ar
    24   22   23 ar
    25   17   23 ar
    26   16   24 ar
    27   24   25 ar
    28   13   25 ar
    29    6   26 ar
    30   26   27 ar
    31    3   27 ar
    32    1   28 1
    33    2   29 1
    34    2   30 1
    35    4   31 1
    36    7   32 1
    37    7   33 1
    38   14   34 1
    39   15   35 1
    40   18   36 1
    41   19   37 1
    42   21   38 1
    43   22   39 1
    44   23   40 1
    45   24   41 1
    46   25   42 1
    47   26   43 1
    48   27   44 1
@<TRIPOS>PROPERTY_DATA
  Total_Score	| 10.4022
  Crash		| -0.5197
  Polar		| 4.2690
  FragIndex	| 1
  FragRMSD	| 0.098

