@<TRIPOS>MOLECULE
BindingDB_91832
 40 44 0 0 0
SMALL
NO_CHARGES


@<TRIPOS>ATOM
1    O        23.0614   -5.2340   10.0221  O     
2    C        21.8754   -4.6821    9.6635  C     
3    C        20.7164   -5.0597   10.3709  C     
4    C        19.4855   -4.4757   10.0267  C     
5    C        18.1663   -4.7149   10.6490  C     
6    C        17.3437   -3.8127    9.8339  C     
7    C        18.0928   -3.1498    8.8935  C     
8    N        17.3002   -2.3265    8.2004  N     
9    N        16.0940   -2.4640    8.6669  N     
10   C        16.0344   -3.3635    9.6818  C     
11   C        14.8520   -3.7077   10.4124  C     
12   C        14.8579   -4.6195   11.4950  C     
13   C        13.6863   -4.9180   12.2177  C     
14   C        12.4246   -4.3594   11.8867  C     
15   C        11.2413   -4.7075   12.6056  C     
16   C        10.1770   -3.8624   12.7188  C     
17   C         9.0376   -4.2350   13.4069  C     
18   N         8.9936   -5.4239   14.0099  N     
19   C        10.0402   -6.2600   13.9782  C     
20   C        11.1333   -5.9387   13.2523  C     
21   O         8.0445   -3.5243   13.4650  O     
22   C        12.4271   -3.4465   10.7957  C     
23   C        13.6059   -3.1236   10.0873  C     
24   C        19.4111   -3.5422    8.9868  C     
25   C        20.5488   -3.1696    8.2548  C     
26   C        21.7881   -3.7443    8.6052  C     
27   H        23.7549   -4.6222    9.7089  H     
28   H        20.7607   -5.7459   11.1282  H     
29   H        17.8555   -5.7566   10.5324  H     
30   H        18.1656   -4.4122   11.6999  H     
31   H        15.7277   -5.0715   11.7865  H     
32   H        13.7832   -5.5420   13.0173  H     
33   H        10.2090   -2.9443   12.3374  H     
34   H         8.1808   -5.7098   14.4532  H     
35   H         9.9888   -7.1213   14.4719  H     
36   H        11.8366   -6.6348   13.1630  H     
37   H        11.5567   -3.0071   10.4849  H     
38   H        13.5387   -2.4504    9.3190  H     
39   H        20.4766   -2.4968    7.4874  H     
40   H        22.6261   -3.4807    8.0861  H     
@<TRIPOS>BOND
     1    1    2 1
     2    2    3 ar
     3    3    4 ar
     4    4    5 1
     5    5    6 1
     6    6    7 ar
     7    7    8 ar
     8    8    9 ar
     9    9   10 ar
    10    6   10 ar
    11   10   11 1
    12   11   12 ar
    13   12   13 ar
    14   13   14 ar
    15   14   15 1
    16   15   16 2
    17   16   17 1
    18   17   18 1
    19   18   19 1
    20   19   20 2
    21   15   20 1
    22   17   21 2
    23   14   22 ar
    24   22   23 ar
    25   11   23 ar
    26    4   24 ar
    27    7   24 1
    28   24   25 ar
    29   25   26 ar
    30    2   26 ar
    31    1   27 1
    32    3   28 1
    33    5   29 1
    34    5   30 1
    35   12   31 1
    36   13   32 1
    37   16   33 1
    38   18   34 1
    39   19   35 1
    40   20   36 1
    41   22   37 1
    42   23   38 1
    43   25   39 1
    44   26   40 1
@<TRIPOS>PROPERTY_DATA
  Total_Score	| 6.7174
  Crash		| -1.0528
  Polar		| 2.8087
  FragIndex	| 1
  FragRMSD	| 0.513

