@<TRIPOS>MOLECULE
BindingDB_50221590
 50 54 0 0 0
SMALL
NO_CHARGES


@<TRIPOS>ATOM
1    C        22.0050   -3.8674    8.8758  C     
2    C        22.0691   -4.8458    9.9325  C     
3    C        20.8471   -5.2290   10.5461  C     
4    C        20.7587   -3.3592    8.4537  C     
5    C        19.5659   -3.7889    9.0753  C     
6    C        19.6133   -4.7205   10.1136  C     
7    C        18.2368   -4.9699   10.6003  C     
8    C        18.2647   -3.3843    8.8916  C     
9    C        17.4631   -4.0167    9.7996  C     
10   C        16.1904   -3.4964    9.5878  C     
11   N        16.3426   -2.5862    8.5939  N     
12   N        17.5590   -2.5044    8.1654  N     
13   C        14.9515   -3.6820   10.2770  C     
14   C        13.7825   -2.9888    9.8874  C     
15   C        12.5829   -3.0803   10.6368  C     
16   C        12.5080   -3.9148   11.7670  C     
17   C        13.6599   -4.6487   12.1332  C     
18   C        14.8504   -4.5355   11.3833  C     
19   O        22.9812   -3.3380    8.0718  O     
20   C        24.2354   -2.8489    8.4847  C     
21   O        23.1407   -5.4683   10.6010  O     
22   C        24.3039   -6.2579   10.1626  C     
23   C        11.2581   -4.0379   12.5015  C     
24   C        10.7320   -5.3094   12.7930  C     
25   C         9.4662   -5.4631   13.3806  C     
26   C         8.6987   -4.3331   13.7295  C     
27   C         9.2240   -3.0506   13.4635  C     
28   C        10.4987   -2.8970   12.8880  C     
29   N         7.4878   -4.4808   14.2791  N     
30   H        20.8346   -5.8936   11.3306  H     
31   H        20.6682   -2.7028    7.6782  H     
32   H        17.9444   -5.9983   10.3859  H     
33   H        18.1388   -4.7425   11.6568  H     
34   H        15.6151   -2.0452    8.2461  H     
35   H        13.7748   -2.3481    9.0957  H     
36   H        11.7723   -2.5387   10.3337  H     
37   H        13.6502   -5.2482   12.9623  H     
38   H        15.6691   -5.0465   11.7170  H     
39   H        24.1569   -1.9340    9.0752  H     
40   H        24.8487   -2.6904    7.5964  H     
41   H        24.6114   -3.6889    9.0890  H     
42   H        24.3158   -6.7236    9.1673  H     
43   H        24.2713   -7.1088   10.8481  H     
44   H        25.2657   -5.7559   10.3730  H     
45   H        11.2633   -6.1551   12.5589  H     
46   H         9.1030   -6.3931   13.5743  H     
47   H         8.6972   -2.2118   13.7313  H     
48   H        10.8684   -1.9418   12.7541  H     
49   H         6.9779   -3.6985   14.5346  H     
50   H         7.1354   -5.3697   14.4377  H     
@<TRIPOS>BOND
     1    1    2 2
     2    1    4 1
     3    1   19 1
     4    2    3 1
     5    2   21 1
     6    3    6 2
     7    4    5 2
     8    5    6 1
     9    5    8 1
    10    6    7 1
    11    7    9 1
    12    8    9 1
    13    8   12 2
    14    9   10 2
    15   10   11 1
    16   10   13 1
    17   11   12 1
    18   13   14 2
    19   13   18 1
    20   14   15 1
    21   15   16 2
    22   16   17 1
    23   16   23 1
    24   17   18 2
    25   19   20 1
    26   21   22 1
    27   23   24 2
    28   23   28 1
    29   24   25 1
    30   25   26 2
    31   26   27 1
    32   26   29 1
    33   27   28 2
    34    3   30 1
    35    4   31 1
    36    7   32 1
    37    7   33 1
    38   11   34 1
    39   14   35 1
    40   15   36 1
    41   17   37 1
    42   18   38 1
    43   20   39 1
    44   20   40 1
    45   20   41 1
    46   22   42 1
    47   22   43 1
    48   22   44 1
    49   24   45 1
    50   25   46 1
    51   27   47 1
    52   28   48 1
    53   29   49 1
    54   29   50 1
@<TRIPOS>PROPERTY_DATA
  Total_Score	| 7.5979
  Crash		| -1.8095
  Polar		| 2.2062
  FragIndex	| 1
  FragRMSD	| 1.329

