@<TRIPOS>MOLECULE
BindingDB_50214599
 46 50 0 0 0
SMALL
NO_CHARGES


@<TRIPOS>ATOM
1    C        21.8722   -4.3679    9.0709  C     
2    C        21.8260   -5.2079   10.2099  C     
3    C        20.6073   -5.4060   10.8977  C     
4    C        20.6967   -3.7265    8.6097  C     
5    C        19.4947   -3.9306    9.3218  C     
6    C        19.4373   -4.7732   10.4394  C     
7    C        18.0620   -4.8710   10.9745  C     
8    C        18.2146   -3.4535    9.1031  C     
9    C        17.3539   -3.9893   10.0318  C     
10   C        16.0944   -3.4604    9.7529  C     
11   N        16.2995   -2.6574    8.6837  N     
12   N        17.5380   -2.6304    8.2957  N     
13   C        14.8416   -3.6311   10.4194  C     
14   C        14.6798   -4.4994   11.5273  C     
15   C        13.4418   -4.6215   12.1910  C     
16   C        12.3102   -3.8784   11.7797  C     
17   C        12.4648   -3.0238   10.6653  C     
18   C        13.6991   -2.9037    9.9990  C     
19   C        11.0540   -3.9873   12.4448  C     
20   C        10.3136   -2.8313   12.7994  C     
21   C         9.0540   -2.9383   13.4187  C     
22   C         8.5089   -4.2028   13.7002  C     
23   C         9.2317   -5.3621   13.3573  C     
24   C        10.4929   -5.2531   12.7421  C     
25   O         7.2912   -4.2743   14.2982  O     
26   O        23.0451   -4.3015    8.3547  O     
27   O        22.9579   -5.8326   10.6222  O     
28   C        23.4677   -2.9739    7.9694  C     
29   H        20.5633   -6.0254   11.7088  H     
30   H        20.7274   -3.1353    7.7704  H     
31   H        17.7011   -5.8988   10.9175  H     
32   H        18.0143   -4.4938   11.9987  H     
33   H        15.6061   -2.1362    8.2452  H     
34   H        15.4690   -5.0485   11.8765  H     
35   H        13.3807   -5.2503   12.9974  H     
36   H        11.6690   -2.4821   10.3143  H     
37   H        13.7488   -2.2593    9.2044  H     
38   H        10.6833   -1.8953   12.6165  H     
39   H         8.5342   -2.0918   13.6686  H     
40   H         8.8431   -6.2862   13.5501  H     
41   H        10.9890   -6.1094   12.4890  H     
42   H         7.1564   -5.2201   14.5466  H     
43   H        22.8385   -6.0131   11.5843  H     
44   H        22.7602   -2.5281    7.2539  H     
45   H        24.4479   -3.0677    7.4891  H     
46   H        23.5751   -2.3108    8.8396  H     
@<TRIPOS>BOND
     1    1    2 2
     2    1    4 1
     3    1   26 1
     4    2    3 1
     5    2   27 1
     6    3    6 2
     7    4    5 2
     8    5    6 1
     9    5    8 1
    10    6    7 1
    11    7    9 1
    12    8    9 1
    13    8   12 2
    14    9   10 2
    15   10   11 1
    16   10   13 1
    17   11   12 1
    18   13   14 2
    19   13   18 1
    20   14   15 1
    21   15   16 2
    22   16   17 1
    23   16   19 1
    24   17   18 2
    25   19   20 2
    26   19   24 1
    27   20   21 1
    28   21   22 2
    29   22   23 1
    30   22   25 1
    31   23   24 2
    32   26   28 1
    33    3   29 1
    34    4   30 1
    35    7   31 1
    36    7   32 1
    37   11   33 1
    38   14   34 1
    39   15   35 1
    40   17   36 1
    41   18   37 1
    42   20   38 1
    43   21   39 1
    44   23   40 1
    45   24   41 1
    46   25   42 1
    47   27   43 1
    48   28   44 1
    49   28   45 1
    50   28   46 1
@<TRIPOS>PROPERTY_DATA
  Total_Score	| 9.5102
  Crash		| -0.7594
  Polar		| 3.2689
  FragIndex	| 1
  FragRMSD	| 0.639

