@<TRIPOS>MOLECULE
BindingDB_50212494
 41 45 0 0 0
SMALL
NO_CHARGES


@<TRIPOS>ATOM
1    C        21.9883   -4.1802    9.1440  C     
2    C        21.9396   -5.0587   10.2436  C     
3    C        20.7106   -5.3510   10.8793  C     
4    C        20.8064   -3.5845    8.6475  C     
5    C        19.5925   -3.8978    9.2760  C     
6    C        19.5273   -4.7553   10.3790  C     
7    C        18.1353   -4.9225   10.8537  C     
8    C        18.2984   -3.4957    8.9972  C     
9    C        17.4282   -4.0687    9.8874  C     
10   C        16.1658   -3.5440    9.5686  C     
11   N        16.3616   -2.7091    8.5207  N     
12   N        17.6123   -2.6994    8.1801  N     
13   C        14.9246   -3.7174   10.2256  C     
14   C        13.7958   -2.9383    9.8582  C     
15   C        12.5921   -3.0156   10.5838  C     
16   C        12.4138   -3.8807   11.7101  C     
17   C        13.5397   -4.7011   11.9998  C     
18   C        14.7416   -4.6224   11.2899  C     
19   C        11.1606   -3.9828   12.4495  C     
20   C        10.3701   -2.8397   12.8016  C     
21   C         9.1104   -2.9408   13.4116  C     
22   C         8.5407   -4.2018   13.6753  C     
23   C         9.2884   -5.3517   13.3517  C     
24   C        10.5920   -5.2468   12.8292  C     
25   O         7.3276   -4.2681   14.2747  O     
26   H        22.8844   -3.9854    8.6997  H     
27   H        22.8006   -5.4964   10.5828  H     
28   H        20.6842   -6.0004   11.6713  H     
29   H        20.8374   -2.9558    7.8536  H     
30   H        17.8167   -5.9657   10.7818  H     
31   H        18.0193   -4.5426   11.8759  H     
32   H        17.9990   -2.1734    7.4802  H     
33   H        13.8477   -2.2829    9.0649  H     
34   H        11.8370   -2.4174   10.2483  H     
35   H        13.5335   -5.3995   12.7306  H     
36   H        15.4976   -5.2389   11.5780  H     
37   H        10.6922   -1.8867   12.6536  H     
38   H         8.5948   -2.1045   13.6790  H     
39   H         8.9029   -6.2830   13.5325  H     
40   H        11.1196   -6.1215   12.7684  H     
41   H         7.1935   -5.2091   14.5157  H     
@<TRIPOS>BOND
     1    1    2 2
     2    1    4 1
     3    2    3 1
     4    3    6 2
     5    4    5 2
     6    5    6 1
     7    5    8 1
     8    6    7 1
     9    7    9 1
    10    8    9 2
    11    8   12 1
    12    9   10 1
    13   10   11 2
    14   10   13 1
    15   11   12 1
    16   13   14 2
    17   13   18 1
    18   14   15 1
    19   15   16 2
    20   16   17 1
    21   16   19 1
    22   17   18 2
    23   19   20 2
    24   19   24 1
    25   20   21 1
    26   21   22 2
    27   22   23 1
    28   22   25 1
    29   23   24 2
    30    1   26 1
    31    2   27 1
    32    3   28 1
    33    4   29 1
    34    7   30 1
    35    7   31 1
    36   12   32 1
    37   14   33 1
    38   15   34 1
    39   17   35 1
    40   18   36 1
    41   20   37 1
    42   21   38 1
    43   23   39 1
    44   24   40 1
    45   25   41 1
@<TRIPOS>PROPERTY_DATA
  Total_Score	| 8.8983
  Crash		| -0.7483
  Polar		| 2.7062
  FragIndex	| 1
  FragRMSD	| 0.272

