@<TRIPOS>MOLECULE
BindingDB_91963
 44 48 0 0 0
SMALL
NO_CHARGES


@<TRIPOS>ATOM
1    O         7.1370   -4.4818   14.9432  O     
2    C         7.3585   -4.7079   13.5548  C     
3    C         8.7733   -4.4143   13.2205  C     
4    C         9.2011   -3.0852   13.0235  C     
5    C        10.4899   -2.8250   12.5205  C     
6    C        11.3740   -3.8855   12.2116  C     
7    C        12.6240   -3.6563   11.5725  C     
8    C        12.7151   -2.8756   10.3992  C     
9    C        13.9396   -2.7249    9.7226  C     
10   C        15.1263   -3.3297   10.2067  C     
11   C        16.3666   -3.1310    9.5281  C     
12   C        17.6192   -3.7037    9.7670  C     
13   C        18.3030   -4.6594   10.6484  C     
14   C        19.6580   -4.6097   10.0646  C     
15   C        19.7286   -3.7118    8.9915  C     
16   C        20.9216   -3.5256    8.2791  C     
17   C        22.0545   -4.2809    8.6553  C     
18   C        21.9880   -5.1982    9.7310  C     
19   O        23.0622   -5.9533   10.0880  O     
20   C        20.7848   -5.3539   10.4506  C     
21   C        18.4682   -3.1664    8.8282  C     
22   N        17.7889   -2.3038    8.0668  N     
23   N        16.5566   -2.2892    8.4838  N     
24   C        15.0225   -4.1168   11.3808  C     
25   C        13.7988   -4.2768   12.0498  C     
26   C        10.9662   -5.2087   12.5019  C     
27   C         9.6887   -5.4663   13.0276  C     
28   H         6.7896   -5.3396   15.2636  H     
29   H         6.6994   -4.0662   12.9622  H     
30   H         7.0823   -5.7441   13.3175  H     
31   H         8.5620   -2.3062   13.2068  H     
32   H        10.7545   -1.8553   12.3430  H     
33   H        11.8786   -2.4397   10.0038  H     
34   H        13.9559   -2.1533    8.8747  H     
35   H        17.8700   -5.6541   10.5739  H     
36   H        18.3041   -4.3185   11.6802  H     
37   H        20.9641   -2.8770    7.4886  H     
38   H        22.9255   -4.1764    8.1261  H     
39   H        23.6002   -6.0717    9.2788  H     
40   H        20.7174   -6.0124   11.2276  H     
41   H        15.8397   -4.5770   11.7795  H     
42   H        13.7808   -4.8388   12.9080  H     
43   H        11.5787   -6.0030   12.3019  H     
44   H         9.4087   -6.4349   13.2073  H     
@<TRIPOS>BOND
     1    1    2 1
     2    2    3 1
     3    3    4 ar
     4    4    5 ar
     5    5    6 ar
     6    6    7 1
     7    7    8 ar
     8    8    9 ar
     9    9   10 ar
    10   10   11 1
    11   11   12 ar
    12   12   13 1
    13   13   14 1
    14   14   15 ar
    15   15   16 ar
    16   16   17 ar
    17   17   18 ar
    18   18   19 1
    19   18   20 ar
    20   14   20 ar
    21   12   21 ar
    22   15   21 1
    23   21   22 ar
    24   22   23 ar
    25   11   23 ar
    26   10   24 ar
    27   24   25 ar
    28    7   25 ar
    29    6   26 ar
    30   26   27 ar
    31    3   27 ar
    32    1   28 1
    33    2   29 1
    34    2   30 1
    35    4   31 1
    36    5   32 1
    37    8   33 1
    38    9   34 1
    39   13   35 1
    40   13   36 1
    41   16   37 1
    42   17   38 1
    43   19   39 1
    44   20   40 1
    45   24   41 1
    46   25   42 1
    47   26   43 1
    48   27   44 1
@<TRIPOS>PROPERTY_DATA
  Total_Score	| 6.5777
  Crash		| -2.3748
  Polar		| 2.2210
  FragIndex	| 1
  FragRMSD	| 0.381

