@<TRIPOS>MOLECULE
BindingDB_50214577
 49 53 0 0 0
SMALL
NO_CHARGES


@<TRIPOS>ATOM
1    C        21.2974   -4.2444    8.7982  C     
2    C        21.2798   -5.1933    9.8552  C     
3    C        20.0812   -5.4445   10.5676  C     
4    C        20.1105   -3.5333    8.4783  C     
5    C        18.9462   -3.7892    9.2084  C     
6    C        18.9179   -4.7375   10.2360  C     
7    C        17.5632   -4.8616   10.8169  C     
8    C        17.6752   -3.2476    9.1107  C     
9    C        16.8438   -3.8531   10.0212  C     
10   C        15.5984   -3.2511    9.8765  C     
11   N        15.7771   -2.3341    8.8964  N     
12   N        16.9922   -2.3141    8.4384  N     
13   C        14.3832   -3.4525   10.5933  C     
14   C        13.2309   -2.6978   10.2577  C     
15   C        12.0256   -2.8602   10.9604  C     
16   C        11.9144   -3.7812   12.0240  C     
17   C        13.0615   -4.5363   12.3605  C     
18   C        14.2690   -4.3761   11.6574  C     
19   C        10.6727   -3.9532   12.7020  C     
20   C        10.2061   -5.2524   13.0313  C     
21   C         8.9667   -5.4396   13.6634  C     
22   C         8.1689   -4.3268   13.9910  C     
23   C         8.6116   -3.0307   13.6683  C     
24   C         9.8546   -2.8486   13.0324  C     
25   O         6.9766   -4.4584   14.6155  O     
26   O        22.4318   -4.1246    8.0374  O     
27   O        22.3973   -5.9517   10.1004  O     
28   C        23.1449   -5.5718   11.2671  C     
29   C        22.7990   -2.7970    7.6170  C     
30   H        20.0517   -6.1435   11.3096  H     
31   H        20.0907   -2.8570    7.7063  H     
32   H        17.1561   -5.8614   10.6473  H     
33   H        17.5669   -4.6086   11.8814  H     
34   H        15.0812   -1.7314    8.5864  H     
35   H        13.2494   -2.0180    9.4946  H     
36   H        11.2167   -2.3060   10.6708  H     
37   H        13.0242   -5.2045   13.1330  H     
38   H        15.0648   -4.9420   11.9464  H     
39   H        10.7624   -6.0776   12.7896  H     
40   H         8.6500   -6.3919   13.8801  H     
41   H         8.0331   -2.2232   13.9023  H     
42   H        10.1573   -1.8909   12.8260  H     
43   H         6.9493   -5.3712   14.9720  H     
44   H        23.4501   -4.5241   11.2168  H     
45   H        24.0409   -6.1859   11.3196  H     
46   H        22.5713   -5.7372   12.1864  H     
47   H        22.1657   -2.4469    6.8000  H     
48   H        23.8340   -2.8231    7.2775  H     
49   H        22.7372   -2.0894    8.4470  H     
@<TRIPOS>BOND
     1    1    2 2
     2    1    4 1
     3    1   26 1
     4    2    3 1
     5    2   27 1
     6    3    6 2
     7    4    5 2
     8    5    6 1
     9    5    8 1
    10    6    7 1
    11    7    9 1
    12    8    9 1
    13    8   12 2
    14    9   10 2
    15   10   11 1
    16   10   13 1
    17   11   12 1
    18   13   14 2
    19   13   18 1
    20   14   15 1
    21   15   16 2
    22   16   17 1
    23   16   19 1
    24   17   18 2
    25   19   20 2
    26   19   24 1
    27   20   21 1
    28   21   22 2
    29   22   23 1
    30   22   25 1
    31   23   24 2
    32   26   29 1
    33   27   28 1
    34    3   30 1
    35    4   31 1
    36    7   32 1
    37    7   33 1
    38   11   34 1
    39   14   35 1
    40   15   36 1
    41   17   37 1
    42   18   38 1
    43   20   39 1
    44   21   40 1
    45   23   41 1
    46   24   42 1
    47   25   43 1
    48   28   44 1
    49   28   45 1
    50   28   46 1
    51   29   47 1
    52   29   48 1
    53   29   49 1
@<TRIPOS>PROPERTY_DATA
  Total_Score	| 10.1833
  Crash		| -1.2855
  Polar		| 3.9143
  FragIndex	| 1
  FragRMSD	| 1.074

