@<TRIPOS>MOLECULE
BindingDB_91964
 41 45 0 0 0
SMALL
NO_CHARGES


@<TRIPOS>ATOM
1    O         7.3820   -4.2622   14.3394  O     
2    C         8.5944   -4.1972   13.7312  C     
3    C         9.3140   -5.3578   13.3739  C     
4    C        10.5581   -5.2462   12.7307  C     
5    C        11.1108   -3.9766   12.4159  C     
6    C        12.3402   -3.8663   11.7080  C     
7    C        13.4873   -4.6120   12.0861  C     
8    C        14.7059   -4.4763   11.3944  C     
9    C        14.8271   -3.5934   10.2923  C     
10   C        16.0522   -3.3903    9.6067  C     
11   C        17.3268   -3.9135    9.8179  C     
12   C        18.0827   -4.8266   10.6941  C     
13   C        19.4424   -4.6274   10.1382  C     
14   C        19.4448   -3.7246    9.0658  C     
15   C        20.6347   -3.3668    8.4074  C     
16   C        21.8460   -3.9340    8.8514  C     
17   C        21.8577   -4.8473    9.9303  C     
18   O        23.0381   -5.3821   10.3236  O     
19   C        20.6520   -5.1966   10.5804  C     
20   C        18.1425   -3.3021    8.8931  C     
21   N        17.4218   -2.4489    8.1553  N     
22   N        16.1982   -2.5181    8.5800  N     
23   C        13.6687   -2.8705    9.9018  C     
24   C        12.4546   -3.0038   10.5911  C     
25   C        10.3764   -2.8211   12.7909  C     
26   C         9.1339   -2.9289   13.4375  C     
27   H         7.1899   -5.2148   14.5016  H     
28   H         8.9328   -6.2813   13.5831  H     
29   H        11.0563   -6.1014   12.4787  H     
30   H        13.4469   -5.2589   12.8842  H     
31   H        15.5040   -5.0278   11.7062  H     
32   H        17.7580   -5.8628   10.5827  H     
33   H        18.0252   -4.5149   11.7387  H     
34   H        20.6260   -2.7036    7.6283  H     
35   H        22.7247   -3.6724    8.3956  H     
36   H        22.8587   -6.3322   10.4953  H     
37   H        20.6533   -5.8479   11.3704  H     
38   H        13.6968   -2.2240    9.1005  H     
39   H        11.6526   -2.4704   10.2552  H     
40   H        10.7425   -1.8815   12.5999  H     
41   H         8.6193   -2.0804   13.6840  H     
@<TRIPOS>BOND
     1    1    2 1
     2    2    3 ar
     3    3    4 ar
     4    4    5 ar
     5    5    6 1
     6    6    7 ar
     7    7    8 ar
     8    8    9 ar
     9    9   10 1
    10   10   11 ar
    11   11   12 1
    12   12   13 1
    13   13   14 ar
    14   14   15 ar
    15   15   16 ar
    16   16   17 ar
    17   17   18 1
    18   17   19 ar
    19   13   19 ar
    20   11   20 ar
    21   14   20 1
    22   20   21 ar
    23   21   22 ar
    24   10   22 ar
    25    9   23 ar
    26   23   24 ar
    27    6   24 ar
    28    5   25 ar
    29   25   26 ar
    30    2   26 ar
    31    1   27 1
    32    3   28 1
    33    4   29 1
    34    7   30 1
    35    8   31 1
    36   12   32 1
    37   12   33 1
    38   15   34 1
    39   16   35 1
    40   18   36 1
    41   19   37 1
    42   23   38 1
    43   24   39 1
    44   25   40 1
    45   26   41 1
@<TRIPOS>PROPERTY_DATA
  Total_Score	| 9.5289
  Crash		| -0.4594
  Polar		| 3.4534
  FragIndex	| 1
  FragRMSD	| 0.112

