@<TRIPOS>MOLECULE
BindingDB_16164
 48 50 0 0 0
SMALL
NO_CHARGES


@<TRIPOS>ATOM
1    C       -37.2898  172.9824   73.3228  C     
2    C       -37.0738  171.9595   72.3863  C     
3    C       -38.3011  173.2257   70.7200  C     
4    C       -37.9858  174.1655   72.9714  C     
5    C       -38.5234  174.2721   71.6497  C     
6    C       -39.2621  175.4575   71.3174  C     
7    C       -38.8236  176.3394   73.4834  C     
8    C       -38.1543  175.2386   73.8746  C     
9    N       -39.3555  176.4233   72.2676  N     
10   N       -39.8394  175.6257   70.0996  N     
11   C       -40.5595  176.6684   69.6242  C     
12   N       -40.8973  177.7834   70.2949  N     
13   N       -40.9456  176.5888   68.3449  N     
14   Cl      -37.5141  175.2527   75.4184  Cl    
15   C       -37.5633  172.0786   71.0741  C     
16   O       -37.7057  171.2355   68.4554  O     
17   O       -35.6590  170.7733   69.6825  O     
18   S       -37.2319  170.8178   69.9149  S     
19   C       -36.9191  168.4580   71.1436  C     
20   N       -37.8068  169.2730   70.3466  N     
21   C       -39.0364  168.7244   69.7455  C     
22   C       -39.6561  167.4792   70.4674  C     
23   C       -40.4216  168.0257   71.6946  C     
24   C       -40.6992  169.5099   71.3791  C     
25   C       -40.2539  169.6872   69.9160  C     
26   C       -38.7442  168.3786   68.3250  C     
27   O       -37.9311  167.3379   68.0370  O     
28   O       -39.2358  169.0935   67.2862  O     
29   H       -36.9151  172.8500   74.2641  H     
30   H       -36.5460  171.1314   72.6704  H     
31   H       -38.6650  173.2986   69.7694  H     
32   H       -38.9410  177.1145   74.0922  H     
33   H       -41.3751  178.4917   69.8386  H     
34   H       -40.6109  177.9270   71.2062  H     
35   H       -41.3722  177.3482   67.9197  H     
36   H       -40.6819  175.8171   67.8207  H     
37   H       -36.0240  168.9804   71.4876  H     
38   H       -36.5904  167.5936   70.5646  H     
39   H       -37.4308  168.1106   72.0405  H     
40   H       -40.3785  166.9777   69.8122  H     
41   H       -38.9196  166.7272   70.7551  H     
42   H       -41.3555  167.4753   71.8454  H     
43   H       -39.8185  167.9358   72.6017  H     
44   H       -41.7549  169.7634   71.5074  H     
45   H       -40.1028  170.1550   72.0309  H     
46   H       -40.0233  170.7296   69.6981  H     
47   H       -41.0814  169.3923   69.2595  H     
48   H       -39.7083  174.9083   69.4615  H     
@<TRIPOS>BOND
     1    1    2 1
     2    1    4 2
     3    2   15 2
     4    3    5 2
     5    3   15 1
     6    4    5 1
     7    4    8 1
     8    5    6 1
     9    6    9 2
    10    6   10 1
    11    7    8 2
    12    7    9 1
    13    8   14 1
    14   10   11 2
    15   11   12 1
    16   11   13 1
    17   15   18 1
    18   16   18 2
    19   17   18 2
    20   18   20 1
    21   19   20 1
    22   20   21 1
    23   21   22 1
    24   21   25 1
    25   21   26 1
    26   22   23 1
    27   23   24 1
    28   24   25 1
    29   26   27 2
    30   26   28 1
    31    1   29 1
    32    2   30 1
    33    3   31 1
    34    7   32 1
    35   12   33 1
    36   12   34 1
    37   13   35 1
    38   13   36 1
    39   19   37 1
    40   19   38 1
    41   19   39 1
    42   22   40 1
    43   22   41 1
    44   23   42 1
    45   23   43 1
    46   24   44 1
    47   24   45 1
    48   25   46 1
    49   25   47 1
    50   10   48 1
@<TRIPOS>PROPERTY_DATA
  Total_Score	| 8.9985
  Crash		| -1.6804
  Polar		| 5.7922
  FragIndex	| 1
  FragRMSD	| 0.594

