@<TRIPOS>MOLECULE
BindingDB_16159
 42 44 0 0 0
SMALL
NO_CHARGES


@<TRIPOS>ATOM
1    C       -37.3057  173.1063   73.3511  C     
2    C       -37.0763  172.0747   72.4287  C     
3    C       -38.3438  173.2896   70.7576  C     
4    C       -38.0321  174.2694   72.9945  C     
5    C       -38.5644  174.3490   71.6689  C     
6    C       -39.3094  175.5259   71.3146  C     
7    C       -38.8906  176.4422   73.4724  C     
8    C       -38.2177  175.3471   73.8869  C     
9    N       -39.4127  176.5058   72.2525  N     
10   N       -39.8649  175.6776   70.0929  N     
11   C       -40.5969  176.6975   69.6002  C     
12   N       -40.9513  177.8257   70.2560  N     
13   N       -40.9306  176.6034   68.3008  N     
14   Cl      -37.6009  175.3805   75.4393  Cl    
15   C       -37.5894  172.1608   71.1202  C     
16   O       -37.3020  171.4190   68.4906  O     
17   O       -35.8319  170.3028   70.1585  O     
18   S       -37.3033  170.8702   69.9818  S     
19   C       -38.4525  168.8190   71.3458  C     
20   C       -39.5925  167.8102   71.1211  C     
21   C       -40.4867  168.5350   70.1123  C     
22   C       -39.4919  169.3680   69.2575  C     
23   N       -38.3944  169.5789   70.1427  N     
24   C       -39.0359  168.6949   68.0261  C     
25   O       -38.8397  169.4167   66.8909  O     
26   O       -38.6189  167.3946   68.0719  O     
27   H       -36.9322  172.9890   74.3034  H     
28   H       -36.5205  171.2607   72.7161  H     
29   H       -38.7276  173.3300   69.8110  H     
30   H       -39.0159  177.2247   74.0713  H     
31   H       -41.4524  178.5153   69.7849  H     
32   H       -40.6666  177.9624   71.1823  H     
33   H       -41.3362  177.3511   67.8530  H     
34   H       -40.6587  175.8267   67.7963  H     
35   H       -38.6935  169.4826   72.1863  H     
36   H       -37.4991  168.3063   71.5398  H     
37   H       -39.2101  166.8922   70.6809  H     
38   H       -40.1096  167.5784   72.0587  H     
39   H       -41.1020  167.8516   69.5282  H     
40   H       -41.1455  169.2265   70.6664  H     
41   H       -39.9664  170.3171   68.9893  H     
42   H       -39.7093  174.9508   69.4651  H     
@<TRIPOS>BOND
     1    1    2 1
     2    1    4 2
     3    2   15 2
     4    3    5 2
     5    3   15 1
     6    4    5 1
     7    4    8 1
     8    5    6 1
     9    6    9 2
    10    6   10 1
    11    7    8 2
    12    7    9 1
    13    8   14 1
    14   10   11 2
    15   11   12 1
    16   11   13 1
    17   15   18 1
    18   16   18 2
    19   17   18 2
    20   18   23 1
    21   19   20 1
    22   19   23 1
    23   20   21 1
    24   21   22 1
    25   22   23 1
    26   22   24 1
    27   24   25 2
    28   24   26 1
    29    1   27 1
    30    2   28 1
    31    3   29 1
    32    7   30 1
    33   12   31 1
    34   12   32 1
    35   13   33 1
    36   13   34 1
    37   19   35 1
    38   19   36 1
    39   20   37 1
    40   20   38 1
    41   21   39 1
    42   21   40 1
    43   22   41 1
    44   10   42 1
@<TRIPOS>PROPERTY_DATA
  Total_Score	| 8.4934
  Crash		| -1.2759
  Polar		| 5.6551
  FragIndex	| 1
  FragRMSD	| 0.741

