@<TRIPOS>MOLECULE
BindingDB_16153
 42 44 0 0 0
SMALL
NO_CHARGES


@<TRIPOS>ATOM
1    C       -37.8487  171.9538   71.2238  C     
2    C       -37.5135  172.9231   73.4334  C     
3    C       -37.3539  171.8624   72.5323  C     
4    C       -38.5793  173.1035   70.8458  C     
5    C       -38.1536  174.1259   73.0376  C     
6    C       -38.7498  174.1980   71.7370  C     
7    C       -39.4291  175.4041   71.3721  C     
8    C       -38.8166  176.3832   73.4516  C     
9    C       -38.2031  175.2616   73.8682  C     
10   N       -39.4095  176.4327   72.2604  N     
11   N       -40.0375  175.5712   70.1693  N     
12   C       -40.6835  176.6554   69.6650  C     
13   N       -40.9427  177.8066   70.3060  N     
14   N       -41.0474  176.5925   68.3782  N     
15   O       -37.6133  171.1740   68.5560  O     
16   O       -35.8334  170.5366   70.1182  O     
17   Cl      -37.4657  175.3293   75.3739  Cl    
18   S       -37.4264  170.7192   70.0719  S     
19   N       -37.9773  169.1228   70.2935  N     
20   C       -38.5608  168.3362   68.0376  C     
21   O       -39.1063  169.2337   67.1871  O     
22   O       -37.5400  167.5708   67.5577  O     
23   C       -38.9049  168.3853   69.4796  C     
24   C       -39.1627  166.9584   70.0711  C     
25   C       -40.5855  167.3830   70.5152  C     
26   C       -40.3781  168.7620   69.8234  C     
27   H       -37.1054  172.8273   74.3612  H     
28   H       -36.8416  171.0300   72.8362  H     
29   H       -38.9687  173.1577   69.9049  H     
30   H       -38.8322  177.1968   74.0197  H     
31   H       -41.3472  178.5412   69.8235  H     
32   H       -40.6714  177.9476   71.2205  H     
33   H       -41.4010  177.3784   67.9331  H     
34   H       -40.8006  175.8054   67.8665  H     
35   H       -37.7614  168.7290   71.1494  H     
36   H       -39.2169  166.1384   69.3486  H     
37   H       -38.5093  166.7060   70.9215  H     
38   H       -41.3926  166.7883   70.0533  H     
39   H       -40.6911  167.4336   71.6228  H     
40   H       -40.4872  169.5987   70.5369  H     
41   H       -41.0409  168.8762   68.9569  H     
42   H       -39.9776  174.8256   69.5476  H     
@<TRIPOS>BOND
     1    1    3 2
     2    1    4 1
     3    1   18 1
     4    2    3 1
     5    2    5 2
     6    4    6 2
     7    5    6 1
     8    5    9 1
     9    6    7 1
    10    7   10 2
    11    7   11 1
    12    8    9 2
    13    8   10 1
    14    9   17 1
    15   11   12 2
    16   12   13 1
    17   12   14 1
    18   15   18 2
    19   16   18 2
    20   18   19 1
    21   19   23 1
    22   20   21 2
    23   20   22 1
    24   20   23 1
    25   23   24 1
    26   23   26 1
    27   24   25 1
    28   25   26 1
    29    2   27 1
    30    3   28 1
    31    4   29 1
    32    8   30 1
    33   13   31 1
    34   13   32 1
    35   14   33 1
    36   14   34 1
    37   19   35 1
    38   24   36 1
    39   24   37 1
    40   25   38 1
    41   25   39 1
    42   26   40 1
    43   26   41 1
    44   11   42 1
@<TRIPOS>PROPERTY_DATA
  Total_Score	| 9.3303
  Crash		| -0.7520
  Polar		| 5.8218
  FragIndex	| 1
  FragRMSD	| 0.831

