@<TRIPOS>MOLECULE
BindingDB_16150
 47 48 0 0 0
SMALL
NO_CHARGES


@<TRIPOS>ATOM
1    C       -37.6340  172.1144   70.9808  C     
2    C       -37.2946  172.9696   73.2378  C     
3    C       -37.1124  171.9593   72.2767  C     
4    C       -38.3501  173.2823   70.6640  C     
5    C       -37.9887  174.1670   72.9247  C     
6    C       -38.5374  174.3127   71.6136  C     
7    C       -39.2731  175.5062   71.3094  C     
8    C       -38.8259  176.3289   73.4950  C     
9    C       -38.1530  175.2188   73.8546  C     
10   N       -39.3627  176.4495   72.2825  N     
11   N       -39.8518  175.6859   70.0933  N     
12   C       -40.5864  176.7155   69.6212  C     
13   N       -40.9476  177.8133   70.3041  N     
14   N       -40.9663  176.6319   68.3407  N     
15   O       -37.1526  171.4957   68.3909  O     
16   O       -36.4979  169.7396   70.1655  O     
17   Cl      -37.5109  175.1852   75.3974  Cl    
18   S       -37.5665  170.8539   69.7850  S     
19   C       -39.6173  168.9807   69.3868  C     
20   C       -38.9300  168.4664   68.1740  C     
21   O       -38.4128  167.2121   68.0637  O     
22   O       -39.0525  169.1743   67.0250  O     
23   N       -39.1610  170.3073   69.6706  N     
24   C       -40.5674  166.7921   70.4099  C     
25   C       -38.3345  167.6581   71.2612  C     
26   C       -39.7275  168.0847   70.6917  C     
27   C       -40.4733  168.8872   71.8166  C     
28   H       -36.9118  172.8114   74.1723  H     
29   H       -36.6098  171.1066   72.5353  H     
30   H       -38.7468  173.3659   69.7282  H     
31   H       -38.9415  177.0864   74.1246  H     
32   H       -41.4374  178.5172   69.8541  H     
33   H       -40.6647  177.9433   71.2180  H     
34   H       -41.4128  177.3800   67.9171  H     
35   H       -40.6830  175.8658   67.8165  H     
36   H       -40.6492  169.1336   69.0472  H     
37   H       -39.8388  170.9212   69.9973  H     
38   H       -41.5225  167.0403   69.9386  H     
39   H       -40.7774  166.2467   71.3333  H     
40   H       -40.0326  166.1026   69.7576  H     
41   H       -37.7213  167.1839   70.4945  H     
42   H       -38.4494  166.9414   72.0794  H     
43   H       -37.7974  168.5226   71.6569  H     
44   H       -39.8846  169.7474   72.1491  H     
45   H       -40.6623  168.2649   72.6933  H     
46   H       -41.4368  169.2588   71.4614  H     
47   H       -39.7147  174.9759   69.4503  H     
@<TRIPOS>BOND
     1    1    3 2
     2    1    4 1
     3    1   18 1
     4    2    3 1
     5    2    5 2
     6    4    6 2
     7    5    6 1
     8    5    9 1
     9    6    7 1
    10    7   10 2
    11    7   11 1
    12    8    9 2
    13    8   10 1
    14    9   17 1
    15   11   12 2
    16   12   13 1
    17   12   14 1
    18   15   18 2
    19   16   18 2
    20   18   23 1
    21   19   20 1
    22   19   23 1
    23   19   26 1
    24   20   21 2
    25   20   22 1
    26   24   26 1
    27   25   26 1
    28   26   27 1
    29    2   28 1
    30    3   29 1
    31    4   30 1
    32    8   31 1
    33   13   32 1
    34   13   33 1
    35   14   34 1
    36   14   35 1
    37   19   36 1
    38   23   37 1
    39   24   38 1
    40   24   39 1
    41   24   40 1
    42   25   41 1
    43   25   42 1
    44   25   43 1
    45   27   44 1
    46   27   45 1
    47   27   46 1
    48   11   47 1
@<TRIPOS>PROPERTY_DATA
  Total_Score	| 9.8276
  Crash		| -1.2675
  Polar		| 6.7677
  FragIndex	| 1
  FragRMSD	| 0.471

