@<TRIPOS>MOLECULE
BindingDB_16162
 44 46 0 0 0
SMALL
NO_CHARGES


@<TRIPOS>ATOM
1    C       -37.3328  173.0231   73.4512  C     
2    C       -37.1545  171.9695   72.5435  C     
3    C       -38.3925  173.1972   70.8552  C     
4    C       -38.0268  174.2001   73.0759  C     
5    C       -38.5682  174.2811   71.7501  C     
6    C       -39.2880  175.4647   71.3853  C     
7    C       -38.8624  176.3819   73.5454  C     
8    C       -38.2022  175.2824   73.9578  C     
9    N       -39.3737  176.4482   72.3207  N     
10   N       -39.8418  175.6269   70.1556  N     
11   C       -40.5407  176.6700   69.6480  C     
12   N       -40.8610  177.8013   70.2968  N     
13   N       -40.9156  176.5637   68.3689  N     
14   Cl      -37.5644  175.3196   75.5006  Cl    
15   C       -37.6783  172.0473   71.2438  C     
16   O       -37.7025  171.1087   68.6145  O     
17   O       -35.8995  170.3911   70.1505  O     
18   S       -37.4550  170.7221   70.1355  S     
19   C       -37.6006  168.2492   71.2667  C     
20   C       -38.7058  167.2550   71.6586  C     
21   C       -39.9729  168.1227   71.6643  C     
22   C       -39.6962  169.1843   70.5759  C     
23   N       -38.2719  169.3102   70.5941  N     
24   C       -40.2249  168.7505   69.1813  C     
25   O       -40.1977  169.8331   68.2674  O     
26   H       -36.9361  172.9197   74.3900  H     
27   H       -36.6369  171.1432   72.8472  H     
28   H       -38.7763  173.2366   69.9095  H     
29   H       -38.9922  177.1658   74.1434  H     
30   H       -41.3309  178.5064   69.8286  H     
31   H       -40.5807  177.9618   71.2044  H     
32   H       -41.3393  177.3146   67.9262  H     
33   H       -40.6634  175.7741   67.8614  H     
34   H       -37.1014  168.6168   72.1671  H     
35   H       -36.8661  167.7701   70.6145  H     
36   H       -38.7935  166.4666   70.9040  H     
37   H       -38.5246  166.7971   72.6352  H     
38   H       -40.8739  167.5329   71.4758  H     
39   H       -40.0738  168.6120   72.6367  H     
40   H       -40.1809  170.1245   70.8661  H     
41   H       -39.6377  167.9298   68.7717  H     
42   H       -41.2617  168.4244   69.2587  H     
43   H       -40.5506  170.5960   68.7757  H     
44   H       -39.7052  174.9050   69.5282  H     
@<TRIPOS>BOND
     1    1    2 1
     2    1    4 2
     3    2   15 2
     4    3    5 2
     5    3   15 1
     6    4    5 1
     7    4    8 1
     8    5    6 1
     9    6    9 2
    10    6   10 1
    11    7    8 2
    12    7    9 1
    13    8   14 1
    14   10   11 2
    15   11   12 1
    16   11   13 1
    17   15   18 1
    18   16   18 2
    19   17   18 2
    20   18   23 1
    21   19   20 1
    22   19   23 1
    23   20   21 1
    24   21   22 1
    25   22   23 1
    26   22   24 1
    27   24   25 1
    28    1   26 1
    29    2   27 1
    30    3   28 1
    31    7   29 1
    32   12   30 1
    33   12   31 1
    34   13   32 1
    35   13   33 1
    36   19   34 1
    37   19   35 1
    38   20   36 1
    39   20   37 1
    40   21   38 1
    41   21   39 1
    42   22   40 1
    43   24   41 1
    44   24   42 1
    45   25   43 1
    46   10   44 1
@<TRIPOS>PROPERTY_DATA
  Total_Score	| 8.0864
  Crash		| -1.8653
  Polar		| 6.2608
  FragIndex	| 1
  FragRMSD	| 0.931

