@<TRIPOS>MOLECULE
BindingDB_16163
 44 46 0 0 0
SMALL
NO_CHARGES


@<TRIPOS>ATOM
1    C       -37.3161  173.1259   73.3942  C     
2    C       -37.0927  172.0738   72.4873  C     
3    C       -38.3776  173.2554   70.8035  C     
4    C       -38.0352  174.2871   73.0092  C     
5    C       -38.5915  174.3347   71.6917  C     
6    C       -39.3417  175.5037   71.3270  C     
7    C       -38.8948  176.4641   73.4575  C     
8    C       -38.2037  175.3885   73.8759  C     
9    N       -39.4308  176.4982   72.2443  N     
10   N       -39.9039  175.6444   70.0999  N     
11   C       -40.6102  176.6877   69.5985  C     
12   N       -40.9622  177.8057   70.2585  N     
13   N       -40.9353  176.6178   68.3013  N     
14   Cl      -37.5605  175.4555   75.4194  Cl    
15   C       -37.6028  172.1395   71.1755  C     
16   O       -37.4153  171.3483   68.5786  O     
17   O       -35.8100  170.3062   70.2023  O     
18   S       -37.3070  170.8168   70.0726  S     
19   C       -38.4604  168.8602   71.5460  C     
20   C       -39.5327  167.7798   71.3456  C     
21   C       -40.4004  168.3565   70.2121  C     
22   C       -39.4261  169.2224   69.3733  C     
23   N       -38.3576  169.5099   70.2852  N     
24   C       -38.9415  168.5863   68.1472  C     
25   O       -38.8971  169.2345   67.0985  O     
26   N       -38.4636  167.3556   68.1174  N     
27   H       -36.9242  173.0346   74.3359  H     
28   H       -36.5494  171.2639   72.7972  H     
29   H       -38.7606  173.2829   69.8569  H     
30   H       -39.0032  177.2612   74.0359  H     
31   H       -41.4403  178.5082   69.7872  H     
32   H       -40.7259  177.9308   71.1922  H     
33   H       -41.3504  177.3769   67.8654  H     
34   H       -40.6646  175.8449   67.7834  H     
35   H       -38.7987  169.5700   72.3003  H     
36   H       -37.5096  168.4238   71.8658  H     
37   H       -39.0669  166.8394   71.0339  H     
38   H       -40.1193  167.6080   72.2508  H     
39   H       -40.8774  167.5638   69.6234  H     
40   H       -41.1742  168.9995   70.6478  H     
41   H       -39.9436  170.1551   69.1199  H     
42   H       -38.1168  166.9947   67.2831  H     
43   H       -38.4688  166.7989   68.9185  H     
44   H       -39.7651  174.9110   69.4782  H     
@<TRIPOS>BOND
     1    1    2 1
     2    1    4 2
     3    2   15 2
     4    3    5 2
     5    3   15 1
     6    4    5 1
     7    4    8 1
     8    5    6 1
     9    6    9 2
    10    6   10 1
    11    7    8 2
    12    7    9 1
    13    8   14 1
    14   10   11 2
    15   11   12 1
    16   11   13 1
    17   15   18 1
    18   16   18 2
    19   17   18 2
    20   18   23 1
    21   19   20 1
    22   19   23 1
    23   20   21 1
    24   21   22 1
    25   22   23 1
    26   22   24 1
    27   24   25 2
    28   24   26 am
    29    1   27 1
    30    2   28 1
    31    3   29 1
    32    7   30 1
    33   12   31 1
    34   12   32 1
    35   13   33 1
    36   13   34 1
    37   19   35 1
    38   19   36 1
    39   20   37 1
    40   20   38 1
    41   21   39 1
    42   21   40 1
    43   22   41 1
    44   26   42 1
    45   26   43 1
    46   10   44 1
@<TRIPOS>PROPERTY_DATA
  Total_Score	| 7.6639
  Crash		| -1.3200
  Polar		| 5.4630
  FragIndex	| 1
  FragRMSD	| 0.486

