@<TRIPOS>MOLECULE
BindingDB_16145
 51 53 0 0 0
SMALL
NO_CHARGES


@<TRIPOS>ATOM
1    C       -37.7880  172.0420   71.2246  C     
2    C       -37.3263  173.0728   73.3820  C     
3    C       -37.1635  172.0053   72.4845  C     
4    C       -38.5322  173.1778   70.8533  C     
5    C       -38.0581  174.2293   73.0208  C     
6    C       -38.6670  174.2830   71.7297  C     
7    C       -39.3687  175.4741   71.3563  C     
8    C       -38.8490  176.4306   73.4760  C     
9    C       -38.1891  175.3353   73.8939  C     
10   N       -39.4075  176.4875   72.2672  N     
11   N       -39.9268  175.6314   70.1276  N     
12   C       -40.6144  176.6805   69.6257  C     
13   N       -40.9385  177.8138   70.2689  N     
14   N       -40.9722  176.5818   68.3374  N     
15   O       -37.7156  171.3382   68.6719  O     
16   O       -36.0862  170.1933   70.0991  O     
17   Cl      -37.5366  175.3752   75.4332  Cl    
18   S       -37.5990  170.7019   70.1352  S     
19   C       -39.4976  169.0550   69.1105  C     
20   C       -38.7348  168.6856   67.9055  C     
21   O       -37.8554  167.6631   67.9342  O     
22   O       -38.9956  169.2954   66.7234  O     
23   N       -38.6518  169.3693   70.2473  N     
24   C       -38.4426  168.3849   71.3142  C     
25   C       -39.4459  168.3292   72.5148  C     
26   C       -39.4344  169.5725   73.4402  C     
27   C       -40.9445  168.1605   72.1853  C     
28   C       -41.5191  169.5939   72.1049  C     
29   C       -40.5834  170.4822   72.9606  C     
30   H       -36.8899  172.9881   74.3013  H     
31   H       -36.6179  171.1970   72.7665  H     
32   H       -38.9824  173.1975   69.9367  H     
33   H       -38.9530  177.2263   74.0646  H     
34   H       -41.3912  178.5268   69.7868  H     
35   H       -40.6676  177.9601   71.1892  H     
36   H       -41.3684  177.3414   67.8857  H     
37   H       -40.7076  175.7925   67.8343  H     
38   H       -40.1544  169.9076   68.9108  H     
39   H       -40.1383  168.2071   69.3313  H     
40   H       -38.4094  167.3829   70.8577  H     
41   H       -37.4389  168.5155   71.7494  H     
42   H       -39.1243  167.4752   73.1155  H     
43   H       -39.6367  169.2639   74.4691  H     
44   H       -38.4698  170.0804   73.4344  H     
45   H       -41.1228  167.5767   71.2781  H     
46   H       -41.4329  167.6415   73.0149  H     
47   H       -41.5165  169.9496   71.0685  H     
48   H       -42.5451  169.6251   72.4900  H     
49   H       -41.1300  170.9104   73.8184  H     
50   H       -40.1928  171.3089   72.3550  H     
51   H       -39.8008  174.8954   69.5058  H     
@<TRIPOS>BOND
     1    1    3 2
     2    1    4 1
     3    1   18 1
     4    2    3 1
     5    2    5 2
     6    4    6 2
     7    5    6 1
     8    5    9 1
     9    6    7 1
    10    7   10 2
    11    7   11 1
    12    8    9 2
    13    8   10 1
    14    9   17 1
    15   11   12 2
    16   12   13 1
    17   12   14 1
    18   15   18 2
    19   16   18 2
    20   18   23 1
    21   19   20 1
    22   19   23 1
    23   20   21 2
    24   20   22 1
    25   23   24 1
    26   24   25 1
    27   25   26 1
    28   25   27 1
    29   26   29 1
    30   27   28 1
    31   28   29 1
    32    2   30 1
    33    3   31 1
    34    4   32 1
    35    8   33 1
    36   13   34 1
    37   13   35 1
    38   14   36 1
    39   14   37 1
    40   19   38 1
    41   19   39 1
    42   24   40 1
    43   24   41 1
    44   25   42 1
    45   26   43 1
    46   26   44 1
    47   27   45 1
    48   27   46 1
    49   28   47 1
    50   28   48 1
    51   29   49 1
    52   29   50 1
    53   11   51 1
@<TRIPOS>PROPERTY_DATA
  Total_Score	| 9.5759
  Crash		| -1.5035
  Polar		| 5.8317
  FragIndex	| 1
  FragRMSD	| 0.361

