@<TRIPOS>MOLECULE
BindingDB_16165
 60 62 0 0 0
SMALL
NO_CHARGES


@<TRIPOS>ATOM
1    C       -37.2789  173.0220   73.3131  C     
2    C       -37.0434  172.0031   72.3803  C     
3    C       -38.3215  173.2257   70.7173  C     
4    C       -38.0096  174.1842   72.9604  C     
5    C       -38.5514  174.2762   71.6409  C     
6    C       -39.2926  175.4579   71.3024  C     
7    C       -38.8775  176.3484   73.4657  C     
8    C       -38.1914  175.2567   73.8588  C     
9    N       -39.4022  176.4273   72.2460  N     
10   N       -39.8505  175.6318   70.0749  N     
11   C       -40.5693  176.6780   69.6026  C     
12   N       -40.9495  176.6154   68.3188  N     
13   N       -40.9116  177.7810   70.2925  N     
14   Cl      -37.5528  175.2713   75.4055  Cl    
15   C       -37.5634  172.0928   71.0776  C     
16   O       -37.7222  171.2516   68.4744  O     
17   O       -35.6493  170.8536   69.6530  O     
18   S       -37.2180  170.8295   69.9232  S     
19   N       -37.7460  169.2567   70.3401  N     
20   C       -38.9774  168.7024   69.7399  C     
21   C       -39.5945  167.4408   70.4395  C     
22   C       -40.4460  167.9528   71.6297  C     
23   C       -40.6797  169.4525   71.3523  C     
24   C       -40.2157  169.6418   69.8986  C     
25   C       -38.6755  168.3880   68.3128  C     
26   O       -37.9396  167.2931   67.9993  O     
27   O       -39.0967  169.1692   67.2903  O     
28   C       -36.8071  168.4463   71.1091  C     
29   C       -37.2068  168.2116   72.5988  C     
30   N       -36.0516  168.1467   73.5542  N     
31   C       -36.4882  168.0891   74.9811  C     
32   C       -35.0854  167.0472   73.2537  C     
33   H       -36.8855  172.9037   74.2471  H     
34   H       -36.4734  171.1986   72.6575  H     
35   H       -38.6882  173.2926   69.7666  H     
36   H       -39.0111  177.1190   74.0766  H     
37   H       -41.3777  177.3777   67.9014  H     
38   H       -40.6756  175.8549   67.7874  H     
39   H       -41.3917  178.4972   69.8542  H     
40   H       -40.6328  177.9051   71.2112  H     
41   H       -40.2617  166.9076   69.7528  H     
42   H       -38.8496  166.7173   70.7646  H     
43   H       -41.3912  167.4010   71.6910  H     
44   H       -39.9180  167.8214   72.5780  H     
45   H       -41.7266  169.7366   71.4841  H     
46   H       -40.0667  170.0669   72.0179  H     
47   H       -40.0130  170.6884   69.6757  H     
48   H       -41.0283  169.3246   69.2296  H     
49   H       -36.6634  167.4841   70.6155  H     
50   H       -35.8121  168.8951   71.1019  H     
51   H       -37.8718  169.0257   72.8947  H     
52   H       -37.7818  167.2891   72.6722  H     
53   H       -35.5424  169.0238   73.4617  H     
54   H       -37.1086  168.9515   75.2316  H     
55   H       -35.6221  168.1118   75.6500  H     
56   H       -37.0581  167.1755   75.1828  H     
57   H       -35.5751  166.0720   73.3246  H     
58   H       -34.2452  167.0681   73.9544  H     
59   H       -34.6666  167.1582   72.2497  H     
60   H       -39.7056  174.9223   69.4270  H     
@<TRIPOS>BOND
     1    1    2 1
     2    1    4 2
     3    2   15 2
     4    3    5 2
     5    3   15 1
     6    4    5 1
     7    4    8 1
     8    5    6 1
     9    6    9 2
    10    6   10 1
    11    7    8 2
    12    7    9 1
    13    8   14 1
    14   10   11 2
    15   11   12 1
    16   11   13 1
    17   15   18 1
    18   16   18 2
    19   17   18 2
    20   18   19 1
    21   19   20 1
    22   19   28 1
    23   20   21 1
    24   20   24 1
    25   20   25 1
    26   21   22 1
    27   22   23 1
    28   23   24 1
    29   25   26 2
    30   25   27 1
    31   28   29 1
    32   29   30 1
    33   30   31 1
    34   30   32 1
    35    1   33 1
    36    2   34 1
    37    3   35 1
    38    7   36 1
    39   12   37 1
    40   12   38 1
    41   13   39 1
    42   13   40 1
    43   21   41 1
    44   21   42 1
    45   22   43 1
    46   22   44 1
    47   23   45 1
    48   23   46 1
    49   24   47 1
    50   24   48 1
    51   28   49 1
    52   28   50 1
    53   29   51 1
    54   29   52 1
    55   30   53 1
    56   31   54 1
    57   31   55 1
    58   31   56 1
    59   32   57 1
    60   32   58 1
    61   32   59 1
    62   10   60 1
@<TRIPOS>PROPERTY_DATA
  Total_Score	| 10.4081
  Crash		| -1.7236
  Polar		| 7.4801
  FragIndex	| 1
  FragRMSD	| 0.607

