@<TRIPOS>MOLECULE
BindingDB_16161
 45 47 0 0 0
SMALL
NO_CHARGES


@<TRIPOS>ATOM
1    C       -37.2775  173.0728   73.3292  C     
2    C       -36.9946  172.0667   72.3921  C     
3    C       -38.2839  173.2677   70.7175  C     
4    C       -38.0294  174.2188   72.9740  C     
5    C       -38.5545  174.3086   71.6434  C     
6    C       -39.3333  175.4693   71.3061  C     
7    C       -38.9755  176.3448   73.4876  C     
8    C       -38.2611  175.2738   73.8835  C     
9    N       -39.4873  176.4200   72.2599  N     
10   N       -39.8636  175.6363   70.0678  N     
11   C       -40.5810  176.6710   69.5767  C     
12   N       -40.8834  176.6172   68.2752  N     
13   N       -40.9688  177.7720   70.2457  N     
14   Cl      -37.6668  175.2929   75.4479  Cl    
15   C       -37.4893  172.1582   71.0824  C     
16   O       -37.2107  171.3855   68.4831  O     
17   O       -35.7205  170.2565   70.1650  O     
18   S       -37.1925  170.8461   69.9842  S     
19   C       -38.2990  168.9071   71.4672  C     
20   C       -39.0129  167.5289   71.4230  C     
21   C       -40.4400  167.6020   70.8099  C     
22   C       -40.6830  168.8218   69.8739  C     
23   C       -39.3984  169.4620   69.2575  C     
24   N       -38.3264  169.6086   70.2141  N     
25   C       -38.9151  168.7156   68.0668  C     
26   O       -38.3798  167.4705   68.2189  O     
27   O       -39.0324  169.2564   66.8274  O     
28   H       -36.9264  172.9431   74.2853  H     
29   H       -36.4365  171.2658   72.6843  H     
30   H       -38.6709  173.3037   69.7748  H     
31   H       -39.1371  177.1100   74.0981  H     
32   H       -41.2961  177.3825   67.8398  H     
33   H       -40.5770  175.8589   67.7478  H     
34   H       -41.4395  178.4836   69.7714  H     
35   H       -40.7238  177.9011   71.1842  H     
36   H       -38.7821  169.5311   72.2256  H     
37   H       -37.2723  168.7179   71.7884  H     
38   H       -38.4039  166.8496   70.8093  H     
39   H       -39.0725  167.1149   72.4406  H     
40   H       -40.6346  166.6649   70.2624  H     
41   H       -41.1816  167.6407   71.6308  H     
42   H       -41.3873  168.5409   69.0830  H     
43   H       -41.1734  169.5967   70.4768  H     
44   H       -39.7249  170.4604   68.9161  H     
45   H       -39.6873  174.9276   69.4233  H     
@<TRIPOS>BOND
     1    1    2 1
     2    1    4 2
     3    2   15 2
     4    3    5 2
     5    3   15 1
     6    4    5 1
     7    4    8 1
     8    5    6 1
     9    6    9 2
    10    6   10 1
    11    7    8 2
    12    7    9 1
    13    8   14 1
    14   10   11 2
    15   11   12 1
    16   11   13 1
    17   15   18 1
    18   16   18 2
    19   17   18 2
    20   18   24 1
    21   19   20 1
    22   19   24 1
    23   20   21 1
    24   21   22 1
    25   22   23 1
    26   23   24 1
    27   23   25 1
    28   25   26 2
    29   25   27 1
    30    1   28 1
    31    2   29 1
    32    3   30 1
    33    7   31 1
    34   12   32 1
    35   12   33 1
    36   13   34 1
    37   13   35 1
    38   19   36 1
    39   19   37 1
    40   20   38 1
    41   20   39 1
    42   21   40 1
    43   21   41 1
    44   22   42 1
    45   22   43 1
    46   23   44 1
    47   10   45 1
@<TRIPOS>PROPERTY_DATA
  Total_Score	| 9.1975
  Crash		| -1.4337
  Polar		| 5.8891
  FragIndex	| 1
  FragRMSD	| 0.303

