@<TRIPOS>MOLECULE
BindingDB_16154
 45 47 0 0 0
SMALL
NO_CHARGES


@<TRIPOS>ATOM
1    C       -37.6228  172.2540   71.0227  C     
2    C       -37.3163  173.1338   73.2801  C     
3    C       -37.1121  172.1162   72.3258  C     
4    C       -38.3595  173.3966   70.6908  C     
5    C       -38.0254  174.3205   72.9509  C     
6    C       -38.5767  174.4303   71.6313  C     
7    C       -39.3312  175.5989   71.3091  C     
8    C       -38.8605  176.4964   73.4655  C     
9    C       -38.2013  175.3833   73.8527  C     
10   N       -39.4124  176.5798   72.2491  N     
11   N       -39.9297  175.7264   70.1030  N     
12   C       -40.6532  176.7351   69.5821  C     
13   N       -41.0445  176.5983   68.3097  N     
14   N       -40.9635  177.8707   70.2424  N     
15   O       -36.9919  171.5110   68.4119  O     
16   O       -36.4317  169.8781   70.3357  O     
17   Cl      -37.5996  175.3701   75.4113  Cl    
18   S       -37.4850  170.9814   69.8443  S     
19   N       -39.0005  170.2587   69.7370  N     
20   C       -38.8523  168.3849   68.2904  C     
21   O       -38.0928  167.2823   68.0770  O     
22   O       -39.1725  169.1337   67.2104  O     
23   C       -39.2320  168.8487   69.6626  C     
24   C       -40.7776  167.1173   70.5437  C     
25   C       -39.3499  166.7738   71.0106  C     
26   C       -38.5237  168.0864   70.8187  C     
27   C       -40.7179  168.5565   69.9862  C     
28   H       -36.9463  172.9970   74.2214  H     
29   H       -36.5967  171.2784   72.6015  H     
30   H       -38.7495  173.4671   69.7447  H     
31   H       -38.9647  177.2688   74.0722  H     
32   H       -41.4533  177.3429   67.8432  H     
33   H       -40.7760  175.7996   67.8244  H     
34   H       -41.4408  178.5762   69.7770  H     
35   H       -40.6615  178.0062   71.1520  H     
36   H       -39.7844  170.8379   69.6334  H     
37   H       -41.0964  166.4146   69.7637  H     
38   H       -41.4841  167.0559   71.3777  H     
39   H       -39.3249  166.4497   72.0556  H     
40   H       -38.9280  165.9828   70.3829  H     
41   H       -37.4809  167.8616   70.6398  H     
42   H       -38.5747  168.6571   71.7442  H     
43   H       -41.0702  169.2417   70.7666  H     
44   H       -41.3679  168.6847   69.1150  H     
45   H       -39.8074  174.9789   69.4796  H     
@<TRIPOS>BOND
     1    1    3 2
     2    1    4 1
     3    1   18 1
     4    2    3 1
     5    2    5 2
     6    4    6 2
     7    5    6 1
     8    5    9 1
     9    6    7 1
    10    7   10 2
    11    7   11 1
    12    8    9 2
    13    8   10 1
    14    9   17 1
    15   11   12 2
    16   12   13 1
    17   12   14 1
    18   15   18 2
    19   16   18 2
    20   18   19 1
    21   19   23 1
    22   20   21 2
    23   20   22 1
    24   20   23 1
    25   23   26 1
    26   23   27 1
    27   24   25 1
    28   24   27 1
    29   25   26 1
    30    2   28 1
    31    3   29 1
    32    4   30 1
    33    8   31 1
    34   13   32 1
    35   13   33 1
    36   14   34 1
    37   14   35 1
    38   19   36 1
    39   24   37 1
    40   24   38 1
    41   25   39 1
    42   25   40 1
    43   26   41 1
    44   26   42 1
    45   27   43 1
    46   27   44 1
    47   11   45 1
@<TRIPOS>PROPERTY_DATA
  Total_Score	| 9.3781
  Crash		| -1.7391
  Polar		| 6.5851
  FragIndex	| 1
  FragRMSD	| 0.549

