@<TRIPOS>MOLECULE
BindingDB_16147
 38 39 0 0 0
SMALL
NO_CHARGES


@<TRIPOS>ATOM
1    C       -37.6588  172.1235   71.1635  C     
2    C       -37.3847  173.0624   73.3936  C     
3    C       -37.1886  172.0132   72.4844  C     
4    C       -38.3469  173.2807   70.7651  C     
5    C       -38.0455  174.2629   72.9984  C     
6    C       -38.5630  174.3478   71.6645  C     
7    C       -39.2855  175.5299   71.3070  C     
8    C       -38.8094  176.4781   73.4375  C     
9    C       -38.1804  175.3673   73.8677  C     
10   N       -39.3468  176.5283   72.2239  N     
11   N       -39.8770  175.6827   70.0917  N     
12   C       -40.6132  176.7182   69.6232  C     
13   N       -40.9783  177.8237   70.3069  N     
14   N       -40.9821  176.6555   68.3421  N     
15   O       -36.8617  171.3925   68.6440  O     
16   O       -36.3829  169.7797   70.5849  O     
17   Cl      -37.5446  175.4103   75.4144  Cl    
18   S       -37.4442  170.8263   70.0187  S     
19   C       -39.0933  168.6780   69.4882  C     
20   C       -38.7674  168.3757   68.0818  C     
21   O       -38.9964  169.2904   67.1074  O     
22   O       -38.2634  167.1675   67.7182  O     
23   N       -38.9237  170.0713   69.7542  N     
24   C       -40.5488  168.2819   69.8218  C     
25   H       -37.0360  172.9477   74.3481  H     
26   H       -36.7080  171.1699   72.8083  H     
27   H       -38.6976  173.3357   69.8092  H     
28   H       -38.8991  177.2734   74.0153  H     
29   H       -41.4548  178.5258   69.8446  H     
30   H       -40.7020  177.9556   71.2232  H     
31   H       -41.4053  177.4189   67.9263  H     
32   H       -40.7049  175.8932   67.8084  H     
33   H       -38.4269  168.0914   70.1391  H     
34   H       -39.7032  170.6514   69.6166  H     
35   H       -41.2518  168.7940   69.1673  H     
36   H       -40.7957  168.5391   70.8501  H     
37   H       -40.6940  167.2096   69.6993  H     
38   H       -39.7452  174.9582   69.4560  H     
@<TRIPOS>BOND
     1    1    3 2
     2    1    4 1
     3    1   18 1
     4    2    3 1
     5    2    5 2
     6    4    6 2
     7    5    6 1
     8    5    9 1
     9    6    7 1
    10    7   10 2
    11    7   11 1
    12    8    9 2
    13    8   10 1
    14    9   17 1
    15   11   12 2
    16   12   13 1
    17   12   14 1
    18   15   18 2
    19   16   18 2
    20   18   23 1
    21   19   20 1
    22   19   23 1
    23   19   24 1
    24   20   21 2
    25   20   22 1
    26    2   25 1
    27    3   26 1
    28    4   27 1
    29    8   28 1
    30   13   29 1
    31   13   30 1
    32   14   31 1
    33   14   32 1
    34   19   33 1
    35   23   34 1
    36   24   35 1
    37   24   36 1
    38   24   37 1
    39   11   38 1
@<TRIPOS>PROPERTY_DATA
  Total_Score	| 9.2530
  Crash		| -1.0617
  Polar		| 6.3958
  FragIndex	| 1
  FragRMSD	| 0.770

