@<TRIPOS>MOLECULE
BindingDB_16149
 44 45 0 0 0
SMALL
NO_CHARGES


@<TRIPOS>ATOM
1    C       -37.7132  172.1739   71.0991  C     
2    C       -37.3575  173.1078   73.3278  C     
3    C       -37.1858  172.0629   72.4036  C     
4    C       -38.4321  173.3318   70.7407  C     
5    C       -38.0537  174.2898   72.9774  C     
6    C       -38.6150  174.3884   71.6645  C     
7    C       -39.3460  175.5735   71.3226  C     
8    C       -38.8673  176.4801   73.4677  C     
9    C       -38.2052  175.3765   73.8667  C     
10   N       -39.4173  176.5621   72.2577  N     
11   N       -39.9282  175.7139   70.1061  N     
12   C       -40.6381  176.7412   69.6028  C     
13   N       -40.9583  177.8546   70.2798  N     
14   N       -41.0204  176.6423   68.3204  N     
15   O       -37.1579  171.4649   68.5036  O     
16   O       -36.3014  169.9737   70.3836  O     
17   Cl      -37.5763  175.3855   75.4141  Cl    
18   S       -37.5227  170.8920   69.9425  S     
19   C       -38.9411  168.5602   69.6179  C     
20   C       -38.8022  168.3055   68.1627  C     
21   O       -39.1466  169.2392   67.2480  O     
22   O       -38.3007  167.1364   67.7043  O     
23   N       -38.9418  169.9761   69.8374  N     
24   C       -40.0021  166.3351   70.4267  C     
25   C       -40.2116  167.8643   70.2247  C     
26   C       -40.6438  168.4987   71.5833  C     
27   H       -36.9652  172.9923   74.2646  H     
28   H       -36.6793  171.2282   72.6956  H     
29   H       -38.8241  173.3917   69.7965  H     
30   H       -38.9669  177.2590   74.0712  H     
31   H       -41.4336  178.5720   69.8272  H     
32   H       -40.6729  177.9719   71.1998  H     
33   H       -41.4375  177.3979   67.8730  H     
34   H       -40.7394  175.8594   67.8206  H     
35   H       -38.0633  168.1351   70.1190  H     
36   H       -39.7735  170.4618   69.6887  H     
37   H       -39.7487  165.8471   69.4844  H     
38   H       -40.9130  165.8707   70.8038  H     
39   H       -39.1969  166.1448   71.1372  H     
40   H       -41.0487  168.0021   69.5280  H     
41   H       -39.8149  168.4826   72.2947  H     
42   H       -41.4857  167.9509   72.0207  H     
43   H       -40.9682  169.5282   71.4433  H     
44   H       -39.8085  174.9765   69.4786  H     
@<TRIPOS>BOND
     1    1    3 2
     2    1    4 1
     3    1   18 1
     4    2    3 1
     5    2    5 2
     6    4    6 2
     7    5    6 1
     8    5    9 1
     9    6    7 1
    10    7   10 2
    11    7   11 1
    12    8    9 2
    13    8   10 1
    14    9   17 1
    15   11   12 2
    16   12   13 1
    17   12   14 1
    18   15   18 2
    19   16   18 2
    20   18   23 1
    21   19   20 1
    22   19   23 1
    23   19   25 1
    24   20   21 2
    25   20   22 1
    26   24   25 1
    27   25   26 1
    28    2   27 1
    29    3   28 1
    30    4   29 1
    31    8   30 1
    32   13   31 1
    33   13   32 1
    34   14   33 1
    35   14   34 1
    36   19   35 1
    37   23   36 1
    38   24   37 1
    39   24   38 1
    40   24   39 1
    41   25   40 1
    42   26   41 1
    43   26   42 1
    44   26   43 1
    45   11   44 1
@<TRIPOS>PROPERTY_DATA
  Total_Score	| 8.8550
  Crash		| -1.2409
  Polar		| 6.2840
  FragIndex	| 1
  FragRMSD	| 0.778

