@<TRIPOS>MOLECULE
BindingDB_16146
 38 39 0 0 0
SMALL
NO_CHARGES


@<TRIPOS>ATOM
1    C       -37.8595  172.0176   71.1621  C     
2    C       -37.4263  172.9793   73.3642  C     
3    C       -37.3329  171.9033   72.4593  C     
4    C       -38.5293  173.2028   70.7975  C     
5    C       -38.0553  174.1920   72.9982  C     
6    C       -38.6466  174.2913   71.6967  C     
7    C       -39.3258  175.5070   71.3524  C     
8    C       -38.7478  176.4367   73.4628  C     
9    C       -38.1325  175.3047   73.8700  C     
10   N       -39.3250  176.5177   72.2654  N     
11   N       -39.9194  175.6680   70.1408  N     
12   C       -40.6127  176.7137   69.6462  C     
13   N       -40.9618  177.8322   70.3131  N     
14   N       -40.9689  176.6284   68.3589  N     
15   O       -36.9166  171.2592   68.7376  O     
16   O       -36.9192  169.5058   70.6239  O     
17   Cl      -37.4446  175.3284   75.3950  Cl    
18   S       -37.7277  170.7281   69.9978  S     
19   C       -39.6365  168.9881   68.9800  C     
20   C       -38.7833  168.5962   67.8314  C     
21   O       -37.8522  167.6033   67.9098  O     
22   O       -38.8314  169.3331   66.6986  O     
23   N       -39.2764  170.2734   69.4937  N     
24   C       -39.6785  167.9199   70.1022  C     
25   H       -37.0151  172.8557   74.2918  H     
26   H       -36.8570  171.0492   72.7509  H     
27   H       -38.9339  173.2663   69.8632  H     
28   H       -38.7913  177.2367   74.0477  H     
29   H       -41.4312  178.5412   69.8510  H     
30   H       -40.7065  177.9666   71.2345  H     
31   H       -41.3791  177.3882   67.9126  H     
32   H       -40.6886  175.8524   67.8459  H     
33   H       -40.6531  169.0686   68.5990  H     
34   H       -39.9997  170.9079   69.6740  H     
35   H       -40.0596  166.9661   69.7223  H     
36   H       -40.3508  168.2508   70.9139  H     
37   H       -38.6986  167.7363   70.5370  H     
38   H       -39.8136  174.9353   69.5157  H     
@<TRIPOS>BOND
     1    1    3 2
     2    1    4 1
     3    1   18 1
     4    2    3 1
     5    2    5 2
     6    4    6 2
     7    5    6 1
     8    5    9 1
     9    6    7 1
    10    7   10 2
    11    7   11 1
    12    8    9 2
    13    8   10 1
    14    9   17 1
    15   11   12 2
    16   12   13 1
    17   12   14 1
    18   15   18 2
    19   16   18 2
    20   18   23 1
    21   19   20 1
    22   19   23 1
    23   19   24 1
    24   20   21 2
    25   20   22 1
    26    2   25 1
    27    3   26 1
    28    4   27 1
    29    8   28 1
    30   13   29 1
    31   13   30 1
    32   14   31 1
    33   14   32 1
    34   19   33 1
    35   23   34 1
    36   24   35 1
    37   24   36 1
    38   24   37 1
    39   11   38 1
@<TRIPOS>PROPERTY_DATA
  Total_Score	| 9.6351
  Crash		| -0.9261
  Polar		| 6.8496
  FragIndex	| 1
  FragRMSD	| 0.458

