@<TRIPOS>MOLECULE
BindingDB_16155
 48 50 0 0 0
SMALL
NO_CHARGES


@<TRIPOS>ATOM
1    C       -37.6428  172.0574   71.0450  C     
2    C       -37.3439  172.9538   73.2947  C     
3    C       -37.1454  171.9312   72.3547  C     
4    C       -38.3585  173.2174   70.6946  C     
5    C       -38.0400  174.1420   72.9542  C     
6    C       -38.5726  174.2608   71.6318  C     
7    C       -39.3068  175.4498   71.3062  C     
8    C       -38.8869  176.3082   73.4866  C     
9    C       -38.2172  175.2021   73.8690  C     
10   N       -39.4079  176.4060   72.2675  N     
11   N       -39.8746  175.6258   70.0872  N     
12   C       -40.5983  176.6638   69.6113  C     
13   N       -40.9416  177.7752   70.2838  N     
14   N       -40.9877  176.5730   68.3297  N     
15   O       -37.7401  171.2252   68.4084  O     
16   O       -35.7323  170.6570   69.7724  O     
17   Cl      -37.5881  175.1969   75.4175  Cl    
18   S       -37.3130  170.8047   69.8792  S     
19   N       -37.8633  169.2598   70.2993  N     
20   C       -38.6451  168.3827   68.2217  C     
21   O       -37.6415  167.5791   67.7899  O     
22   O       -39.2552  169.1592   67.2997  O     
23   C       -38.9299  168.5197   69.6797  C     
24   C       -38.9634  167.0847   70.3102  C     
25   C       -39.3924  167.0680   71.8041  C     
26   C       -40.7570  167.7737   72.0082  C     
27   C       -40.7279  169.2133   71.4358  C     
28   C       -40.3104  169.2185   69.9423  C     
29   H       -36.9604  172.8180   74.2316  H     
30   H       -36.6219  171.0973   72.6292  H     
31   H       -38.7156  173.3023   69.7430  H     
32   H       -39.0185  177.0712   74.1072  H     
33   H       -41.4364  178.4763   69.8362  H     
34   H       -40.6492  177.9193   71.1956  H     
35   H       -41.4204  177.3267   67.9039  H     
36   H       -40.7231  175.7984   67.8117  H     
37   H       -37.4678  168.8742   71.0962  H     
38   H       -39.6624  166.4500   69.7512  H     
39   H       -37.9756  166.6200   70.2372  H     
40   H       -39.4701  166.0327   72.1467  H     
41   H       -38.6357  167.5642   72.4123  H     
42   H       -41.5404  167.1959   71.5109  H     
43   H       -40.9930  167.8088   73.0740  H     
44   H       -41.7204  169.6623   71.5366  H     
45   H       -40.0278  169.8228   72.0136  H     
46   H       -40.2744  170.2529   69.5874  H     
47   H       -41.0927  168.7086   69.3706  H     
48   H       -39.7394  174.9108   69.4476  H     
@<TRIPOS>BOND
     1    1    3 2
     2    1    4 1
     3    1   18 1
     4    2    3 1
     5    2    5 2
     6    4    6 2
     7    5    6 1
     8    5    9 1
     9    6    7 1
    10    7   10 2
    11    7   11 1
    12    8    9 2
    13    8   10 1
    14    9   17 1
    15   11   12 2
    16   12   13 1
    17   12   14 1
    18   15   18 2
    19   16   18 2
    20   18   19 1
    21   19   23 1
    22   20   21 2
    23   20   22 1
    24   20   23 1
    25   23   24 1
    26   23   28 1
    27   24   25 1
    28   25   26 1
    29   26   27 1
    30   27   28 1
    31    2   29 1
    32    3   30 1
    33    4   31 1
    34    8   32 1
    35   13   33 1
    36   13   34 1
    37   14   35 1
    38   14   36 1
    39   19   37 1
    40   24   38 1
    41   24   39 1
    42   25   40 1
    43   25   41 1
    44   26   42 1
    45   26   43 1
    46   27   44 1
    47   27   45 1
    48   28   46 1
    49   28   47 1
    50   11   48 1
@<TRIPOS>PROPERTY_DATA
  Total_Score	| 9.1545
  Crash		| -1.1158
  Polar		| 5.6188
  FragIndex	| 1
  FragRMSD	| 0.494

