@<TRIPOS>MOLECULE
BindingDB_16160
 42 44 0 0 0
SMALL
NO_CHARGES


@<TRIPOS>ATOM
1    C       -37.3526  173.0284   73.3636  C     
2    C       -37.1289  171.9915   72.4399  C     
3    C       -38.3810  173.2271   70.7708  C     
4    C       -38.0629  174.2010   73.0057  C     
5    C       -38.6011  174.2797   71.6869  C     
6    C       -39.3497  175.4488   71.3298  C     
7    C       -38.8888  176.3824   73.4688  C     
8    C       -38.2217  175.2926   73.8882  C     
9    N       -39.4309  176.4452   72.2565  N     
10   N       -39.9234  175.5957   70.1085  N     
11   C       -40.6446  176.6278   69.6064  C     
12   N       -40.9544  176.5294   68.3078  N     
13   N       -41.0379  177.7441   70.2486  N     
14   Cl      -37.5865  175.3273   75.4367  Cl    
15   C       -37.6197  172.0981   71.1271  C     
16   O       -37.3429  171.5366   68.5136  O     
17   O       -35.8542  170.3291   70.1987  O     
18   S       -37.3341  170.8446   69.9464  S     
19   C       -39.5126  169.5970   71.0009  C     
20   C       -40.1684  168.2087   70.8964  C     
21   C       -39.0091  167.3383   70.4110  C     
22   C       -38.2204  168.2778   69.4618  C     
23   N       -38.4375  169.5619   70.0580  N     
24   C       -38.7085  168.1750   68.0516  C     
25   O       -38.2134  167.1739   67.2821  O     
26   O       -39.1941  169.2636   67.3914  O     
27   H       -36.9782  172.9038   74.3119  H     
28   H       -36.5983  171.1695   72.7281  H     
29   H       -38.7632  173.2761   69.8204  H     
30   H       -38.9963  177.1708   74.0687  H     
31   H       -41.3626  177.2839   67.8533  H     
32   H       -40.6413  175.7683   67.7991  H     
33   H       -41.4807  178.4522   69.7563  H     
34   H       -40.7987  177.8906   71.1766  H     
35   H       -40.2305  170.3891   70.7685  H     
36   H       -39.1177  169.7430   72.0192  H     
37   H       -40.5627  167.8629   71.8515  H     
38   H       -40.9668  168.2243   70.1496  H     
39   H       -38.3729  167.0503   71.2572  H     
40   H       -39.3660  166.4211   69.9342  H     
41   H       -37.1572  168.0089   69.4894  H     
42   H       -39.7742  174.8727   69.4808  H     
@<TRIPOS>BOND
     1    1    2 1
     2    1    4 2
     3    2   15 2
     4    3    5 2
     5    3   15 1
     6    4    5 1
     7    4    8 1
     8    5    6 1
     9    6    9 2
    10    6   10 1
    11    7    8 2
    12    7    9 1
    13    8   14 1
    14   10   11 2
    15   11   12 1
    16   11   13 1
    17   15   18 1
    18   16   18 2
    19   17   18 2
    20   18   23 1
    21   19   20 1
    22   19   23 1
    23   20   21 1
    24   21   22 1
    25   22   23 1
    26   22   24 1
    27   24   25 2
    28   24   26 1
    29    1   27 1
    30    2   28 1
    31    3   29 1
    32    7   30 1
    33   12   31 1
    34   12   32 1
    35   13   33 1
    36   13   34 1
    37   19   35 1
    38   19   36 1
    39   20   37 1
    40   20   38 1
    41   21   39 1
    42   21   40 1
    43   22   41 1
    44   10   42 1
@<TRIPOS>PROPERTY_DATA
  Total_Score	| 8.3426
  Crash		| -0.9767
  Polar		| 6.0591
  FragIndex	| 1
  FragRMSD	| 0.609

