@<TRIPOS>MOLECULE
BindingDB_16148
 44 45 0 0 0
SMALL
NO_CHARGES


@<TRIPOS>ATOM
1    C       -37.8215  172.1345   71.0512  C     
2    C       -37.4034  173.0861   73.2555  C     
3    C       -37.2682  172.0290   72.3373  C     
4    C       -38.5314  173.2950   70.7003  C     
5    C       -38.1027  174.2765   72.9168  C     
6    C       -38.6905  174.3669   71.6137  C     
7    C       -39.4167  175.5594   71.2781  C     
8    C       -38.8863  176.4691   73.4134  C     
9    C       -38.2302  175.3596   73.8059  C     
10   N       -39.4594  176.5515   72.2049  N     
11   N       -40.0434  175.6996   70.0839  N     
12   C       -40.7385  176.7428   69.5815  C     
13   N       -41.1915  176.6300   68.3255  N     
14   N       -40.9634  177.8976   70.2452  N     
15   O       -37.0003  171.3672   68.5590  O     
16   O       -36.8632  169.6443   70.5032  O     
17   Cl      -37.5875  175.3576   75.3528  Cl    
18   S       -37.7154  170.8432   69.8868  S     
19   C       -39.6812  168.9862   69.2859  C     
20   C       -38.9255  168.4705   68.1147  C     
21   O       -38.7439  169.2592   67.0296  O     
22   O       -38.1956  167.3294   68.1718  O     
23   N       -39.2798  170.3380   69.5327  N     
24   C       -40.1753  168.8251   71.8373  C     
25   C       -39.6125  168.0979   70.5812  C     
26   C       -40.3518  166.7395   70.4039  C     
27   H       -36.9857  172.9690   74.1826  H     
28   H       -36.7621  171.1877   72.6272  H     
29   H       -38.9409  173.3496   69.7646  H     
30   H       -38.9753  177.2474   74.0171  H     
31   H       -41.5706  177.3985   67.8805  H     
32   H       -41.0095  175.8158   67.8270  H     
33   H       -41.4372  178.6191   69.8061  H     
34   H       -40.6249  178.0217   71.1426  H     
35   H       -40.7282  169.0323   68.9860  H     
36   H       -39.9954  170.9936   69.6515  H     
37   H       -39.5727  169.7014   72.0722  H     
38   H       -40.1537  168.1610   72.7049  H     
39   H       -41.2098  169.1420   71.6778  H     
40   H       -38.5619  167.8720   70.7931  H     
41   H       -41.4092  166.8977   70.1751  H     
42   H       -40.2816  166.1398   71.3144  H     
43   H       -39.9034  166.1572   69.5955  H     
44   H       -39.9694  174.9448   69.4680  H     
@<TRIPOS>BOND
     1    1    3 2
     2    1    4 1
     3    1   18 1
     4    2    3 1
     5    2    5 2
     6    4    6 2
     7    5    6 1
     8    5    9 1
     9    6    7 1
    10    7   10 2
    11    7   11 1
    12    8    9 2
    13    8   10 1
    14    9   17 1
    15   11   12 2
    16   12   13 1
    17   12   14 1
    18   15   18 2
    19   16   18 2
    20   18   23 1
    21   19   20 1
    22   19   23 1
    23   19   25 1
    24   20   21 2
    25   20   22 1
    26   24   25 1
    27   25   26 1
    28    2   27 1
    29    3   28 1
    30    4   29 1
    31    8   30 1
    32   13   31 1
    33   13   32 1
    34   14   33 1
    35   14   34 1
    36   19   35 1
    37   23   36 1
    38   24   37 1
    39   24   38 1
    40   24   39 1
    41   25   40 1
    42   26   41 1
    43   26   42 1
    44   26   43 1
    45   11   44 1
@<TRIPOS>PROPERTY_DATA
  Total_Score	| 9.7093
  Crash		| -1.1450
  Polar		| 6.3076
  FragIndex	| 1
  FragRMSD	| 0.850

