@<TRIPOS>MOLECULE
BindingDB_50198033
 45 46 0 0 0
SMALL
NO_CHARGES


@<TRIPOS>ATOM
1    N        11.0407   25.2145   16.0725  N     
2    C        11.4619   25.2929   17.4334  C     
3    C        11.6518   26.8229   17.7721  C     
4    C        11.5640   27.2009   19.2792  C     
5    C        12.9951   27.3447   17.1871  C     
6    S        11.8816   24.4269   14.8284  S     
7    C        11.0222   23.0776   14.1484  C     
8    O        13.3864   24.0897   15.2324  O     
9    O        12.0240   25.5635   13.7172  O     
10   C        11.6914   21.9023   13.7462  C     
11   C        10.9814   20.8445   13.1522  C     
12   C         9.5824   20.9316   12.9465  C     
13   C         8.9224   22.1154   13.3451  C     
14   C         9.6286   23.1743   13.9427  C     
15   C         8.8818   19.8946   12.2640  C     
16   C         8.0143   20.2059   11.1886  C     
17   C         7.3681   19.1973   10.4476  C     
18   C         7.5762   17.8331   10.7664  C     
19   C         8.4200   17.5103   11.8551  C     
20   C         9.0647   18.5250   12.5873  C     
21   P        10.3352   24.4461   18.3251  P     
22   O         9.9663   23.1767   17.7212  O     
23   O        10.8629   24.1335   19.7347  O     
24   O         9.0406   25.2475   18.4839  O     
25   C         6.9096   16.7793    9.9517  C     
26   H        10.2122   25.6873   15.8269  H     
27   H        12.4238   24.7845   17.5870  H     
28   H        10.8400   27.3615   17.2686  H     
29   H        10.5480   27.0522   19.6577  H     
30   H        11.8084   28.2488   19.4302  H     
31   H        12.2523   26.5846   19.8600  H     
32   H        13.8441   26.8376   17.6482  H     
33   H        13.0782   28.4182   17.3671  H     
34   H        13.0461   27.1920   16.1069  H     
35   H        12.7028   21.8259   13.8406  H     
36   H        11.4995   20.0171   12.8582  H     
37   H         7.9131   22.2164   13.2174  H     
38   H         9.1224   24.0145   14.2043  H     
39   H         7.8635   21.1723   10.9045  H     
40   H         6.7696   19.4610    9.6612  H     
41   H         8.5907   16.5342   12.1121  H     
42   H         9.6645   18.2619   13.3669  H     
43   H         5.8293   16.9373    9.9636  H     
44   H         7.1174   15.7770   10.3410  H     
45   H         7.2654   16.8338    8.9197  H     
@<TRIPOS>BOND
     1    1    2 1
     2    1    6 1
     3    2    3 1
     4    2   21 1
     5    3    4 1
     6    3    5 1
     7    6    7 1
     8    6    8 2
     9    6    9 2
    10    7   10 2
    11    7   14 1
    12   10   11 1
    13   11   12 2
    14   12   13 1
    15   12   15 1
    16   13   14 2
    17   15   16 2
    18   15   20 1
    19   16   17 1
    20   17   18 2
    21   18   19 1
    22   18   25 1
    23   19   20 2
    24   21   22 2
    25   21   23 1
    26   21   24 1
    27    1   26 1
    28    2   27 1
    29    3   28 1
    30    4   29 1
    31    4   30 1
    32    4   31 1
    33    5   32 1
    34    5   33 1
    35    5   34 1
    36   10   35 1
    37   11   36 1
    38   13   37 1
    39   14   38 1
    40   16   39 1
    41   17   40 1
    42   19   41 1
    43   20   42 1
    44   25   43 1
    45   25   44 1
    46   25   45 1
@<TRIPOS>PROPERTY_DATA
  Total_Score	| 9.5444
  Crash		| -1.0209
  Polar		| 4.9278
  FragIndex	| 1
  FragRMSD	| 0.490

