@<TRIPOS>MOLECULE
BindingDB_50198032
 48 49 0 0 0
SMALL
NO_CHARGES


@<TRIPOS>ATOM
1    N        11.1371   25.2691   16.1767  N     
2    C        11.6711   25.0874   17.4955  C     
3    C        12.3149   26.4004   18.0659  C     
4    C        13.5883   26.7848   17.2502  C     
5    C        11.3501   27.6103   18.1741  C     
6    P        10.4669   24.4142   18.4467  P     
7    O        10.0559   23.1253   17.9539  O     
8    O        10.9671   24.2244   19.8918  O     
9    O         9.2299   25.3335   18.4960  O     
10   S        11.6974   24.4471   14.8044  S     
11   C        10.8901   23.0346   14.1982  C     
12   O        13.2745   24.2571   14.9629  O     
13   O        11.6739   25.5542   13.6444  O     
14   C         9.4992   23.0546   13.9804  C     
15   C         8.8493   21.9953   13.3130  C     
16   C         9.5786   20.8737   12.8356  C     
17   C        10.9643   20.8291   13.1371  C     
18   C        11.6139   21.8964   13.7934  C     
19   C         8.9546   19.8415   11.9677  C     
20   C         9.3398   18.3657   12.2870  C     
21   C         8.7750   17.3056   11.4065  C     
22   C         8.8112   15.9534   11.8437  C     
23   C         8.4030   14.9116   11.0021  C     
24   C         7.9617   15.1757    9.6960  C     
25   C         7.8963   16.4995    9.2402  C     
26   C         8.2707   17.5601   10.0954  C     
27   H        10.4806   25.9790   16.0430  H     
28   H        12.4583   24.3215   17.4550  H     
29   H        12.6718   26.1803   19.0801  H     
30   H        14.2636   25.9378   17.1779  H     
31   H        14.1235   27.5890   17.7575  H     
32   H        13.3223   27.1173   16.2506  H     
33   H        10.8094   27.7741   17.2428  H     
34   H        11.8922   28.5191   18.4202  H     
35   H        10.6308   27.4423   18.9763  H     
36   H         8.9552   23.8560   14.2702  H     
37   H         7.8527   22.0602   13.1460  H     
38   H        11.5220   20.0199   12.8462  H     
39   H        12.6230   21.8447   13.9360  H     
40   H         7.8545   19.9084   12.0057  H     
41   H         9.2337   20.0325   10.9159  H     
42   H        10.4415   18.2956   12.2478  H     
43   H         9.0604   18.1634   13.3302  H     
44   H         9.1406   15.7274   12.7884  H     
45   H         8.4384   13.9466   11.3262  H     
46   H         7.7063   14.4156    9.0612  H     
47   H         7.5825   16.7081    8.3090  H     
48   H         8.1848   18.5282    9.7599  H     
@<TRIPOS>BOND
     1    1    2 1
     2    1   10 1
     3    2    3 1
     4    2    6 1
     5    3    4 1
     6    3    5 1
     7    6    7 2
     8    6    8 1
     9    6    9 1
    10   10   11 1
    11   10   12 2
    12   10   13 2
    13   11   14 2
    14   11   18 1
    15   14   15 1
    16   15   16 2
    17   16   17 1
    18   16   19 1
    19   17   18 2
    20   19   20 1
    21   20   21 1
    22   21   22 2
    23   21   26 1
    24   22   23 1
    25   23   24 2
    26   24   25 1
    27   25   26 2
    28    1   27 1
    29    2   28 1
    30    3   29 1
    31    4   30 1
    32    4   31 1
    33    4   32 1
    34    5   33 1
    35    5   34 1
    36    5   35 1
    37   14   36 1
    38   15   37 1
    39   17   38 1
    40   18   39 1
    41   19   40 1
    42   19   41 1
    43   20   42 1
    44   20   43 1
    45   22   44 1
    46   23   45 1
    47   24   46 1
    48   25   47 1
    49   26   48 1
@<TRIPOS>PROPERTY_DATA
  Total_Score	| 8.9251
  Crash		| -1.1402
  Polar		| 5.0935
  FragIndex	| 1
  FragRMSD	| 0.752

