@<TRIPOS>MOLECULE
BindingDB_50198040
 54 56 0 0 0
SMALL
NO_CHARGES


@<TRIPOS>ATOM
1    N        11.0062   25.4774   16.3569  N     
2    C        11.6113   25.1784   17.6144  C     
3    C        12.3375   26.4342   18.2285  C     
4    C        13.6029   26.8155   17.4016  C     
5    C        11.4291   27.6862   18.4092  C     
6    S        11.6263   24.9902   14.8666  S     
7    C        10.9637   23.5427   14.1824  C     
8    O        13.2216   24.9996   14.8647  O     
9    O        11.2286   26.1874   13.8951  O     
10   C         9.5817   23.4337   13.9307  C     
11   C         9.0540   22.2690   13.3358  C     
12   C         9.8925   21.1746   12.9835  C     
13   C        11.2832   21.3105   13.2385  C     
14   C        11.8125   22.4716   13.8270  C     
15   C         9.3662   19.9825   12.3946  C     
16   C         9.9008   18.7094   12.7058  C     
17   C         9.4067   17.5418   12.1030  C     
18   C         8.3515   17.5674   11.1550  C     
19   C         7.7946   18.8410   10.8834  C     
20   C         8.2828   20.0171   11.4816  C     
21   P        10.4394   24.4862   18.5820  P     
22   O         9.2694   25.3124   18.7377  O     
23   O         9.9581   23.1599   17.9630  O     
24   O        11.0043   24.1555   19.9793  O     
25   N         7.9084   16.4196   10.5230  N     
26   C         6.9127   16.3987    9.4831  C     
27   C         6.8854   14.9633    8.9296  C     
28   C         7.5053   14.1212   10.0494  C     
29   C         8.4232   15.1075   10.7918  C     
30   H        10.2453   26.0861   16.3401  H     
31   H        12.3637   24.4001   17.4798  H     
32   H        12.7003   26.1552   19.2255  H     
33   H        14.2497   25.9442   17.2730  H     
34   H        14.1780   27.5873   17.9327  H     
35   H        13.3166   27.1958   16.4193  H     
36   H        10.9971   27.9874   17.4511  H     
37   H        12.0100   28.5284   18.8067  H     
38   H        10.6188   27.4806   19.1174  H     
39   H         8.9468   24.1986   14.1790  H     
40   H         8.0463   22.2172   13.1842  H     
41   H        11.9379   20.5647   12.9898  H     
42   H        12.8235   22.5356   13.9900  H     
43   H        10.6672   18.6251   13.3790  H     
44   H         9.8514   16.6571   12.3683  H     
45   H         7.0113   18.9397   10.2273  H     
46   H         7.8611   20.9106   11.2184  H     
47   H         5.9352   16.6687    9.8931  H     
48   H         7.1714   17.0874    8.6739  H     
49   H         5.8737   14.6331    8.6860  H     
50   H         7.5068   14.9074    8.0336  H     
51   H         6.7207   13.7588   10.7233  H     
52   H         8.0626   13.2642    9.6607  H     
53   H         9.4478   15.0247   10.4202  H     
54   H         8.3990   14.8766   11.8582  H     
@<TRIPOS>BOND
     1    1    2 1
     2    1    6 1
     3    2    3 1
     4    2   21 1
     5    3    4 1
     6    3    5 1
     7    6    7 1
     8    6    8 2
     9    6    9 2
    10    7   10 2
    11    7   14 1
    12   10   11 1
    13   11   12 2
    14   12   13 1
    15   12   15 1
    16   13   14 2
    17   15   16 2
    18   15   20 1
    19   16   17 1
    20   17   18 2
    21   18   19 1
    22   18   25 1
    23   19   20 2
    24   21   22 2
    25   21   23 1
    26   21   24 1
    27   25   26 1
    28   25   29 1
    29   26   27 1
    30   27   28 1
    31   28   29 1
    32    1   30 1
    33    2   31 1
    34    3   32 1
    35    4   33 1
    36    4   34 1
    37    4   35 1
    38    5   36 1
    39    5   37 1
    40    5   38 1
    41   10   39 1
    42   11   40 1
    43   13   41 1
    44   14   42 1
    45   16   43 1
    46   17   44 1
    47   19   45 1
    48   20   46 1
    49   26   47 1
    50   26   48 1
    51   27   49 1
    52   27   50 1
    53   28   51 1
    54   28   52 1
    55   29   53 1
    56   29   54 1
@<TRIPOS>PROPERTY_DATA
  Total_Score	| 10.7241
  Crash		| -2.0518
  Polar		| 5.3555
  FragIndex	| 1
  FragRMSD	| 1.004

