@<TRIPOS>MOLECULE
BindingDB_50198038
 49 50 0 0 0
SMALL
NO_CHARGES


@<TRIPOS>ATOM
1    N        11.2079   25.2126   16.1746  N     
2    C        11.6603   25.0682   17.5260  C     
3    C        12.3384   26.3877   18.0416  C     
4    C        13.5918   26.7458   17.1944  C     
5    C        11.3900   27.6223   18.1259  C     
6    P        10.3841   24.4845   18.4265  P     
7    O        10.8023   24.0727   19.7429  O     
8    O         9.2263   25.4839   18.5691  O     
9    O         9.8263   23.2076   17.7621  O     
10   S        11.9759   24.5029   14.8506  S     
11   C        11.1011   23.1944   14.1243  C     
12   O        13.4730   24.0975   15.2156  O     
13   O        12.1570   25.6524   13.7692  O     
14   C        11.7698   22.0395   13.6654  C     
15   C        11.0472   20.9963   13.0617  C     
16   C         9.6464   21.0831   12.8880  C     
17   C         8.9885   22.2460   13.3458  C     
18   C         9.7061   23.2930   13.9580  C     
19   C         8.9339   20.0346   12.2441  C     
20   C         8.0071   20.3172   11.2090  C     
21   C         7.3198   19.2799   10.5552  C     
22   C         7.5428   17.9360   10.9128  C     
23   C         8.4341   17.6480   11.9644  C     
24   C         9.1370   18.6835   12.6092  C     
25   O         6.8538   16.9530   10.2561  O     
26   C         7.6329   16.1153    9.3754  C     
27   C         7.8220   14.7095    9.9776  C     
28   H        10.4657   25.8187   16.0006  H     
29   H        12.4172   24.2783   17.5769  H     
30   H        12.6950   26.2047   19.0624  H     
31   H        14.3208   25.9348   17.2396  H     
32   H        14.0745   27.6488   17.5729  H     
33   H        13.3207   26.9164   16.1512  H     
34   H        10.9276   27.8232   17.1563  H     
35   H        11.9470   28.5134   18.4334  H     
36   H        10.6049   27.4475   18.8657  H     
37   H        12.7848   21.9509   13.7608  H     
38   H        11.5629   20.1746   12.7315  H     
39   H         7.9713   22.3448   13.2532  H     
40   H         9.2042   24.1223   14.2782  H     
41   H         7.8503   21.2775   10.9068  H     
42   H         6.6648   19.5080    9.8033  H     
43   H         8.5890   16.6830   12.2609  H     
44   H         9.7876   18.4408   13.3588  H     
45   H         7.0884   16.0154    8.4370  H     
46   H         8.6100   16.5569    9.1420  H     
47   H         8.2825   14.7678   10.9668  H     
48   H         8.4621   14.1045    9.3315  H     
49   H         6.8524   14.2176   10.0727  H     
@<TRIPOS>BOND
     1    1    2 1
     2    1   10 1
     3    2    3 1
     4    2    6 1
     5    3    4 1
     6    3    5 1
     7    6    7 2
     8    6    8 1
     9    6    9 1
    10   10   11 1
    11   10   12 2
    12   10   13 2
    13   11   14 2
    14   11   18 1
    15   14   15 1
    16   15   16 2
    17   16   17 1
    18   16   19 1
    19   17   18 2
    20   19   20 2
    21   19   24 1
    22   20   21 1
    23   21   22 2
    24   22   23 1
    25   22   25 1
    26   23   24 2
    27   25   26 1
    28   26   27 1
    29    1   28 1
    30    2   29 1
    31    3   30 1
    32    4   31 1
    33    4   32 1
    34    4   33 1
    35    5   34 1
    36    5   35 1
    37    5   36 1
    38   14   37 1
    39   15   38 1
    40   17   39 1
    41   18   40 1
    42   20   41 1
    43   21   42 1
    44   23   43 1
    45   24   44 1
    46   26   45 1
    47   26   46 1
    48   27   47 1
    49   27   48 1
    50   27   49 1
@<TRIPOS>PROPERTY_DATA
  Total_Score	| 9.7327
  Crash		| -1.1311
  Polar		| 4.9147
  FragIndex	| 1
  FragRMSD	| 0.770

