@<TRIPOS>MOLECULE
BindingDB_50305446
 81 83 0 0 0
SMALL
NO_CHARGES


@<TRIPOS>ATOM
1    C        29.0962   -5.4214  -14.2027  C     
2    C        29.0215   -4.2648  -13.1711  C     
3    N        27.6679   -3.9583  -12.8194  N     
4    C        28.3627   -6.7161  -13.7515  C     
5    C        28.7340   -8.0606  -14.4777  C     
6    C        30.8046   -7.8301  -15.9885  C     
7    C        32.2008   -7.8441  -16.1782  C     
8    C        33.0552   -8.1522  -15.1063  C     
9    C        32.5095   -8.4613  -13.8470  C     
10   C        31.1158   -8.4308  -13.6613  C     
11   C        30.2280   -8.1258  -14.7244  C     
12   C        28.2542   -9.3442  -13.6716  C     
13   C        26.7396   -9.3375  -13.2666  C     
14   N        26.4948  -10.4627  -12.3729  N     
15   C        26.6204  -11.7566  -13.0234  C     
16   C        28.0626  -11.9310  -13.5682  C     
17   C        28.5271  -10.7040  -14.4033  C     
18   C        26.3828  -10.3232  -11.0372  C     
19   O        26.3150  -11.3165  -10.3195  O     
20   N        26.3715   -9.1323  -10.4435  N     
21   C        26.4284   -8.8163   -9.0498  C     
22   C        25.0426   -8.2638   -8.6164  C     
23   C        27.5693   -7.7768   -8.8153  C     
24   C        29.0301   -8.2751   -9.0781  C     
25   C        30.0358   -7.0802   -8.9826  C     
26   C        31.5095   -7.5183   -9.1680  C     
27   C        31.8964   -8.6420   -8.1748  C     
28   C        30.9348   -9.8512   -8.2918  C     
29   C        29.4550   -9.4207   -8.1026  C     
30   N        24.8337   -8.0531   -7.1665  N     
31   C        25.1463   -9.1811   -6.2671  C     
32   O        27.9940   -8.0950  -15.7063  O     
33   Cl       33.5274   -8.8682  -12.5546  Cl    
34   C        27.0177   -2.8446  -13.1094  C     
35   N        25.7559   -2.7400  -12.7752  N     
36   O        27.5234   -1.9043  -13.6924  O     
37   H        28.6883   -5.0877  -15.1553  H     
38   H        30.1630   -5.6310  -14.3510  H     
39   H        29.5498   -4.5662  -12.2619  H     
40   H        29.5548   -3.4088  -13.5906  H     
41   H        27.1824   -4.6350  -12.3255  H     
42   H        28.4911   -6.8406  -12.6688  H     
43   H        27.2968   -6.5139  -13.9199  H     
44   H        30.2162   -7.5864  -16.7891  H     
45   H        32.5956   -7.6119  -17.0965  H     
46   H        34.0662   -8.1573  -15.2537  H     
47   H        30.7531   -8.6253  -12.7296  H     
48   H        28.8134   -9.3697  -12.7286  H     
49   H        26.4648   -8.3878  -12.8233  H     
50   H        26.1126   -9.4239  -14.1564  H     
51   H        26.3926  -12.6030  -12.3691  H     
52   H        25.9098  -11.8179  -13.8558  H     
53   H        28.7446  -12.0672  -12.7227  H     
54   H        28.1124  -12.8278  -14.1895  H     
55   H        28.0032  -10.7096  -15.3618  H     
56   H        29.5932  -10.8204  -14.6072  H     
57   H        26.3362   -8.3562  -11.0209  H     
58   H        26.6342   -9.7117   -8.4607  H     
59   H        24.8641   -7.2990   -9.1079  H     
60   H        24.2572   -8.9463   -8.9736  H     
61   H        27.3706   -6.9179   -9.4667  H     
62   H        27.5190   -7.4130   -7.7887  H     
63   H        29.0830   -8.6650  -10.0980  H     
64   H        29.7972   -6.3429   -9.7543  H     
65   H        29.9349   -6.5903   -8.0104  H     
66   H        31.6606   -7.8708  -10.1922  H     
67   H        32.1677   -6.6578   -9.0152  H     
68   H        32.9154   -8.9691   -8.3813  H     
69   H        31.8695   -8.2567   -7.1523  H     
70   H        31.0526  -10.3152   -9.2741  H     
71   H        31.1936  -10.5922   -7.5348  H     
72   H        29.3117   -9.0948   -7.0678  H     
73   H        28.8288  -10.3031   -8.2635  H     
74   H        25.3666   -7.2343   -6.8530  H     
75   H        23.8431   -7.8385   -7.0500  H     
76   H        24.6381  -10.0901   -6.5982  H     
77   H        24.8037   -8.9348   -5.2647  H     
78   H        26.2215   -9.3600   -6.2243  H     
79   H        27.7268   -7.1666  -15.9040  H     
80   H        25.2616   -1.9273  -12.9791  H     
81   H        25.3022   -3.4726  -12.3344  H     
@<TRIPOS>BOND
     1    1    2 1
     2    1    4 1
     3    2    3 1
     4    3   34 am
     5    4    5 1
     6    5   11 1
     7    5   12 1
     8    5   32 1
     9    6    7 2
    10    6   11 1
    11    7    8 1
    12    8    9 2
    13    9   10 1
    14    9   33 1
    15   10   11 2
    16   12   13 1
    17   12   17 1
    18   13   14 1
    19   14   15 1
    20   14   18 1
    21   15   16 1
    22   16   17 1
    23   18   19 2
    24   18   20 am
    25   20   21 1
    26   21   22 1
    27   21   23 1
    28   22   30 1
    29   23   24 1
    30   24   25 1
    31   24   29 1
    32   25   26 1
    33   26   27 1
    34   27   28 1
    35   28   29 1
    36   30   31 1
    37   34   35 am
    38   34   36 2
    39    1   37 1
    40    1   38 1
    41    2   39 1
    42    2   40 1
    43    3   41 1
    44    4   42 1
    45    4   43 1
    46    6   44 1
    47    7   45 1
    48    8   46 1
    49   10   47 1
    50   12   48 1
    51   13   49 1
    52   13   50 1
    53   15   51 1
    54   15   52 1
    55   16   53 1
    56   16   54 1
    57   17   55 1
    58   17   56 1
    59   20   57 1
    60   21   58 1
    61   22   59 1
    62   22   60 1
    63   23   61 1
    64   23   62 1
    65   24   63 1
    66   25   64 1
    67   25   65 1
    68   26   66 1
    69   26   67 1
    70   27   68 1
    71   27   69 1
    72   28   70 1
    73   28   71 1
    74   29   72 1
    75   29   73 1
    76   30   74 1
    77   30   75 1
    78   31   76 1
    79   31   77 1
    80   31   78 1
    81   32   79 1
    82   35   80 1
    83   35   81 1
@<TRIPOS>PROPERTY_DATA
  Total_Score	| 13.1616
  Crash		| -1.5983
  Polar		| 7.0198
  FragIndex	| 1
  FragRMSD	| 0.141

