@<TRIPOS>MOLECULE
BindingDB_29940
 79 81 0 0 0
SMALL
NO_CHARGES


@<TRIPOS>ATOM
1    C        30.2242   -8.0950  -14.6318  C     
2    C        31.1422   -8.3720  -13.5886  C     
3    C        32.5295   -8.3994  -13.8115  C     
4    C        33.0390   -8.1151  -15.0922  C     
5    C        32.1493   -7.8440  -16.1497  C     
6    C        30.7610   -7.8375  -15.9222  C     
7    C        28.7450   -8.0302  -14.3370  C     
8    C        28.2913   -9.3190  -13.5336  C     
9    C        28.4036   -6.6651  -13.6233  C     
10   C        29.1419   -5.4169  -14.1955  C     
11   C        29.1919   -4.1639  -13.2774  C     
12   C        27.8319   -3.4422  -13.0911  C     
13   O        27.9523   -2.0347  -13.3024  O     
14   C        28.0812  -11.9241  -13.5538  C     
15   C        28.5776  -10.6595  -14.3132  C     
16   C        26.7895   -9.3408  -13.0923  C     
17   N        26.4840  -10.5553  -12.3397  N     
18   C        26.6045  -11.7757  -13.1176  C     
19   C        26.2774  -10.5777  -11.0112  C     
20   O        25.8984  -11.6068  -10.4597  O     
21   N        26.5925   -9.5333  -10.2500  N     
22   C        26.4854   -9.4005   -8.8243  C     
23   C        25.5832   -8.1334   -8.5960  C     
24   N        24.9565   -7.9144   -7.2588  N     
25   C        27.8798   -9.2971   -8.0993  C     
26   C        29.1805   -9.4921   -8.9446  C     
27   C        30.4493   -9.0353   -8.1645  C     
28   C        29.3709  -10.9737   -9.4039  C     
29   C        30.6485  -11.1486  -10.2632  C     
30   C        31.9170  -10.6469   -9.5269  C     
31   C        31.7411   -9.1948   -9.0057  C     
32   O        27.9574   -8.0577  -15.5336  O     
33   Cl       33.5758   -8.7609  -12.5335  Cl    
34   C        24.8016   -9.0900   -6.3867  C     
35   H        30.8014   -8.5572  -12.6460  H     
36   H        34.0471   -8.1158  -15.2652  H     
37   H        32.5204   -7.6311  -17.0832  H     
38   H        30.1457   -7.6417  -16.7171  H     
39   H        28.8738   -9.3593  -12.6026  H     
40   H        27.3379   -6.4766  -13.6959  H     
41   H        28.6333   -6.7393  -12.5489  H     
42   H        30.1817   -5.6805  -14.4087  H     
43   H        28.6884   -5.1385  -15.1381  H     
44   H        29.5822   -4.4518  -12.2962  H     
45   H        29.9111   -3.4637  -13.7153  H     
46   H        27.0888   -3.8203  -13.8018  H     
47   H        27.4527   -3.6136  -12.0772  H     
48   H        27.2391   -1.6410  -12.7626  H     
49   H        28.1939  -12.8036  -14.1977  H     
50   H        28.7090  -12.0720  -12.6660  H     
51   H        28.0892  -10.6268  -15.2914  H     
52   H        29.6573  -10.7774  -14.4891  H     
53   H        26.5447   -8.4337  -12.5360  H     
54   H        26.1581   -9.3102  -13.9837  H     
55   H        25.9561  -11.7252  -13.9964  H     
56   H        26.3225  -12.6765  -12.5813  H     
57   H        26.9784   -8.7795  -10.7010  H     
58   H        25.9292  -10.2515   -8.3993  H     
59   H        26.1952   -7.2378   -8.8019  H     
60   H        24.7612   -8.1150   -9.3481  H     
61   H        25.4900   -7.1879   -6.7547  H     
62   H        24.0141   -7.5465   -7.4436  H     
63   H        27.9319   -8.3176   -7.6108  H     
64   H        27.8909  -10.0166   -7.2815  H     
65   H        29.0956   -8.8568   -9.8330  H     
66   H        30.3499   -7.9871   -7.8836  H     
67   H        30.5407   -9.6229   -7.2488  H     
68   H        29.4489  -11.6229   -8.5301  H     
69   H        28.5201  -11.3112   -9.9989  H     
70   H        30.7835  -12.2041  -10.5219  H     
71   H        30.5441  -10.5867  -11.1972  H     
72   H        32.1335  -11.3098   -8.6822  H     
73   H        32.7754  -10.6848  -10.2111  H     
74   H        31.7124   -8.5123   -9.8582  H     
75   H        32.6060   -8.9249   -8.3953  H     
76   H        27.7249   -7.1257  -15.7527  H     
77   H        24.2984   -9.8874   -6.9196  H     
78   H        24.2048   -8.8042   -5.5170  H     
79   H        25.7757   -9.4231   -6.0282  H     
@<TRIPOS>BOND
     1    1    2 1
     2    1    6 2
     3    1    7 1
     4    2    3 2
     5    3    4 1
     6    3   33 1
     7    4    5 2
     8    5    6 1
     9    7    8 1
    10    7    9 1
    11    7   32 1
    12    8   15 1
    13    8   16 1
    14    9   10 1
    15   10   11 1
    16   11   12 1
    17   12   13 1
    18   14   15 1
    19   14   18 1
    20   16   17 1
    21   17   18 1
    22   17   19 1
    23   19   20 2
    24   19   21 am
    25   21   22 1
    26   22   23 1
    27   22   25 1
    28   23   24 1
    29   24   34 1
    30   25   26 1
    31   26   27 1
    32   26   28 1
    33   27   31 1
    34   28   29 1
    35   29   30 1
    36   30   31 1
    37    2   35 1
    38    4   36 1
    39    5   37 1
    40    6   38 1
    41    8   39 1
    42    9   40 1
    43    9   41 1
    44   10   42 1
    45   10   43 1
    46   11   44 1
    47   11   45 1
    48   12   46 1
    49   12   47 1
    50   13   48 1
    51   14   49 1
    52   14   50 1
    53   15   51 1
    54   15   52 1
    55   16   53 1
    56   16   54 1
    57   18   55 1
    58   18   56 1
    59   21   57 1
    60   22   58 1
    61   23   59 1
    62   23   60 1
    63   24   61 1
    64   24   62 1
    65   25   63 1
    66   25   64 1
    67   26   65 1
    68   27   66 1
    69   27   67 1
    70   28   68 1
    71   28   69 1
    72   29   70 1
    73   29   71 1
    74   30   72 1
    75   30   73 1
    76   31   74 1
    77   31   75 1
    78   32   76 1
    79   34   77 1
    80   34   78 1
    81   34   79 1
@<TRIPOS>PROPERTY_DATA
  Total_Score	| 13.4747
  Crash		| -1.6492
  Polar		| 6.9625
  FragIndex	| 1
  FragRMSD	| 0.165

