@<TRIPOS>MOLECULE
BindingDB_50305448
 87 89 0 0 0
SMALL
NO_CHARGES


@<TRIPOS>ATOM
1    C        29.0740   -5.8509  -13.0751  C     
2    C        29.3249   -4.3215  -13.2774  C     
3    N        28.2841   -3.4060  -12.9097  N     
4    C        28.4412   -6.6029  -14.2747  C     
5    C        28.8826   -8.0739  -14.5833  C     
6    C        30.9435   -7.6795  -16.0548  C     
7    C        32.3304   -7.6873  -16.2899  C     
8    C        33.2111   -8.0770  -15.2690  C     
9    C        32.7118   -8.4347  -14.0096  C     
10   C        31.3201   -8.4512  -13.7985  C     
11   C        30.3882   -8.0962  -14.8159  C     
12   C        28.3665   -9.2077  -13.6008  C     
13   C        26.8185   -9.2474  -13.3596  C     
14   N        26.4596  -10.3801  -12.5282  N     
15   C        26.6861  -11.6659  -13.1732  C     
16   C        28.2264  -11.8277  -13.2849  C     
17   C        28.8619  -10.6351  -14.0498  C     
18   C        26.1975  -10.3016  -11.2126  C     
19   O        25.9061  -11.3307  -10.6139  O     
20   N        26.3845   -9.1913  -10.5056  N     
21   C        26.3456   -9.0667   -9.0655  C     
22   C        25.4294   -7.8682   -8.6797  C     
23   C        27.8204   -9.0586   -8.5203  C     
24   C        28.6521   -7.7139   -8.5308  C     
25   C        29.6030   -7.6007   -7.2952  C     
26   C        30.7920   -8.5991   -7.3771  C     
27   C        31.6240   -8.3997   -8.6904  C     
28   C        30.7275   -8.3875   -9.9628  C     
29   C        29.4916   -7.4497   -9.8272  C     
30   N        24.9291   -7.8700   -7.2728  N     
31   C        24.8414   -9.1800   -6.5863  C     
32   O        28.2280   -8.3428  -15.8372  O     
33   Cl       33.7680   -8.8440  -12.7487  Cl    
34   C        27.1008   -3.2282  -13.4871  C     
35   N        26.3325   -2.1538  -13.2218  N     
36   O        26.7285   -4.0588  -14.3090  O     
37   C        25.0590   -2.0077  -13.8956  C     
38   C        26.7850   -1.1325  -12.2920  C     
39   H        30.0320   -6.3217  -12.8448  H     
40   H        28.4438   -6.0023  -12.2109  H     
41   H        30.1877   -4.0543  -12.6664  H     
42   H        29.6011   -4.1093  -14.3146  H     
43   H        28.5420   -2.7526  -12.2435  H     
44   H        27.3667   -6.6107  -14.0947  H     
45   H        28.5797   -6.0123  -15.1844  H     
46   H        30.3381   -7.3511  -16.8067  H     
47   H        32.6969   -7.4195  -17.2042  H     
48   H        34.2188   -8.0936  -15.4460  H     
49   H        30.9920   -8.7155  -12.8734  H     
50   H        28.7715   -9.0189  -12.6031  H     
51   H        26.4865   -8.3097  -12.9060  H     
52   H        26.3048   -9.2988  -14.3284  H     
53   H        26.2817  -12.5330  -12.6331  H     
54   H        26.2154  -11.6968  -14.1750  H     
55   H        28.6544  -11.8797  -12.2818  H     
56   H        28.4602  -12.7584  -13.8035  H     
57   H        28.6330  -10.7807  -15.1100  H     
58   H        29.9484  -10.6990  -13.9476  H     
59   H        26.6133   -8.4089  -11.0244  H     
60   H        25.8752   -9.9679   -8.6597  H     
61   H        25.9956   -6.9491   -8.8209  H     
62   H        24.5472   -7.8552   -9.3529  H     
63   H        27.7538   -9.4059   -7.4753  H     
64   H        28.4174   -9.8373   -9.0352  H     
65   H        27.9484   -6.8799   -8.4603  H     
66   H        29.9929   -6.5650   -7.1980  H     
67   H        29.0291   -7.8170   -6.3768  H     
68   H        31.4530   -8.4429   -6.5072  H     
69   H        30.4100   -9.6346   -7.3573  H     
70   H        32.1650   -7.4414   -8.6275  H     
71   H        32.3463   -9.2212   -8.7841  H     
72   H        31.3506   -8.0268  -10.7979  H     
73   H        30.3869   -9.4104  -10.1966  H     
74   H        28.8364   -7.5617  -10.7031  H     
75   H        29.8454   -6.4010   -9.7990  H     
76   H        25.5080   -7.2237   -6.7132  H     
77   H        23.9827   -7.4675   -7.3327  H     
78   H        24.3752   -9.9346   -7.2309  H     
79   H        24.2264   -9.0532   -5.6822  H     
80   H        25.8382   -9.5193   -6.2836  H     
81   H        27.5549   -7.6437  -15.9666  H     
82   H        25.1949   -2.0430  -14.9873  H     
83   H        24.5444   -1.0661  -13.6649  H     
84   H        24.3912   -2.8323  -13.6071  H     
85   H        26.8867   -1.5718  -11.2908  H     
86   H        26.0930   -0.2839  -12.2155  H     
87   H        27.7561   -0.7321  -12.6143  H     
@<TRIPOS>BOND
     1    1    2 1
     2    1    4 1
     3    2    3 1
     4    3   34 am
     5    4    5 1
     6    5   11 1
     7    5   12 1
     8    5   32 1
     9    6    7 2
    10    6   11 1
    11    7    8 1
    12    8    9 2
    13    9   10 1
    14    9   33 1
    15   10   11 2
    16   12   13 1
    17   12   17 1
    18   13   14 1
    19   14   15 1
    20   14   18 1
    21   15   16 1
    22   16   17 1
    23   18   19 2
    24   18   20 am
    25   20   21 1
    26   21   22 1
    27   21   23 1
    28   22   30 1
    29   23   24 1
    30   24   25 1
    31   24   29 1
    32   25   26 1
    33   26   27 1
    34   27   28 1
    35   28   29 1
    36   30   31 1
    37   34   35 am
    38   34   36 2
    39   35   37 1
    40   35   38 1
    41    1   39 1
    42    1   40 1
    43    2   41 1
    44    2   42 1
    45    3   43 1
    46    4   44 1
    47    4   45 1
    48    6   46 1
    49    7   47 1
    50    8   48 1
    51   10   49 1
    52   12   50 1
    53   13   51 1
    54   13   52 1
    55   15   53 1
    56   15   54 1
    57   16   55 1
    58   16   56 1
    59   17   57 1
    60   17   58 1
    61   20   59 1
    62   21   60 1
    63   22   61 1
    64   22   62 1
    65   23   63 1
    66   23   64 1
    67   24   65 1
    68   25   66 1
    69   25   67 1
    70   26   68 1
    71   26   69 1
    72   27   70 1
    73   27   71 1
    74   28   72 1
    75   28   73 1
    76   29   74 1
    77   29   75 1
    78   30   76 1
    79   30   77 1
    80   31   78 1
    81   31   79 1
    82   31   80 1
    83   32   81 1
    84   37   82 1
    85   37   83 1
    86   37   84 1
    87   38   85 1
    88   38   86 1
    89   38   87 1
@<TRIPOS>PROPERTY_DATA
  Total_Score	| 12.8903
  Crash		| -3.8315
  Polar		| 6.7871
  FragIndex	| 1
  FragRMSD	| 0.819

