@<TRIPOS>MOLECULE
BindingDB_50305442
 85 87 0 0 0
SMALL
NO_CHARGES


@<TRIPOS>ATOM
1    C        29.2051   -6.2899  -12.6784  C     
2    C        29.4272   -4.7779  -12.4455  C     
3    N        28.1996   -4.0312  -12.4425  N     
4    C        28.6756   -6.6573  -14.0945  C     
5    C        28.9616   -8.1282  -14.5958  C     
6    C        31.0284   -7.8872  -16.0899  C     
7    C        32.4211   -7.9175  -16.3024  C     
8    C        33.2894   -8.2649  -15.2533  C     
9    C        32.7578   -8.5900  -13.9949  C     
10   C        31.3659   -8.5820  -13.7935  C     
11   C        30.4618   -8.2397  -14.8320  C     
12   C        28.3636   -9.2892  -13.6956  C     
13   C        26.8494   -9.1594  -13.3000  C     
14   N        26.4790  -10.2815  -12.4348  N     
15   C        26.5395  -11.5780  -13.0976  C     
16   C        28.0133  -11.8593  -13.4832  C     
17   C        28.5968  -10.7019  -14.3363  C     
18   C        26.3366  -10.1841  -11.0952  C     
19   O        26.1903  -11.1981  -10.4135  O     
20   N        26.3917   -9.0226  -10.4459  N     
21   C        26.4826   -8.7865   -9.0234  C     
22   C        25.0841   -8.2984   -8.5542  C     
23   C        27.6496   -7.7711   -8.7596  C     
24   C        28.7982   -8.2170   -7.7924  C     
25   C        29.4075   -9.6328   -8.0435  C     
26   C        30.3055   -9.6999   -9.3036  C     
27   C        31.4518   -8.6588   -9.2384  C     
28   C        30.9085   -7.2261   -8.9928  C     
29   C        29.9623   -7.1623   -7.7596  C     
30   N        24.9212   -8.0909   -7.0967  N     
31   C        25.3370   -9.1990   -6.2077  C     
32   O        28.2883   -8.2523  -15.8644  O     
33   Cl       33.7922   -8.9411  -12.7020  Cl    
34   C        28.0146   -2.7898  -12.8865  C     
35   C        26.7336   -2.1345  -12.6954  C     
36   O        28.9333   -2.1541  -13.3929  O     
37   C        25.5787   -2.8254  -13.4552  C     
38   H        30.1646   -6.7706  -12.5031  H     
39   H        28.5031   -6.6609  -11.9382  H     
40   H        29.8845   -4.6512  -11.4621  H     
41   H        30.1350   -4.4026  -13.1945  H     
42   H        27.4404   -4.4685  -12.0134  H     
43   H        27.5953   -6.4666  -14.1020  H     
44   H        29.1016   -5.9490  -14.8247  H     
45   H        30.4356   -7.5936  -16.8765  H     
46   H        32.8097   -7.6650  -17.2176  H     
47   H        34.3023   -8.2696  -15.4070  H     
48   H        31.0135   -8.8255  -12.8676  H     
49   H        28.9016   -9.2680  -12.7471  H     
50   H        26.6763   -8.1885  -12.8318  H     
51   H        26.2332   -9.1729  -14.2042  H     
52   H        26.1781  -12.4097  -12.4906  H     
53   H        25.9114  -11.5689  -13.9916  H     
54   H        28.6152  -11.9755  -12.5738  H     
55   H        28.0700  -12.8001  -14.0422  H     
56   H        28.1260  -10.7382  -15.3203  H     
57   H        29.6639  -10.8951  -14.4722  H     
58   H        26.4143   -8.2219  -10.9885  H     
59   H        26.6824   -9.7191   -8.4841  H     
60   H        24.8622   -7.3469   -9.0427  H     
61   H        24.3197   -9.0197   -8.8758  H     
62   H        28.1091   -7.4958   -9.7106  H     
63   H        27.2246   -6.8494   -8.3566  H     
64   H        28.3583   -8.2289   -6.7909  H     
65   H        30.0219   -9.9010   -7.1821  H     
66   H        28.6303  -10.3881   -8.1339  H     
67   H        30.7377  -10.7024   -9.3894  H     
68   H        29.6998   -9.5201  -10.1977  H     
69   H        32.1458   -8.9316   -8.4344  H     
70   H        32.0109   -8.6745  -10.1796  H     
71   H        31.7541   -6.5518   -8.8426  H     
72   H        30.3772   -6.8859   -9.8806  H     
73   H        29.5569   -6.1449   -7.6748  H     
74   H        30.5637   -7.3364   -6.8560  H     
75   H        25.3983   -7.2349   -6.8082  H     
76   H        23.9179   -7.9427   -6.9592  H     
77   H        24.9760  -10.1642   -6.5790  H     
78   H        24.9156   -9.0301   -5.2132  H     
79   H        26.4210   -9.2203   -6.1207  H     
80   H        27.5542   -7.5943  -15.8791  H     
81   H        26.5094   -2.1235  -11.6306  H     
82   H        26.7786   -1.0986  -13.0332  H     
83   H        25.7765   -2.8317  -14.5327  H     
84   H        24.6465   -2.2806  -13.2798  H     
85   H        25.4453   -3.8567  -13.1127  H     
@<TRIPOS>BOND
     1    1    2 1
     2    1    4 1
     3    2    3 1
     4    3   34 am
     5    4    5 1
     6    5   11 1
     7    5   12 1
     8    5   32 1
     9    6    7 2
    10    6   11 1
    11    7    8 1
    12    8    9 2
    13    9   10 1
    14    9   33 1
    15   10   11 2
    16   12   13 1
    17   12   17 1
    18   13   14 1
    19   14   15 1
    20   14   18 1
    21   15   16 1
    22   16   17 1
    23   18   19 2
    24   18   20 am
    25   20   21 1
    26   21   22 1
    27   21   23 1
    28   22   30 1
    29   23   24 1
    30   24   25 1
    31   24   29 1
    32   25   26 1
    33   26   27 1
    34   27   28 1
    35   28   29 1
    36   30   31 1
    37   34   35 1
    38   34   36 2
    39   35   37 1
    40    1   38 1
    41    1   39 1
    42    2   40 1
    43    2   41 1
    44    3   42 1
    45    4   43 1
    46    4   44 1
    47    6   45 1
    48    7   46 1
    49    8   47 1
    50   10   48 1
    51   12   49 1
    52   13   50 1
    53   13   51 1
    54   15   52 1
    55   15   53 1
    56   16   54 1
    57   16   55 1
    58   17   56 1
    59   17   57 1
    60   20   58 1
    61   21   59 1
    62   22   60 1
    63   22   61 1
    64   23   62 1
    65   23   63 1
    66   24   64 1
    67   25   65 1
    68   25   66 1
    69   26   67 1
    70   26   68 1
    71   27   69 1
    72   27   70 1
    73   28   71 1
    74   28   72 1
    75   29   73 1
    76   29   74 1
    77   30   75 1
    78   30   76 1
    79   31   77 1
    80   31   78 1
    81   31   79 1
    82   32   80 1
    83   35   81 1
    84   35   82 1
    85   37   83 1
    86   37   84 1
    87   37   85 1
@<TRIPOS>PROPERTY_DATA
  Total_Score	| 14.3476
  Crash		| -1.8757
  Polar		| 7.1361
  FragIndex	| 1
  FragRMSD	| 0.577

