@<TRIPOS>MOLECULE
BindingDB_50305449
 82 84 0 0 0
SMALL
NO_CHARGES


@<TRIPOS>ATOM
1    C        29.2428   -5.6749  -13.1889  C     
2    C        28.5862   -4.3330  -12.7749  C     
3    N        27.8393   -3.7133  -13.8330  N     
4    C        28.4272   -6.4736  -14.2755  C     
5    C        28.8527   -7.9461  -14.6264  C     
6    C        30.9335   -7.6254  -16.0945  C     
7    C        32.3288   -7.6905  -16.3097  C     
8    C        33.1849   -8.0706  -15.2590  C     
9    C        32.6456   -8.3868  -13.9957  C     
10   C        31.2495   -8.3276  -13.7985  C     
11   C        30.3499   -7.9862  -14.8494  C     
12   C        28.3162   -9.0899  -13.6591  C     
13   C        26.7835   -9.0212  -13.3220  C     
14   N        26.4057  -10.1575  -12.4802  N     
15   C        26.5349  -11.4497  -13.1326  C     
16   C        28.0433  -11.6974  -13.4040  C     
17   C        28.6516  -10.5214  -14.2171  C     
18   C        26.2861  -10.0782  -11.1386  C     
19   O        25.9849  -11.0786  -10.4803  O     
20   N        26.4267   -8.9317  -10.4632  N     
21   C        26.4335   -8.7652   -9.0308  C     
22   C        25.0474   -8.2157   -8.5942  C     
23   C        27.6010   -7.8361   -8.5542  C     
24   C        29.0561   -8.2821   -8.8775  C     
25   C        30.0380   -7.0556   -8.8234  C     
26   C        31.5042   -7.4535   -9.1101  C     
27   C        31.9943   -8.5757   -8.1546  C     
28   C        31.0423   -9.8120   -8.2311  C     
29   C        29.5794   -9.4270   -7.9465  C     
30   N        24.8200   -8.0327   -7.1399  N     
31   C        25.1082   -9.1773   -6.2430  C     
32   O        28.2155   -8.2099  -15.8799  O     
33   Cl       33.6756   -8.8289  -12.7149  Cl    
34   S        26.4638   -2.7661  -13.5991  S     
35   N        26.6885   -1.5374  -12.4778  N     
36   O        26.0687   -2.1043  -14.9951  O     
37   O        25.2425   -3.6994  -13.1991  O     
38   H        30.2379   -5.4485  -13.6018  H     
39   H        29.3749   -6.2775  -12.2792  H     
40   H        27.9341   -4.4818  -11.8988  H     
41   H        29.3613   -3.6159  -12.4747  H     
42   H        28.1319   -3.8561  -14.7482  H     
43   H        27.3704   -6.4606  -13.9856  H     
44   H        28.5088   -5.8780  -15.2138  H     
45   H        30.3476   -7.3367  -16.8867  H     
46   H        32.7296   -7.4240  -17.2189  H     
47   H        34.1941   -8.1367  -15.4252  H     
48   H        30.9028   -8.5473  -12.8656  H     
49   H        28.8281   -8.9692  -12.6973  H     
50   H        26.5331   -8.0558  -12.8842  H     
51   H        26.2009   -9.0813  -14.2439  H     
52   H        26.1546  -12.2813  -12.5339  H     
53   H        25.9669  -11.4623  -14.0677  H     
54   H        28.5816  -11.7919  -12.4566  H     
55   H        28.1564  -12.6315  -13.9603  H     
56   H        28.2665  -10.6001  -15.2369  H     
57   H        29.7325  -10.6688  -14.2384  H     
58   H        26.5871   -8.1147  -10.9634  H     
59   H        26.5834   -9.7182   -8.5220  H     
60   H        24.8864   -7.2437   -9.0683  H     
61   H        24.2614   -8.8868   -8.9757  H     
62   H        27.4507   -6.8526   -9.0110  H     
63   H        27.5121   -7.7159   -7.4637  H     
64   H        29.0668   -8.6591   -9.9134  H     
65   H        29.7246   -6.2977   -9.5535  H     
66   H        29.9744   -6.5973   -7.8181  H     
67   H        31.6158   -7.7749  -10.1613  H     
68   H        32.1584   -6.5817   -8.9667  H     
69   H        32.9899   -8.8843   -8.4457  H     
70   H        32.0224   -8.1992   -7.1195  H     
71   H        31.1370  -10.2505   -9.2416  H     
72   H        31.3844  -10.5570   -7.4996  H     
73   H        29.4633   -9.1363   -6.8877  H     
74   H        28.9555  -10.3222   -8.0918  H     
75   H        25.3149   -7.1955   -6.8112  H     
76   H        23.8248   -7.8328   -7.0521  H     
77   H        24.5766  -10.0771   -6.5816  H     
78   H        24.7537   -8.9176   -5.2451  H     
79   H        26.1793   -9.3826   -6.1932  H     
80   H        27.4854   -7.5618  -15.9572  H     
81   H        26.0559   -1.4406  -11.7469  H     
82   H        27.5242   -1.0361  -12.4622  H     
@<TRIPOS>BOND
     1    1    2 1
     2    1    4 1
     3    2    3 1
     4    3   34 1
     5    4    5 1
     6    5   11 1
     7    5   12 1
     8    5   32 1
     9    6    7 2
    10    6   11 1
    11    7    8 1
    12    8    9 2
    13    9   10 1
    14    9   33 1
    15   10   11 2
    16   12   13 1
    17   12   17 1
    18   13   14 1
    19   14   15 1
    20   14   18 1
    21   15   16 1
    22   16   17 1
    23   18   19 2
    24   18   20 am
    25   20   21 1
    26   21   22 1
    27   21   23 1
    28   22   30 1
    29   23   24 1
    30   24   25 1
    31   24   29 1
    32   25   26 1
    33   26   27 1
    34   27   28 1
    35   28   29 1
    36   30   31 1
    37   34   35 am
    38   34   36 2
    39   34   37 2
    40    1   38 1
    41    1   39 1
    42    2   40 1
    43    2   41 1
    44    3   42 1
    45    4   43 1
    46    4   44 1
    47    6   45 1
    48    7   46 1
    49    8   47 1
    50   10   48 1
    51   12   49 1
    52   13   50 1
    53   13   51 1
    54   15   52 1
    55   15   53 1
    56   16   54 1
    57   16   55 1
    58   17   56 1
    59   17   57 1
    60   20   58 1
    61   21   59 1
    62   22   60 1
    63   22   61 1
    64   23   62 1
    65   23   63 1
    66   24   64 1
    67   25   65 1
    68   25   66 1
    69   26   67 1
    70   26   68 1
    71   27   69 1
    72   27   70 1
    73   28   71 1
    74   28   72 1
    75   29   73 1
    76   29   74 1
    77   30   75 1
    78   30   76 1
    79   31   77 1
    80   31   78 1
    81   31   79 1
    82   32   80 1
    83   35   81 1
    84   35   82 1
@<TRIPOS>PROPERTY_DATA
  Total_Score	| 14.1303
  Crash		| -2.2150
  Polar		| 7.5847
  FragIndex	| 1
  FragRMSD	| 0.347

