@<TRIPOS>MOLECULE
BindingDB_50305444
 86 89 0 0 0
SMALL
NO_CHARGES


@<TRIPOS>ATOM
1    C        29.3356   -5.6012  -14.0284  C     
2    C        29.4596   -4.5912  -12.8604  C     
3    N        28.1846   -4.0338  -12.5361  N     
4    C        28.4815   -6.8646  -13.6770  C     
5    C        28.8056   -8.1867  -14.4580  C     
6    C        30.8598   -8.0631  -16.0062  C     
7    C        32.2523   -8.0719  -16.2040  C     
8    C        33.1217   -8.2891  -15.1203  C     
9    C        32.5936   -8.4994  -13.8328  C     
10   C        31.1991   -8.4836  -13.6400  C     
11   C        30.2964   -8.2535  -14.7148  C     
12   C        28.3199   -9.4917  -13.6938  C     
13   C        26.8127   -9.5103  -13.2692  C     
14   N        26.5372  -10.7084  -12.4808  N     
15   C        26.6990  -11.9510  -13.2259  C     
16   C        28.1673  -12.0750  -13.6996  C     
17   C        28.6179  -10.8154  -14.4833  C     
18   C        26.2798  -10.7000  -11.1538  C     
19   O        26.1709  -11.7642  -10.5411  O     
20   N        26.2219   -9.5808  -10.4363  N     
21   C        26.0964   -9.4326   -9.0132  C     
22   C        25.3140   -8.1079   -8.7047  C     
23   C        27.4877   -9.5561   -8.2996  C     
24   C        28.7585   -8.9288   -8.9834  C     
25   C        28.5568   -7.5298   -9.6488  C     
26   C        28.4202   -6.3738   -8.6185  C     
27   C        29.6509   -6.3279   -7.6730  C     
28   C        29.8957   -7.6928   -6.9747  C     
29   C        29.9779   -8.8607   -8.0054  C     
30   N        24.8621   -7.8916   -7.3121  N     
31   C        24.7490   -9.0720   -6.4229  C     
32   O        28.0472   -8.1387  -15.6780  O     
33   Cl       33.6247   -8.7591  -12.5155  Cl    
34   C        27.7811   -2.8076  -12.8245  C     
35   C        26.4202   -2.4180  -12.5423  C     
36   O        28.5172   -1.9690  -13.3287  O     
37   C        25.5833   -2.0217  -13.7732  C     
38   C        25.2397   -3.2946  -12.9929  C     
39   H        28.9032   -5.1008  -14.8983  H     
40   H        30.3523   -5.8918  -14.2918  H     
41   H        29.8475   -5.0894  -11.9699  H     
42   H        30.1916   -3.8243  -13.1428  H     
43   H        27.5468   -4.6216  -12.0949  H     
44   H        28.5964   -7.0632  -12.6118  H     
45   H        27.4393   -6.5828  -13.8329  H     
46   H        30.2659   -7.8873  -16.8163  H     
47   H        32.6434   -7.9065  -17.1381  H     
48   H        34.1372   -8.2954  -15.2708  H     
49   H        30.8446   -8.6090  -12.6924  H     
50   H        28.8829   -9.5482  -12.7583  H     
51   H        26.5659   -8.5984  -12.7308  H     
52   H        26.1755   -9.5078  -14.1594  H     
53   H        26.4512  -12.8498  -12.6513  H     
54   H        26.0291  -11.9472  -14.0932  H     
55   H        28.8175  -12.2092  -12.8273  H     
56   H        28.2748  -12.9592  -14.3372  H     
57   H        28.0965  -10.7929  -15.4445  H     
58   H        29.6844  -10.9158  -14.6843  H     
59   H        26.3346   -8.7537  -10.9292  H     
60   H        25.4558  -10.2400   -8.6418  H     
61   H        25.9428   -7.2584   -8.9828  H     
62   H        24.4329   -8.0797   -9.3541  H     
63   H        27.4094   -9.1704   -7.2807  H     
64   H        27.6893  -10.6275   -8.1964  H     
65   H        29.0429   -9.6238   -9.7830  H     
66   H        29.4417   -7.3236  -10.2643  H     
67   H        27.6841   -7.5282  -10.3006  H     
68   H        28.3372   -5.4235   -9.1583  H     
69   H        27.5074   -6.5153   -8.0286  H     
70   H        30.5402   -6.0496   -8.2557  H     
71   H        29.4821   -5.5553   -6.9140  H     
72   H        30.8343   -7.6472   -6.4135  H     
73   H        29.0825   -7.8829   -6.2633  H     
74   H        30.0863   -9.8084   -7.4639  H     
75   H        30.8882   -8.7247   -8.6025  H     
76   H        25.4756   -7.1977   -6.8613  H     
77   H        23.9244   -7.4777   -7.3814  H     
78   H        24.1980   -9.8820   -6.9167  H     
79   H        24.2211   -8.7831   -5.5135  H     
80   H        25.7507   -9.4209   -6.1426  H     
81   H        27.7793   -7.2031  -15.7996  H     
82   H        26.2625   -1.7491  -11.6924  H     
83   H        24.8806   -1.1974  -13.6317  H     
84   H        26.0039   -2.2007  -14.7649  H     
85   H        25.4795   -4.2329  -13.4972  H     
86   H        24.3423   -3.2336  -12.3748  H     
@<TRIPOS>BOND
     1    1    2 1
     2    1    4 1
     3    2    3 1
     4    3   34 am
     5    4    5 1
     6    5   11 1
     7    5   12 1
     8    5   32 1
     9    6    7 2
    10    6   11 1
    11    7    8 1
    12    8    9 2
    13    9   10 1
    14    9   33 1
    15   10   11 2
    16   12   13 1
    17   12   17 1
    18   13   14 1
    19   14   15 1
    20   14   18 1
    21   15   16 1
    22   16   17 1
    23   18   19 2
    24   18   20 am
    25   20   21 1
    26   21   22 1
    27   21   23 1
    28   22   30 1
    29   23   24 1
    30   24   25 1
    31   24   29 1
    32   25   26 1
    33   26   27 1
    34   27   28 1
    35   28   29 1
    36   30   31 1
    37   34   35 1
    38   34   36 2
    39   35   37 1
    40   35   38 1
    41   37   38 1
    42    1   39 1
    43    1   40 1
    44    2   41 1
    45    2   42 1
    46    3   43 1
    47    4   44 1
    48    4   45 1
    49    6   46 1
    50    7   47 1
    51    8   48 1
    52   10   49 1
    53   12   50 1
    54   13   51 1
    55   13   52 1
    56   15   53 1
    57   15   54 1
    58   16   55 1
    59   16   56 1
    60   17   57 1
    61   17   58 1
    62   20   59 1
    63   21   60 1
    64   22   61 1
    65   22   62 1
    66   23   63 1
    67   23   64 1
    68   24   65 1
    69   25   66 1
    70   25   67 1
    71   26   68 1
    72   26   69 1
    73   27   70 1
    74   27   71 1
    75   28   72 1
    76   28   73 1
    77   29   74 1
    78   29   75 1
    79   30   76 1
    80   30   77 1
    81   31   78 1
    82   31   79 1
    83   31   80 1
    84   32   81 1
    85   35   82 1
    86   37   83 1
    87   37   84 1
    88   38   85 1
    89   38   86 1
@<TRIPOS>PROPERTY_DATA
  Total_Score	| 16.1283
  Crash		| -2.9215
  Polar		| 7.5915
  FragIndex	| 1
  FragRMSD	| 0.338

