@<TRIPOS>MOLECULE
BindingDB_50305441
 82 84 0 0 0
SMALL
NO_CHARGES


@<TRIPOS>ATOM
1    C        29.0057   -5.3891  -14.2427  C     
2    C        28.6594   -4.1438  -13.3903  C     
3    N        27.2524   -3.9007  -13.3658  N     
4    C        28.3266   -6.7033  -13.7438  C     
5    C        28.7522   -8.0524  -14.4324  C     
6    C        30.8482   -7.8086  -15.8990  C     
7    C        32.2465   -7.8284  -16.0715  C     
8    C        33.0887   -8.1175  -14.9847  C     
9    C        32.5279   -8.3789  -13.7164  C     
10   C        31.1342   -8.3244  -13.5476  C     
11   C        30.2537   -8.0670  -14.6308  C     
12   C        28.2667   -9.3235  -13.6060  C     
13   C        26.7344   -9.3459  -13.2626  C     
14   N        26.4752  -10.4699  -12.3732  N     
15   C        26.6438  -11.7647  -13.0189  C     
16   C        28.1221  -11.9204  -13.4670  C     
17   C        28.6112  -10.6922  -14.2918  C     
18   C        26.3639  -10.3305  -11.0373  C     
19   O        26.3006  -11.3263  -10.3238  O     
20   N        26.3557   -9.1397  -10.4319  N     
21   C        26.4078   -8.8441   -9.0303  C     
22   C        25.0094   -8.3106   -8.5936  C     
23   C        27.5347   -7.7963   -8.7764  C     
24   C        28.9981   -8.2683   -9.0678  C     
25   C        29.9789   -7.0530   -8.9759  C     
26   C        31.4619   -7.4536   -9.1761  C     
27   C        31.8816   -8.5768   -8.1928  C     
28   C        30.9463   -9.8049   -8.3156  C     
29   C        29.4601   -9.4152   -8.1109  C     
30   N        24.8103   -8.0604   -7.1458  N     
31   C        25.2041   -9.1291   -6.2068  C     
32   O        28.0436   -8.1460  -15.6826  O     
33   Cl       33.5408   -8.7623  -12.4144  Cl    
34   C        26.6270   -2.7325  -13.4722  C     
35   C        25.1874   -2.7078  -13.4237  C     
36   O        27.2417   -1.6788  -13.5849  O     
37   H        28.7193   -5.1940  -15.2776  H     
38   H        30.0910   -5.5084  -14.2137  H     
39   H        28.9945   -4.3048  -12.3657  H     
40   H        29.2145   -3.2887  -13.7863  H     
41   H        26.6795   -4.6705  -13.2157  H     
42   H        28.4810   -6.7839  -12.6669  H     
43   H        27.2538   -6.5633  -13.9161  H     
44   H        30.2681   -7.5791  -16.7118  H     
45   H        32.6564   -7.6177  -16.9907  H     
46   H        34.1055   -8.1419  -15.1232  H     
47   H        30.7643   -8.4699  -12.6086  H     
48   H        28.7871   -9.3077  -12.6435  H     
49   H        26.4260   -8.4007  -12.8211  H     
50   H        26.1381   -9.4446  -14.1793  H     
51   H        26.3811  -12.6113  -12.3829  H     
52   H        25.9872  -11.8308  -13.8926  H     
53   H        28.7522  -12.0303  -12.5802  H     
54   H        28.2304  -12.8268  -14.0672  H     
55   H        28.1441  -10.7258  -15.2804  H     
56   H        29.6908  -10.7860  -14.4281  H     
57   H        26.3393   -8.3593  -11.0017  H     
58   H        26.6174   -9.7421   -8.4460  H     
59   H        24.8037   -7.3668   -9.1051  H     
60   H        24.2424   -9.0238   -8.9140  H     
61   H        27.3143   -6.9208   -9.3966  H     
62   H        27.4930   -7.4669   -7.7380  H     
63   H        29.0440   -8.6449  -10.0929  H     
64   H        29.7176   -6.3154   -9.7415  H     
65   H        29.8769   -6.5682   -8.0005  H     
66   H        31.6120   -7.7979  -10.2018  H     
67   H        32.1005   -6.5798   -9.0239  H     
68   H        32.9097   -8.8758   -8.4084  H     
69   H        31.8526   -8.2013   -7.1649  H     
70   H        31.0705  -10.2564   -9.3045  H     
71   H        31.2322  -10.5500   -7.5689  H     
72   H        29.3183   -9.1070   -7.0719  H     
73   H        28.8598  -10.3096   -8.2783  H     
74   H        25.2949   -7.1982   -6.8726  H     
75   H        23.8123   -7.9014   -7.0241  H     
76   H        24.7739  -10.0885   -6.5041  H     
77   H        24.8371   -8.8696   -5.2172  H     
78   H        26.2948   -9.2150   -6.1576  H     
79   H        27.7351   -7.2434  -15.9213  H     
80   H        24.7803   -3.2202  -14.2980  H     
81   H        24.8003   -1.6823  -13.4142  H     
82   H        24.8319   -3.2175  -12.5238  H     
@<TRIPOS>BOND
     1    1    2 1
     2    1    4 1
     3    2    3 1
     4    3   34 am
     5    4    5 1
     6    5   11 1
     7    5   12 1
     8    5   32 1
     9    6    7 2
    10    6   11 1
    11    7    8 1
    12    8    9 2
    13    9   10 1
    14    9   33 1
    15   10   11 2
    16   12   13 1
    17   12   17 1
    18   13   14 1
    19   14   15 1
    20   14   18 1
    21   15   16 1
    22   16   17 1
    23   18   19 2
    24   18   20 am
    25   20   21 1
    26   21   22 1
    27   21   23 1
    28   22   30 1
    29   23   24 1
    30   24   25 1
    31   24   29 1
    32   25   26 1
    33   26   27 1
    34   27   28 1
    35   28   29 1
    36   30   31 1
    37   34   35 1
    38   34   36 2
    39    1   37 1
    40    1   38 1
    41    2   39 1
    42    2   40 1
    43    3   41 1
    44    4   42 1
    45    4   43 1
    46    6   44 1
    47    7   45 1
    48    8   46 1
    49   10   47 1
    50   12   48 1
    51   13   49 1
    52   13   50 1
    53   15   51 1
    54   15   52 1
    55   16   53 1
    56   16   54 1
    57   17   55 1
    58   17   56 1
    59   20   57 1
    60   21   58 1
    61   22   59 1
    62   22   60 1
    63   23   61 1
    64   23   62 1
    65   24   63 1
    66   25   64 1
    67   25   65 1
    68   26   66 1
    69   26   67 1
    70   27   68 1
    71   27   69 1
    72   28   70 1
    73   28   71 1
    74   29   72 1
    75   29   73 1
    76   30   74 1
    77   30   75 1
    78   31   76 1
    79   31   77 1
    80   31   78 1
    81   32   79 1
    82   35   80 1
    83   35   81 1
    84   35   82 1
@<TRIPOS>PROPERTY_DATA
  Total_Score	| 13.9172
  Crash		| -1.4678
  Polar		| 6.3742
  FragIndex	| 1
  FragRMSD	| 0.079

