@<TRIPOS>MOLECULE
BindingDB_50305443
 88 90 0 0 0
SMALL
NO_CHARGES


@<TRIPOS>ATOM
1    C        29.0746   -5.5108  -14.0967  C     
2    C        29.4157   -4.5663  -12.9085  C     
3    N        28.2890   -3.8035  -12.4716  N     
4    C        28.3408   -6.8264  -13.6829  C     
5    C        28.7160   -8.1425  -14.4576  C     
6    C        30.7768   -7.9332  -15.9750  C     
7    C        32.1679   -7.8967  -16.1676  C     
8    C        33.0353   -8.1253  -15.0862  C     
9    C        32.5072   -8.4132  -13.8137  C     
10   C        31.1121   -8.4344  -13.6285  C     
11   C        30.2105   -8.1784  -14.6954  C     
12   C        28.2665   -9.4513  -13.6710  C     
13   C        26.7526   -9.5061  -13.2592  C     
14   N        26.4991  -10.7068  -12.4672  N     
15   C        26.6920  -11.9438  -13.2046  C     
16   C        28.1790  -12.0454  -13.6336  C     
17   C        28.6040  -10.7821  -14.4357  C     
18   C        26.2959  -10.6994  -11.1323  C     
19   O        26.2948  -11.7586  -10.5063  O     
20   N        26.1344   -9.5794  -10.4300  N     
21   C        26.0477   -9.4339   -9.0032  C     
22   C        25.2939   -8.1049   -8.6877  C     
23   C        27.4446   -9.5594   -8.3028  C     
24   C        28.7032   -8.9679   -9.0355  C     
25   C        28.4971   -7.5694   -9.6914  C     
26   C        28.4198   -6.4100   -8.6651  C     
27   C        29.6851   -6.3807   -7.7709  C     
28   C        29.9219   -7.7447   -7.0714  C     
29   C        29.9565   -8.9147   -8.0949  C     
30   N        24.8550   -7.8909   -7.2906  N     
31   C        24.7613   -9.0855   -6.4187  C     
32   O        27.9705   -8.1415  -15.6780  O     
33   Cl       33.5412   -8.7492  -12.5101  Cl    
34   C        28.0726   -2.5183  -12.7142  C     
35   C        26.8547   -1.8680  -12.2737  C     
36   O        28.8786   -1.8523  -13.3637  O     
37   C        25.6196   -2.2317  -13.1325  C     
38   C        25.9604   -2.6334  -14.5844  C     
39   H        28.4716   -4.9779  -14.8268  H     
40   H        30.0200   -5.7680  -14.5843  H     
41   H        29.7909   -5.1407  -12.0612  H     
42   H        30.2380   -3.9148  -13.2197  H     
43   H        27.6068   -4.2826  -11.9665  H     
44   H        28.5286   -7.0165  -12.6274  H     
45   H        27.2771   -6.6389  -13.7748  H     
46   H        30.1845   -7.7704  -16.7881  H     
47   H        32.5570   -7.6939  -17.0926  H     
48   H        34.0542   -8.1004  -15.2322  H     
49   H        30.7521   -8.6228  -12.6899  H     
50   H        28.8274   -9.4821  -12.7315  H     
51   H        26.4903   -8.6012  -12.7214  H     
52   H        26.1188   -9.5135  -14.1540  H     
53   H        26.4365  -12.8422  -12.6358  H     
54   H        26.0504  -11.9543  -14.0933  H     
55   H        28.8069  -12.1341  -12.7385  H     
56   H        28.3309  -12.9429  -14.2450  H     
57   H        28.0989  -10.7982  -15.4071  H     
58   H        29.6780  -10.8574  -14.6179  H     
59   H        26.0651   -8.7545  -10.9376  H     
60   H        25.4098  -10.2291   -8.6086  H     
61   H        25.9329   -7.2606   -8.9696  H     
62   H        24.4003   -8.0638   -9.3238  H     
63   H        27.3793   -9.1422   -7.2937  H     
64   H        27.6346  -10.6282   -8.1737  H     
65   H        28.9521   -9.6671   -9.8414  H     
66   H        29.3521   -7.3743  -10.3446  H     
67   H        27.5978   -7.5618  -10.3062  H     
68   H        28.3332   -5.4561   -9.1962  H     
69   H        27.5318   -6.5297   -8.0397  H     
70   H        30.5600   -6.1289   -8.3845  H     
71   H        29.5659   -5.5960   -7.0175  H     
72   H        30.8740   -7.7142   -6.5321  H     
73   H        29.1311   -7.9159   -6.3351  H     
74   H        30.0705   -9.8625   -7.5501  H     
75   H        30.8533   -8.7936   -8.7193  H     
76   H        25.4813   -7.2101   -6.8345  H     
77   H        23.9207   -7.4748   -7.3442  H     
78   H        24.2143   -9.8955   -6.9226  H     
79   H        24.2304   -8.8113   -5.4981  H     
80   H        25.7697   -9.4236   -6.1588  H     
81   H        27.7538   -7.2002  -15.8476  H     
82   H        26.6595   -2.1493  -11.2357  H     
83   H        26.9730   -0.7757  -12.2868  H     
84   H        25.0621   -3.0483  -12.6628  H     
85   H        24.9558   -1.3580  -13.1688  H     
86   H        26.7626   -2.0123  -14.9923  H     
87   H        25.0804   -2.5228  -15.2246  H     
88   H        26.2839   -3.6740  -14.6107  H     
@<TRIPOS>BOND
     1    1    2 1
     2    1    4 1
     3    2    3 1
     4    3   34 am
     5    4    5 1
     6    5   11 1
     7    5   12 1
     8    5   32 1
     9    6    7 2
    10    6   11 1
    11    7    8 1
    12    8    9 2
    13    9   10 1
    14    9   33 1
    15   10   11 2
    16   12   13 1
    17   12   17 1
    18   13   14 1
    19   14   15 1
    20   14   18 1
    21   15   16 1
    22   16   17 1
    23   18   19 2
    24   18   20 am
    25   20   21 1
    26   21   22 1
    27   21   23 1
    28   22   30 1
    29   23   24 1
    30   24   25 1
    31   24   29 1
    32   25   26 1
    33   26   27 1
    34   27   28 1
    35   28   29 1
    36   30   31 1
    37   34   35 1
    38   34   36 2
    39   35   37 1
    40   37   38 1
    41    1   39 1
    42    1   40 1
    43    2   41 1
    44    2   42 1
    45    3   43 1
    46    4   44 1
    47    4   45 1
    48    6   46 1
    49    7   47 1
    50    8   48 1
    51   10   49 1
    52   12   50 1
    53   13   51 1
    54   13   52 1
    55   15   53 1
    56   15   54 1
    57   16   55 1
    58   16   56 1
    59   17   57 1
    60   17   58 1
    61   20   59 1
    62   21   60 1
    63   22   61 1
    64   22   62 1
    65   23   63 1
    66   23   64 1
    67   24   65 1
    68   25   66 1
    69   25   67 1
    70   26   68 1
    71   26   69 1
    72   27   70 1
    73   27   71 1
    74   28   72 1
    75   28   73 1
    76   29   74 1
    77   29   75 1
    78   30   76 1
    79   30   77 1
    80   31   78 1
    81   31   79 1
    82   31   80 1
    83   32   81 1
    84   35   82 1
    85   35   83 1
    86   37   84 1
    87   37   85 1
    88   38   86 1
    89   38   87 1
    90   38   88 1
@<TRIPOS>PROPERTY_DATA
  Total_Score	| 15.1310
  Crash		| -3.2154
  Polar		| 6.9546
  FragIndex	| 1
  FragRMSD	| 0.294

