@<TRIPOS>MOLECULE
BindingDB_29949
 82 84 0 0 0
SMALL
NO_CHARGES


@<TRIPOS>ATOM
1    C        30.2582   -8.0568  -14.7041  C     
2    C        31.1636   -8.3530  -13.6527  C     
3    C        32.5560   -8.3925  -13.8566  C     
4    C        33.0796   -8.1047  -15.1289  C     
5    C        32.2105   -7.8016  -16.1891  C     
6    C        30.8191   -7.7871  -15.9789  C     
7    C        28.7680   -7.9839  -14.4311  C     
8    C        28.3069   -9.2437  -13.5876  C     
9    C        28.4321   -6.6034  -13.7438  C     
10   C        29.1718   -5.3589  -14.3217  C     
11   C        29.1051   -4.0713  -13.4603  C     
12   C        27.6975   -3.4380  -13.3542  C     
13   O        27.8390   -2.0201  -13.1435  O     
14   C        27.2551  -11.4816  -14.5067  C     
15   C        28.5353  -10.6178  -14.3330  C     
16   C        26.8509   -9.1608  -13.0282  C     
17   N        26.5049  -10.4026  -12.3468  N     
18   C        26.5030  -11.6184  -13.1573  C     
19   C        26.2549  -10.4698  -11.0247  C     
20   O        25.8324  -11.5131  -10.5396  O     
21   N        26.5537   -9.4714  -10.1979  N     
22   C        26.3926   -9.3892   -8.7725  C     
23   C        25.5171   -8.1147   -8.5301  C     
24   N        24.9394   -7.9206   -7.1785  N     
25   C        27.7604   -9.3902   -7.9950  C     
26   C        29.0808   -9.5413   -8.8242  C     
27   C        30.3312   -9.0728   -8.0135  C     
28   C        29.3136  -11.0035   -9.3272  C     
29   C        30.6234  -11.1404  -10.1529  C     
30   C        31.8535  -10.6340   -9.3628  C     
31   C        31.6431   -9.1918   -8.8387  C     
32   O        28.0003   -8.0618  -15.6470  O     
33   C        24.8384   -9.1303   -6.3382  C     
34   C        26.7845   -1.4102  -12.3869  C     
35   Cl       33.5790   -8.7895  -12.5691  Cl    
36   H        30.8065   -8.5372  -12.7143  H     
37   H        34.0874   -8.1112  -15.2862  H     
38   H        32.5913   -7.5959  -17.1168  H     
39   H        30.2220   -7.5518  -16.7696  H     
40   H        28.9224   -9.2645  -12.6876  H     
41   H        27.3602   -6.4120  -13.8431  H     
42   H        28.6537   -6.6747  -12.6794  H     
43   H        30.2336   -5.5850  -14.4315  H     
44   H        28.7756   -5.1349  -15.3175  H     
45   H        29.4689   -4.2867  -12.4547  H     
46   H        29.7808   -3.3364  -13.9041  H     
47   H        27.1411   -3.5915  -14.2838  H     
48   H        27.1543   -3.9171  -12.5325  H     
49   H        26.6027  -11.0045  -15.2393  H     
50   H        27.5222  -12.4687  -14.8938  H     
51   H        28.9635  -10.4690  -15.3311  H     
52   H        29.2661  -11.2039  -13.7661  H     
53   H        26.7449   -8.2842  -12.3906  H     
54   H        26.1437   -9.0024  -13.8493  H     
55   H        25.4707  -11.9260  -13.3452  H     
56   H        27.0016  -12.4253  -12.6112  H     
57   H        26.9381   -8.6849  -10.6019  H     
58   H        25.8134  -10.2532   -8.4174  H     
59   H        26.1078   -7.2233   -8.7577  H     
60   H        24.6783   -8.1374   -9.2316  H     
61   H        25.4788   -7.2056   -6.6734  H     
62   H        23.9929   -7.5621   -7.3215  H     
63   H        27.8231   -8.4686   -7.4037  H     
64   H        27.7477  -10.2101   -7.2620  H     
65   H        29.0078   -8.8779   -9.6925  H     
66   H        30.2069   -8.0289   -7.7161  H     
67   H        30.4282   -9.6733   -7.1018  H     
68   H        29.3656  -11.6875   -8.4716  H     
69   H        28.4876  -11.3345   -9.9557  H     
70   H        30.7765  -12.1864  -10.4237  H     
71   H        30.5348  -10.5643  -11.0750  H     
72   H        32.0480  -11.3024   -8.5190  H     
73   H        32.7277  -10.6541  -10.0192  H     
74   H        31.5997   -8.5056   -9.6860  H     
75   H        32.4941   -8.9025   -8.2162  H     
76   H        27.7483   -7.1500  -15.9045  H     
77   H        24.3417   -9.9382   -6.8847  H     
78   H        24.2577   -8.9114   -5.4400  H     
79   H        25.8395   -9.4509   -6.0354  H     
80   H        25.8122   -1.5667  -12.8640  H     
81   H        26.9756   -0.3382  -12.3266  H     
82   H        26.7709   -1.8109  -11.3705  H     
@<TRIPOS>BOND
     1    1    2 1
     2    1    6 2
     3    1    7 1
     4    2    3 2
     5    3    4 1
     6    3   35 1
     7    4    5 2
     8    5    6 1
     9    7    8 1
    10    7    9 1
    11    7   32 1
    12    8   15 1
    13    8   16 1
    14    9   10 1
    15   10   11 1
    16   11   12 1
    17   12   13 1
    18   13   34 1
    19   14   15 1
    20   14   18 1
    21   16   17 1
    22   17   18 1
    23   17   19 1
    24   19   20 2
    25   19   21 am
    26   21   22 1
    27   22   23 1
    28   22   25 1
    29   23   24 1
    30   24   33 1
    31   25   26 1
    32   26   27 1
    33   26   28 1
    34   27   31 1
    35   28   29 1
    36   29   30 1
    37   30   31 1
    38    2   36 1
    39    4   37 1
    40    5   38 1
    41    6   39 1
    42    8   40 1
    43    9   41 1
    44    9   42 1
    45   10   43 1
    46   10   44 1
    47   11   45 1
    48   11   46 1
    49   12   47 1
    50   12   48 1
    51   14   49 1
    52   14   50 1
    53   15   51 1
    54   15   52 1
    55   16   53 1
    56   16   54 1
    57   18   55 1
    58   18   56 1
    59   21   57 1
    60   22   58 1
    61   23   59 1
    62   23   60 1
    63   24   61 1
    64   24   62 1
    65   25   63 1
    66   25   64 1
    67   26   65 1
    68   27   66 1
    69   27   67 1
    70   28   68 1
    71   28   69 1
    72   29   70 1
    73   29   71 1
    74   30   72 1
    75   30   73 1
    76   31   74 1
    77   31   75 1
    78   32   76 1
    79   33   77 1
    80   33   78 1
    81   33   79 1
    82   34   80 1
    83   34   81 1
    84   34   82 1
@<TRIPOS>PROPERTY_DATA
  Total_Score	| 13.3109
  Crash		| -2.2114
  Polar		| 6.8187
  FragIndex	| 1
  FragRMSD	| 0.410

