@<TRIPOS>MOLECULE
BindingDB_50305447
 84 86 0 0 0
SMALL
NO_CHARGES


@<TRIPOS>ATOM
1    C        29.1334   -6.1169  -12.7487  C     
2    C        29.1768   -4.5701  -12.6622  C     
3    N        27.8796   -3.9907  -12.8381  N     
4    C        28.5737   -6.6171  -14.1104  C     
5    C        28.9035   -8.0926  -14.5614  C     
6    C        30.9421   -7.9076  -16.1083  C     
7    C        32.3273   -7.9381  -16.3520  C     
8    C        33.2187   -8.2419  -15.3130  C     
9    C        32.7229   -8.5007  -14.0229  C     
10   C        31.3400   -8.4613  -13.7855  C     
11   C        30.4025   -8.1828  -14.8208  C     
12   C        28.3284   -9.2553  -13.6453  C     
13   C        26.8115   -9.1446  -13.2901  C     
14   N        26.4390  -10.2622  -12.4299  N     
15   C        26.5173  -11.5587  -13.0914  C     
16   C        28.0018  -11.8333  -13.4442  C     
17   C        28.6089  -10.6703  -14.2731  C     
18   C        26.2859  -10.1593  -11.0930  C     
19   O        26.0438  -11.1634  -10.4244  O     
20   N        26.4094   -9.0037  -10.4386  N     
21   C        26.4373   -8.7949   -9.0138  C     
22   C        25.0307   -8.3003   -8.5618  C     
23   C        27.5692   -7.7786   -8.6709  C     
24   C        29.0316   -8.2674   -8.9580  C     
25   C        30.0248   -7.0568   -8.8750  C     
26   C        31.4990   -7.4860   -9.1156  C     
27   C        31.9220   -8.5942   -8.1237  C     
28   C        30.9705   -9.8141   -8.2038  C     
29   C        29.4851   -9.4051   -7.9975  C     
30   N        24.8363   -8.0708   -7.1057  N     
31   C        25.2205   -9.1635   -6.1848  C     
32   O        28.2218   -8.2443  -15.8237  O     
33   Cl       33.7861   -8.8408  -12.7540  Cl    
34   C        27.6354   -2.7170  -13.1261  C     
35   N        26.4081   -2.2586  -13.3289  N     
36   O        28.5384   -1.9032  -13.2311  O     
37   C        25.2139   -3.0310  -13.2932  C     
38   H        30.1529   -6.4589  -12.6039  H     
39   H        28.5214   -6.5116  -11.9333  H     
40   H        29.5615   -4.2786  -11.6854  H     
41   H        29.8729   -4.2065  -13.4276  H     
42   H        27.1217   -4.5886  -12.7835  H     
43   H        27.4854   -6.4945  -14.0702  H     
44   H        28.9145   -5.9457  -14.9060  H     
45   H        30.3299   -7.6597  -16.8951  H     
46   H        32.6864   -7.7371  -17.2940  H     
47   H        34.2242   -8.2686  -15.4937  H     
48   H        31.0235   -8.6320  -12.8296  H     
49   H        28.8390   -9.2168  -12.6808  H     
50   H        26.6082   -8.1805  -12.8247  H     
51   H        26.2154   -9.1684  -14.2085  H     
52   H        26.1435  -12.3880  -12.4827  H     
53   H        25.9142  -11.5499  -14.0032  H     
54   H        28.5729  -11.9537  -12.5142  H     
55   H        28.0724  -12.7632  -14.0156  H     
56   H        28.1779  -10.7210  -15.2790  H     
57   H        29.6858  -10.8448  -14.3605  H     
58   H        26.5419   -8.2058  -10.9719  H     
59   H        26.6360   -9.7342   -8.4928  H     
60   H        24.8156   -7.3532   -9.0614  H     
61   H        24.2792   -9.0223   -8.8957  H     
62   H        27.3786   -6.8678   -9.2429  H     
63   H        27.5067   -7.5101   -7.6146  H     
64   H        29.0765   -8.6454   -9.9840  H     
65   H        29.7607   -6.3053   -9.6247  H     
66   H        29.9518   -6.5829   -7.8902  H     
67   H        31.6093   -7.8447  -10.1411  H     
68   H        32.1507   -6.6181   -8.9921  H     
69   H        32.9416   -8.9096   -8.3545  H     
70   H        31.9185   -8.2022   -7.1006  H     
71   H        31.0835  -10.2963   -9.1826  H     
72   H        31.2578  -10.5422   -7.4378  H     
73   H        29.3539   -9.0907   -6.9602  H     
74   H        28.8809  -10.2977   -8.1553  H     
75   H        25.3188   -7.2185   -6.8126  H     
76   H        23.8348   -7.9110   -6.9903  H     
77   H        24.8123  -10.1218   -6.5177  H     
78   H        24.8248   -8.9278   -5.1958  H     
79   H        26.3112   -9.2323   -6.1058  H     
80   H        27.5214   -7.5595  -15.8705  H     
81   H        26.3179   -1.3130  -13.5262  H     
82   H        25.2527   -3.8267  -14.0408  H     
83   H        24.3673   -2.3836  -13.5071  H     
84   H        25.0767   -3.4703  -12.3043  H     
@<TRIPOS>BOND
     1    1    2 1
     2    1    4 1
     3    2    3 1
     4    3   34 am
     5    4    5 1
     6    5   11 1
     7    5   12 1
     8    5   32 1
     9    6    7 2
    10    6   11 1
    11    7    8 1
    12    8    9 2
    13    9   10 1
    14    9   33 1
    15   10   11 2
    16   12   13 1
    17   12   17 1
    18   13   14 1
    19   14   15 1
    20   14   18 1
    21   15   16 1
    22   16   17 1
    23   18   19 2
    24   18   20 am
    25   20   21 1
    26   21   22 1
    27   21   23 1
    28   22   30 1
    29   23   24 1
    30   24   25 1
    31   24   29 1
    32   25   26 1
    33   26   27 1
    34   27   28 1
    35   28   29 1
    36   30   31 1
    37   34   35 am
    38   34   36 2
    39   35   37 1
    40    1   38 1
    41    1   39 1
    42    2   40 1
    43    2   41 1
    44    3   42 1
    45    4   43 1
    46    4   44 1
    47    6   45 1
    48    7   46 1
    49    8   47 1
    50   10   48 1
    51   12   49 1
    52   13   50 1
    53   13   51 1
    54   15   52 1
    55   15   53 1
    56   16   54 1
    57   16   55 1
    58   17   56 1
    59   17   57 1
    60   20   58 1
    61   21   59 1
    62   22   60 1
    63   22   61 1
    64   23   62 1
    65   23   63 1
    66   24   64 1
    67   25   65 1
    68   25   66 1
    69   26   67 1
    70   26   68 1
    71   27   69 1
    72   27   70 1
    73   28   71 1
    74   28   72 1
    75   29   73 1
    76   29   74 1
    77   30   75 1
    78   30   76 1
    79   31   77 1
    80   31   78 1
    81   31   79 1
    82   32   80 1
    83   35   81 1
    84   37   82 1
    85   37   83 1
    86   37   84 1
@<TRIPOS>PROPERTY_DATA
  Total_Score	| 13.3615
  Crash		| -2.0230
  Polar		| 6.4939
  FragIndex	| 1
  FragRMSD	| 0.239

