@<TRIPOS>MOLECULE
BindingDB_29955
 85 87 0 0 0
SMALL
NO_CHARGES


@<TRIPOS>ATOM
1    C        30.2631   -8.0351  -14.7049  C     
2    C        31.1655   -8.3626  -13.6587  C     
3    C        32.5607   -8.4163  -13.8694  C     
4    C        33.0855   -8.1279  -15.1423  C     
5    C        32.2166   -7.8060  -16.1973  C     
6    C        30.8234   -7.7657  -15.9808  C     
7    C        28.7714   -8.0186  -14.4473  C     
8    C        28.3334   -9.3211  -13.6547  C     
9    C        28.4002   -6.6790  -13.7078  C     
10   C        29.1018   -5.3954  -14.2474  C     
11   C        29.0105   -4.1361  -13.3418  C     
12   C        27.6357   -3.3988  -13.3644  C     
13   O        27.8292   -1.9707  -13.2069  O     
14   C        28.1654  -11.9149  -13.6575  C     
15   C        28.6088  -10.6541  -14.4466  C     
16   C        26.8303   -9.3462  -13.1894  C     
17   N        26.5558  -10.5482  -12.4082  N     
18   C        26.6936  -11.7829  -13.1700  C     
19   C        26.3402  -10.5639  -11.0757  C     
20   O        26.0987  -11.6199  -10.4956  O     
21   N        26.4214   -9.4594  -10.3399  N     
22   C        26.3689   -9.3172   -8.9126  C     
23   C        25.5041   -8.0567   -8.5778  C     
24   N        24.9933   -7.8998   -7.1863  N     
25   C        27.8098   -9.2786   -8.3193  C     
26   C        28.5573   -7.8909   -8.3059  C     
27   C        29.5646   -7.7230   -7.1271  C     
28   C        29.2863   -7.5706   -9.6560  C     
29   C        30.6023   -8.3745   -9.8587  C     
30   C        31.5586   -8.2344   -8.6506  C     
31   C        30.8479   -8.5786   -7.3145  C     
32   O        28.0184   -8.0490  -15.6714  O     
33   C        25.0104   -9.0497   -6.2339  C     
34   C        26.8440   -1.3441  -12.3536  C     
35   Cl       33.6036   -8.8267  -12.5990  Cl    
36   C        23.7097   -9.8972   -6.1694  C     
37   F        23.8934  -10.9385   -5.2785  F     
38   F        22.6583   -9.1252   -5.7179  F     
39   F        23.3949  -10.4285   -7.4040  F     
40   H        30.8027   -8.5747  -12.7293  H     
41   H        34.0950   -8.1729  -15.3169  H     
42   H        32.5927   -7.5811  -17.1232  H     
43   H        30.2220   -7.5391  -16.7656  H     
44   H        28.9367   -9.3572  -12.7440  H     
45   H        27.3255   -6.5021  -13.7828  H     
46   H        28.6472   -6.7596  -12.6469  H     
47   H        30.1627   -5.6079  -14.3703  H     
48   H        28.7074   -5.1218  -15.2331  H     
49   H        29.2507   -4.4000  -12.3068  H     
50   H        29.7811   -3.4294  -13.6856  H     
51   H        27.1153   -3.6133  -14.3101  H     
52   H        26.9990   -3.7733  -12.5454  H     
53   H        28.2688  -12.8124  -14.2920  H     
54   H        28.8185  -12.0457  -12.7845  H     
55   H        28.0820  -10.6371  -15.4097  H     
56   H        29.6790  -10.7600  -14.6578  H     
57   H        26.6074   -8.4389  -12.6397  H     
58   H        26.1761   -9.3230  -14.0678  H     
59   H        26.0198  -11.7781  -14.0383  H     
60   H        26.4538  -12.6951  -12.6110  H     
61   H        26.6375   -8.6391  -10.8183  H     
62   H        25.8539  -10.1664   -8.4561  H     
63   H        26.1000   -7.1539   -8.7864  H     
64   H        24.6446   -8.0274   -9.2602  H     
65   H        25.5013   -7.1212   -6.7412  H     
66   H        24.0187   -7.5891   -7.2846  H     
67   H        27.7915   -9.6922   -7.3079  H     
68   H        28.3979   -9.9980   -8.8911  H     
69   H        27.8257   -7.0935   -8.1608  H     
70   H        29.8601   -6.6697   -7.0431  H     
71   H        29.0832   -7.9914   -6.1809  H     
72   H        28.6173   -7.7782  -10.4957  H     
73   H        29.5322   -6.5070   -9.6836  H     
74   H        30.3739   -9.4367  -10.0087  H     
75   H        31.1159   -8.0154  -10.7595  H     
76   H        32.4222   -8.8938   -8.7822  H     
77   H        31.9228   -7.1974   -8.6028  H     
78   H        31.5342   -8.3845   -6.4846  H     
79   H        30.6022   -9.6477   -7.2907  H     
80   H        27.7483   -7.1350  -15.8758  H     
81   H        25.8636   -9.6948   -6.4604  H     
82   H        25.1771   -8.6211   -5.2396  H     
83   H        25.8654   -1.3122  -12.8550  H     
84   H        27.1634   -0.3146  -12.1560  H     
85   H        26.7463   -1.8667  -11.3922  H     
@<TRIPOS>BOND
     1    1    2 1
     2    1    6 2
     3    1    7 1
     4    2    3 2
     5    3    4 1
     6    3   35 1
     7    4    5 2
     8    5    6 1
     9    7    8 1
    10    7    9 1
    11    7   32 1
    12    8   15 1
    13    8   16 1
    14    9   10 1
    15   10   11 1
    16   11   12 1
    17   12   13 1
    18   13   34 1
    19   14   15 1
    20   14   18 1
    21   16   17 1
    22   17   18 1
    23   17   19 1
    24   19   20 2
    25   19   21 am
    26   21   22 1
    27   22   23 1
    28   22   25 1
    29   23   24 1
    30   24   33 1
    31   25   26 1
    32   26   27 1
    33   26   28 1
    34   27   31 1
    35   28   29 1
    36   29   30 1
    37   30   31 1
    38   33   36 1
    39   36   37 1
    40   36   38 1
    41   36   39 1
    42    2   40 1
    43    4   41 1
    44    5   42 1
    45    6   43 1
    46    8   44 1
    47    9   45 1
    48    9   46 1
    49   10   47 1
    50   10   48 1
    51   11   49 1
    52   11   50 1
    53   12   51 1
    54   12   52 1
    55   14   53 1
    56   14   54 1
    57   15   55 1
    58   15   56 1
    59   16   57 1
    60   16   58 1
    61   18   59 1
    62   18   60 1
    63   21   61 1
    64   22   62 1
    65   23   63 1
    66   23   64 1
    67   24   65 1
    68   24   66 1
    69   25   67 1
    70   25   68 1
    71   26   69 1
    72   27   70 1
    73   27   71 1
    74   28   72 1
    75   28   73 1
    76   29   74 1
    77   29   75 1
    78   30   76 1
    79   30   77 1
    80   31   78 1
    81   31   79 1
    82   32   80 1
    83   33   81 1
    84   33   82 1
    85   34   83 1
    86   34   84 1
    87   34   85 1
@<TRIPOS>PROPERTY_DATA
  Total_Score	| 14.1393
  Crash		| -2.4459
  Polar		| 6.8847
  FragIndex	| 1
  FragRMSD	| 0.682

