@<TRIPOS>MOLECULE
BindingDB_29954
 85 87 0 0 0
SMALL
NO_CHARGES


@<TRIPOS>ATOM
1    C        30.2452   -8.0673  -14.7051  C     
2    C        31.1344   -8.3639  -13.6336  C     
3    C        32.5301   -8.3968  -13.8223  C     
4    C        33.0738   -8.1195  -15.0903  C     
5    C        32.2162   -7.8242  -16.1678  C     
6    C        30.8179   -7.8011  -15.9792  C     
7    C        28.7517   -8.0037  -14.4457  C     
8    C        28.2788   -9.2683  -13.6129  C     
9    C        28.4116   -6.6190  -13.7643  C     
10   C        29.1725   -5.3798  -14.3296  C     
11   C        29.0961   -4.0765  -13.4994  C     
12   C        27.6922   -3.4389  -13.3894  C     
13   O        27.8333   -2.0223  -13.1528  O     
14   C        28.0480  -11.8540  -13.5410  C     
15   C        28.5164  -10.6243  -14.3693  C     
16   C        26.7827   -9.2325  -13.1516  C     
17   N        26.5187  -10.3855  -12.2965  N     
18   C        26.6096  -11.6618  -12.9910  C     
19   C        26.4018  -10.3062  -10.9527  C     
20   O        26.2933  -11.3294  -10.2806  O     
21   N        26.4099   -9.1370  -10.3058  N     
22   C        26.4020   -8.8894   -8.8900  C     
23   C        24.9781   -8.3927   -8.5154  C     
24   N        24.7588   -8.0268   -7.0957  N     
25   C        27.5209   -7.8563   -8.5409  C     
26   C        28.9879   -8.2888   -8.8700  C     
27   C        29.9601   -7.0742   -8.7903  C     
28   C        29.5012   -9.4410   -7.9484  C     
29   C        30.9637   -9.8441   -8.2632  C     
30   C        31.9202   -8.6241   -8.2145  C     
31   C        31.4168   -7.4763   -9.1305  C     
32   O        27.9874   -8.0572  -15.6543  O     
33   C        24.9101   -9.0697   -6.0496  C     
34   C        26.7759   -1.4249  -12.3866  C     
35   Cl       33.5470   -8.7696  -12.5183  Cl    
36   C        23.5809   -9.7340   -5.6206  C     
37   H        30.7723   -8.5551  -12.6963  H     
38   H        34.0883   -8.1403  -15.2460  H     
39   H        32.6018   -7.6214  -17.0924  H     
40   H        30.2154   -7.5746  -16.7727  H     
41   H        28.8754   -9.2951  -12.6916  H     
42   H        27.3538   -6.4047  -13.8750  H     
43   H        28.5948   -6.6880  -12.6823  H     
44   H        30.2371   -5.6180  -14.4164  H     
45   H        28.7981   -5.1646  -15.3355  H     
46   H        29.4807   -4.2621  -12.4937  H     
47   H        29.7722   -3.3543  -13.9688  H     
48   H        27.1211   -3.5876  -14.3166  H     
49   H        27.1495   -3.9182  -12.5566  H     
50   H        28.0829  -12.7502  -14.1736  H     
51   H        28.7347  -12.0069  -12.7014  H     
52   H        27.9685  -10.6157  -15.3159  H     
53   H        29.5791  -10.7548  -14.5928  H     
54   H        26.5711   -8.2880  -12.6526  H     
55   H        26.1223   -9.2658  -14.0245  H     
56   H        25.8990  -11.6747  -13.8243  H     
57   H        26.3622  -12.5262  -12.3643  H     
58   H        26.4377   -8.3355  -10.8427  H     
59   H        26.5953   -9.8175   -8.3420  H     
60   H        24.7524   -7.5007   -9.1044  H     
61   H        24.2435   -9.1528   -8.8001  H     
62   H        25.3621   -7.2303   -6.8593  H     
63   H        23.7966   -7.6871   -7.0512  H     
64   H        27.2930   -6.9290   -9.0782  H     
65   H        27.4631   -7.6397   -7.4601  H     
66   H        29.0120   -8.6537   -9.9152  H     
67   H        29.6530   -6.3035   -9.4972  H     
68   H        29.9329   -6.6381   -7.7864  H     
69   H        29.4325   -9.1326   -6.9027  H     
70   H        28.8783  -10.3274   -8.0735  H     
71   H        31.3020  -10.5877   -7.5345  H     
72   H        31.0108  -10.2968   -9.2575  H     
73   H        32.0099   -8.2608   -7.1826  H     
74   H        32.9131   -8.9348   -8.5523  H     
75   H        31.4804   -7.7947  -10.1751  H     
76   H        32.0787   -6.6113   -9.0115  H     
77   H        27.7447   -7.1409  -15.9157  H     
78   H        25.6225   -9.8391   -6.3652  H     
79   H        25.3388   -8.5748   -5.1792  H     
80   H        25.8003   -1.5938  -12.8571  H     
81   H        26.9560   -0.3490  -12.3316  H     
82   H        26.7675   -1.8220  -11.3659  H     
83   H        22.8279   -8.9733   -5.3950  H     
84   H        23.7448  -10.3453   -4.7286  H     
85   H        23.2023  -10.3878   -6.4089  H     
@<TRIPOS>BOND
     1    1    2 1
     2    1    6 2
     3    1    7 1
     4    2    3 2
     5    3    4 1
     6    3   35 1
     7    4    5 2
     8    5    6 1
     9    7    8 1
    10    7    9 1
    11    7   32 1
    12    8   15 1
    13    8   16 1
    14    9   10 1
    15   10   11 1
    16   11   12 1
    17   12   13 1
    18   13   34 1
    19   14   15 1
    20   14   18 1
    21   16   17 1
    22   17   18 1
    23   17   19 1
    24   19   20 2
    25   19   21 am
    26   21   22 1
    27   22   23 1
    28   22   25 1
    29   23   24 1
    30   24   33 1
    31   25   26 1
    32   26   27 1
    33   26   28 1
    34   27   31 1
    35   28   29 1
    36   29   30 1
    37   30   31 1
    38   33   36 1
    39    2   37 1
    40    4   38 1
    41    5   39 1
    42    6   40 1
    43    8   41 1
    44    9   42 1
    45    9   43 1
    46   10   44 1
    47   10   45 1
    48   11   46 1
    49   11   47 1
    50   12   48 1
    51   12   49 1
    52   14   50 1
    53   14   51 1
    54   15   52 1
    55   15   53 1
    56   16   54 1
    57   16   55 1
    58   18   56 1
    59   18   57 1
    60   21   58 1
    61   22   59 1
    62   23   60 1
    63   23   61 1
    64   24   62 1
    65   24   63 1
    66   25   64 1
    67   25   65 1
    68   26   66 1
    69   27   67 1
    70   27   68 1
    71   28   69 1
    72   28   70 1
    73   29   71 1
    74   29   72 1
    75   30   73 1
    76   30   74 1
    77   31   75 1
    78   31   76 1
    79   32   77 1
    80   33   78 1
    81   33   79 1
    82   34   80 1
    83   34   81 1
    84   34   82 1
    85   36   83 1
    86   36   84 1
    87   36   85 1
@<TRIPOS>PROPERTY_DATA
  Total_Score	| 13.7501
  Crash		| -2.2115
  Polar		| 6.2250
  FragIndex	| 1
  FragRMSD	| 0.148

