@<TRIPOS>MOLECULE
BindingDB_29959
 82 84 0 0 0
SMALL
NO_CHARGES


@<TRIPOS>ATOM
1    C        30.2285   -8.1269  -14.7131  C     
2    C        30.7793   -7.8937  -16.0033  C     
3    C        32.1708   -7.9047  -16.2064  C     
4    C        33.0467   -8.1765  -15.1445  C     
5    C        32.5279   -8.4230  -13.8607  C     
6    C        31.1338   -8.3808  -13.6541  C     
7    C        28.7383   -8.0418  -14.4477  C     
8    C        28.2316   -9.2791  -13.6091  C     
9    C        28.4236   -6.6412  -13.7685  C     
10   C        29.2128   -5.4259  -14.3497  C     
11   C        29.1313   -4.1200  -13.5163  C     
12   C        27.7191   -3.4955  -13.3930  C     
13   O        27.8370   -2.0692  -13.1896  O     
14   C        27.9817  -11.8587  -13.5143  C     
15   C        28.4735  -10.6441  -14.3418  C     
16   C        26.7234   -9.2357  -13.1940  C     
17   N        26.4388  -10.3748  -12.3298  N     
18   C        26.5340  -11.6624  -12.9992  C     
19   C        26.3149  -10.2706  -10.9926  C     
20   O        26.2472  -11.2788  -10.2980  O     
21   N        26.3121   -9.0937  -10.3615  N     
22   C        26.3733   -8.8306   -8.9530  C     
23   C        24.9757   -8.3255   -8.5013  C     
24   N        24.7995   -8.0893   -7.0517  N     
25   C        27.5045   -7.7888   -8.6830  C     
26   C        28.9649   -8.2693   -8.9737  C     
27   C        29.9604   -7.0683   -8.8880  C     
28   C        29.4220   -9.4170   -8.0156  C     
29   C        30.8948   -9.8410   -8.2546  C     
30   C        31.8574   -8.6318   -8.1703  C     
31   C        31.4298   -7.4966   -9.1342  C     
32   O        27.9682   -8.0828  -15.6614  O     
33   C        25.2115   -9.1743   -6.1382  C     
34   C        26.7552   -1.4743  -12.4585  C     
35   Cl       33.5623   -8.7518  -12.5700  Cl    
36   F        32.6476   -7.6411  -17.3949  F     
37   H        30.1675   -7.7013  -16.7922  H     
38   H        34.0554   -8.1876  -15.3078  H     
39   H        30.7837   -8.5319  -12.7022  H     
40   H        28.7950   -9.3029  -12.6806  H     
41   H        27.3541   -6.4083  -13.9054  H     
42   H        28.6012   -6.7166  -12.6837  H     
43   H        30.2584   -5.6857  -14.4235  H     
44   H        28.8440   -5.2247  -15.3454  H     
45   H        29.5272   -4.3058  -12.5092  H     
46   H        29.7997   -3.3856  -13.9915  H     
47   H        27.1593   -3.6696  -14.3132  H     
48   H        27.1949   -3.9719  -12.5597  H     
49   H        28.0375  -12.7652  -14.1298  H     
50   H        28.6526  -11.9990  -12.6577  H     
51   H        27.9503  -10.6441  -15.3047  H     
52   H        29.5377  -10.7832  -14.5496  H     
53   H        26.4865   -8.2825  -12.7216  H     
54   H        26.0764   -9.2770  -14.0807  H     
55   H        25.8407  -11.6868  -13.8426  H     
56   H        26.2766  -12.5095  -12.3703  H     
57   H        26.2735   -8.3005  -10.9142  H     
58   H        26.5923   -9.7402   -8.3927  H     
59   H        24.7553   -7.3817   -9.0094  H     
60   H        24.2190   -9.0476   -8.8236  H     
61   H        25.2773   -7.2287   -6.7750  H     
62   H        23.7956   -7.9467   -6.9138  H     
63   H        27.2989   -6.9062   -9.2985  H     
64   H        27.4501   -7.4720   -7.6402  H     
65   H        28.9989   -8.6492   -9.9978  H     
66   H        29.6946   -6.3154   -9.6331  H     
67   H        29.8921   -6.6015   -7.9016  H     
68   H        29.3123   -9.0903   -6.9776  H     
69   H        28.7942  -10.3005   -8.1549  H     
70   H        31.1842  -10.5807   -7.5035  H     
71   H        30.9844  -10.3080   -9.2390  H     
72   H        31.8736   -8.2537   -7.1430  H     
73   H        32.8694   -8.9541   -8.4233  H     
74   H        31.5478   -7.8339  -10.1675  H     
75   H        32.0895   -6.6347   -8.9900  H     
76   H        27.7291   -7.1545  -15.8854  H     
77   H        24.7695  -10.1320   -6.4383  H     
78   H        24.8615   -8.9398   -5.1302  H     
79   H        26.2965   -9.2707   -6.1077  H     
80   H        25.7872   -1.6791  -12.9297  H     
81   H        26.9049   -0.3944  -12.4345  H     
82   H        26.7459   -1.8399  -11.4282  H     
@<TRIPOS>BOND
     1    1    2 1
     2    1    6 2
     3    1    7 1
     4    2    3 2
     5    3    4 1
     6    3   36 1
     7    4    5 2
     8    5    6 1
     9    5   35 1
    10    7    8 1
    11    7    9 1
    12    7   32 1
    13    8   15 1
    14    8   16 1
    15    9   10 1
    16   10   11 1
    17   11   12 1
    18   12   13 1
    19   13   34 1
    20   14   15 1
    21   14   18 1
    22   16   17 1
    23   17   18 1
    24   17   19 1
    25   19   20 2
    26   19   21 am
    27   21   22 1
    28   22   23 1
    29   22   25 1
    30   23   24 1
    31   24   33 1
    32   25   26 1
    33   26   27 1
    34   26   28 1
    35   27   31 1
    36   28   29 1
    37   29   30 1
    38   30   31 1
    39    2   37 1
    40    4   38 1
    41    6   39 1
    42    8   40 1
    43    9   41 1
    44    9   42 1
    45   10   43 1
    46   10   44 1
    47   11   45 1
    48   11   46 1
    49   12   47 1
    50   12   48 1
    51   14   49 1
    52   14   50 1
    53   15   51 1
    54   15   52 1
    55   16   53 1
    56   16   54 1
    57   18   55 1
    58   18   56 1
    59   21   57 1
    60   22   58 1
    61   23   59 1
    62   23   60 1
    63   24   61 1
    64   24   62 1
    65   25   63 1
    66   25   64 1
    67   26   65 1
    68   27   66 1
    69   27   67 1
    70   28   68 1
    71   28   69 1
    72   29   70 1
    73   29   71 1
    74   30   72 1
    75   30   73 1
    76   31   74 1
    77   31   75 1
    78   32   76 1
    79   33   77 1
    80   33   78 1
    81   33   79 1
    82   34   80 1
    83   34   81 1
    84   34   82 1
@<TRIPOS>PROPERTY_DATA
  Total_Score	| 13.3147
  Crash		| -1.8595
  Polar		| 6.2162
  FragIndex	| 1
  FragRMSD	| 0.164

