@<TRIPOS>MOLECULE
BindingDB_50305451
 86 88 0 0 0
SMALL
NO_CHARGES


@<TRIPOS>ATOM
1    C        29.3546   -6.4342  -12.6888  C     
2    C        29.5083   -4.9222  -12.3954  C     
3    N        28.2364   -4.2842  -12.3017  N     
4    C        28.7523   -6.7429  -14.0898  C     
5    C        28.9648   -8.1988  -14.6542  C     
6    C        30.9908   -8.0129  -16.2102  C     
7    C        32.3787   -8.0325  -16.4468  C     
8    C        33.2673   -8.3710  -15.4153  C     
9    C        32.7689   -8.7174  -14.1493  C     
10   C        31.3797   -8.7550  -13.9347  C     
11   C        30.4490   -8.3701  -14.9420  C     
12   C        28.3510   -9.3670  -13.7775  C     
13   C        26.8704   -9.1832  -13.3021  C     
14   N        26.5084  -10.2883  -12.4175  N     
15   C        26.4975  -11.5854  -13.0782  C     
16   C        27.9340  -11.9114  -13.5770  C     
17   C        28.4771  -10.7685  -14.4751  C     
18   C        26.3890  -10.1699  -11.0814  C     
19   O        26.1994  -11.1682  -10.3956  O     
20   N        26.4829   -9.0072  -10.4402  N     
21   C        26.5339   -8.7752   -9.0179  C     
22   C        25.1321   -8.2596   -8.5882  C     
23   C        27.7141   -7.7889   -8.7089  C     
24   C        28.8903   -8.3592   -7.8481  C     
25   C        29.4147   -9.7841   -8.2539  C     
26   C        30.3429   -9.7617   -9.5011  C     
27   C        31.5285   -8.7908   -9.3029  C     
28   C        31.0206   -7.3682   -8.9833  C     
29   C        30.0835   -7.3539   -7.7411  C     
30   N        24.8961   -8.0551   -7.1365  N     
31   C        25.1862   -9.1717   -6.2095  C     
32   O        28.2431   -8.2448  -15.8980  O     
33   Cl       33.8274   -8.9925  -12.8564  Cl    
34   C        27.9538   -3.0469  -12.7583  C     
35   O        28.8796   -2.2496  -13.3441  O     
36   O        26.6856   -2.6135  -12.5608  O     
37   C        26.1215   -1.3501  -12.9246  C     
38   C        24.8814   -1.5971  -13.7946  C     
39   H        30.3512   -6.8593  -12.6007  H     
40   H        28.7295   -6.8910  -11.9111  H     
41   H        30.0070   -4.8050  -11.4297  H     
42   H        30.1460   -4.4680  -13.1611  H     
43   H        27.5210   -4.7698  -11.8581  H     
44   H        27.6843   -6.5236  -14.0398  H     
45   H        29.1624   -6.0311  -14.8131  H     
46   H        30.3812   -7.6888  -16.9712  H     
47   H        32.7442   -7.7727  -17.3652  H     
48   H        34.2753   -8.3431  -15.5725  H     
49   H        31.0623   -9.0075  -12.9993  H     
50   H        28.9255   -9.4231  -12.8534  H     
51   H        26.7568   -8.2170  -12.8177  H     
52   H        26.2086   -9.1650  -14.1769  H     
53   H        26.1672  -12.4089  -12.4365  H     
54   H        25.8011  -11.5627  -13.9306  H     
55   H        28.5941  -12.0385  -12.7089  H     
56   H        27.9224  -12.8546  -14.1349  H     
57   H        27.9161  -10.7620  -15.4159  H     
58   H        29.5222  -10.9927  -14.7079  H     
59   H        26.5244   -8.2083  -10.9886  H     
60   H        26.6937   -9.7027   -8.4589  H     
61   H        24.9324   -7.2991   -9.0723  H     
62   H        24.3782   -8.9709   -8.9304  H     
63   H        28.1217   -7.3786   -9.6347  H     
64   H        27.3176   -6.9213   -8.1698  H     
65   H        28.4886   -8.4667   -6.8281  H     
66   H        29.9865  -10.1966   -7.4114  H     
67   H        28.5843  -10.4678   -8.4524  H     
68   H        30.7266  -10.7733   -9.6844  H     
69   H        29.7706   -9.4625  -10.3747  H     
70   H        32.1622   -9.1460   -8.4882  H     
71   H        32.1371   -8.7688  -10.2136  H     
72   H        31.8721   -6.7146   -8.8071  H     
73   H        30.4792   -6.9803   -9.8505  H     
74   H        29.7137   -6.3350   -7.5909  H     
75   H        30.6813   -7.6026   -6.8660  H     
76   H        25.4279   -7.2409   -6.8093  H     
77   H        23.8986   -7.8308   -7.0406  H     
78   H        24.7645  -10.1164   -6.5723  H     
79   H        24.7506   -8.9276   -5.2374  H     
80   H        26.2667   -9.2834   -6.0703  H     
81   H        27.5316   -7.5710  -15.8407  H     
82   H        25.8366   -0.8221  -12.0173  H     
83   H        26.8305   -0.7273  -13.4660  H     
84   H        25.1610   -2.1436  -14.7025  H     
85   H        24.4473   -0.6361  -14.0761  H     
86   H        24.1406   -2.1807  -13.2361  H     
@<TRIPOS>BOND
     1    1    2 1
     2    1    4 1
     3    2    3 1
     4    3   34 am
     5    4    5 1
     6    5   11 1
     7    5   12 1
     8    5   32 1
     9    6    7 2
    10    6   11 1
    11    7    8 1
    12    8    9 2
    13    9   10 1
    14    9   33 1
    15   10   11 2
    16   12   13 1
    17   12   17 1
    18   13   14 1
    19   14   15 1
    20   14   18 1
    21   15   16 1
    22   16   17 1
    23   18   19 2
    24   18   20 am
    25   20   21 1
    26   21   22 1
    27   21   23 1
    28   22   30 1
    29   23   24 1
    30   24   25 1
    31   24   29 1
    32   25   26 1
    33   26   27 1
    34   27   28 1
    35   28   29 1
    36   30   31 1
    37   34   35 2
    38   34   36 1
    39   36   37 1
    40   37   38 1
    41    1   39 1
    42    1   40 1
    43    2   41 1
    44    2   42 1
    45    3   43 1
    46    4   44 1
    47    4   45 1
    48    6   46 1
    49    7   47 1
    50    8   48 1
    51   10   49 1
    52   12   50 1
    53   13   51 1
    54   13   52 1
    55   15   53 1
    56   15   54 1
    57   16   55 1
    58   16   56 1
    59   17   57 1
    60   17   58 1
    61   20   59 1
    62   21   60 1
    63   22   61 1
    64   22   62 1
    65   23   63 1
    66   23   64 1
    67   24   65 1
    68   25   66 1
    69   25   67 1
    70   26   68 1
    71   26   69 1
    72   27   70 1
    73   27   71 1
    74   28   72 1
    75   28   73 1
    76   29   74 1
    77   29   75 1
    78   30   76 1
    79   30   77 1
    80   31   78 1
    81   31   79 1
    82   31   80 1
    83   32   81 1
    84   37   82 1
    85   37   83 1
    86   38   84 1
    87   38   85 1
    88   38   86 1
@<TRIPOS>PROPERTY_DATA
  Total_Score	| 12.9449
  Crash		| -3.3872
  Polar		| 7.4999
  FragIndex	| 1
  FragRMSD	| 0.789

