@<TRIPOS>MOLECULE
BindingDB_50305450
 83 85 0 0 0
SMALL
NO_CHARGES


@<TRIPOS>ATOM
1    C        29.1064   -5.4735  -13.8675  C     
2    C        28.9861   -4.4444  -12.7024  C     
3    N        28.6711   -3.1363  -13.1865  N     
4    C        28.3339   -6.7857  -13.5619  C     
5    C        28.7283   -8.0749  -14.3709  C     
6    C        30.8368   -7.9045  -15.8273  C     
7    C        32.2361   -7.9672  -15.9885  C     
8    C        33.0592   -8.2520  -14.8895  C     
9    C        32.4869   -8.4873  -13.6271  C     
10   C        31.0884   -8.4243  -13.4768  C     
11   C        30.2281   -8.1270  -14.5645  C     
12   C        28.2052   -9.3731  -13.6359  C     
13   C        26.6759   -9.3798  -13.2895  C     
14   N        26.4324  -10.4909  -12.3864  N     
15   C        26.5958  -11.7950  -13.0176  C     
16   C        28.0551  -11.9494  -13.5325  C     
17   C        28.5032  -10.7197  -14.3761  C     
18   C        26.3348  -10.3248  -11.0508  C     
19   O        26.2451  -11.3047  -10.3197  O     
20   N        26.3643   -9.1235  -10.4665  N     
21   C        26.4385   -8.7975   -9.0664  C     
22   C        25.0525   -8.2527   -8.6226  C     
23   C        27.5794   -7.7518   -8.8448  C     
24   C        29.0439   -8.2438   -9.0873  C     
25   C        30.0441   -7.0456   -8.9833  C     
26   C        31.5261   -7.4815   -9.1332  C     
27   C        31.8913   -8.5975   -8.1217  C     
28   C        30.9413   -9.8082   -8.2549  C     
29   C        29.4575   -9.3836   -8.0988  C     
30   N        24.8576   -8.0479   -7.1684  N     
31   C        25.2396   -9.1623   -6.2772  C     
32   O        28.0227   -8.0225  -15.6204  O     
33   Cl       33.4647   -8.8362  -12.2899  Cl    
34   C        27.4190   -2.6540  -13.3283  C     
35   O        26.3166   -3.3443  -12.9208  O     
36   O        27.2638   -1.4367  -13.8979  O     
37   C        24.9627   -2.9227  -13.0898  C     
38   H        28.7218   -5.0559  -14.8001  H     
39   H        30.1648   -5.6967  -14.0230  H     
40   H        28.2428   -4.7553  -11.9631  H     
41   H        29.9379   -4.3951  -12.1773  H     
42   H        29.4034   -2.5905  -13.5188  H     
43   H        28.4434   -6.9811  -12.4927  H     
44   H        27.2818   -6.5543  -13.7354  H     
45   H        30.2737   -7.6877  -16.6519  H     
46   H        32.6560   -7.7987  -16.9066  H     
47   H        34.0733   -8.2830  -15.0110  H     
48   H        30.6900   -8.5943  -12.5510  H     
49   H        28.7351   -9.4262  -12.6793  H     
50   H        26.3529   -8.4316  -12.8721  H     
51   H        26.0811   -9.4927  -14.2028  H     
52   H        26.3671  -12.6326  -12.3536  H     
53   H        25.9055  -11.8812  -13.8632  H     
54   H        28.7244  -12.0528  -12.6724  H     
55   H        28.1459  -12.8575  -14.1352  H     
56   H        27.9862  -10.7351  -15.3413  H     
57   H        29.5733  -10.8275  -14.5704  H     
58   H        26.3513   -8.3499  -11.0503  H     
59   H        26.6523   -9.6893   -8.4725  H     
60   H        24.8730   -7.2885   -9.1062  H     
61   H        24.2740   -8.9343   -8.9748  H     
62   H        27.3826   -6.9015   -9.5041  H     
63   H        27.5216   -7.3806   -7.8187  H     
64   H        29.1087   -8.6406  -10.1047  H     
65   H        29.8183   -6.3189   -9.7660  H     
66   H        29.9221   -6.5491   -8.0204  H     
67   H        31.7052   -7.8428  -10.1487  H     
68   H        32.1797   -6.6186   -8.9714  H     
69   H        32.9198   -8.9267   -8.3022  H     
70   H        31.8429   -8.2043   -7.1007  H     
71   H        31.0855  -10.2780   -9.2323  H     
72   H        31.1860  -10.5462   -7.4851  H     
73   H        29.2952   -9.0521   -7.0682  H     
74   H        28.8372  -10.2719   -8.2651  H     
75   H        25.3522   -7.2044   -6.8600  H     
76   H        23.8618   -7.8733   -7.0437  H     
77   H        24.7848  -10.0991   -6.6048  H     
78   H        24.8849   -8.9400   -5.2704  H     
79   H        26.3223   -9.2739   -6.2400  H     
80   H        27.7681   -7.0848  -15.7575  H     
81   H        24.8157   -1.9129  -12.7030  H     
82   H        24.3144   -3.6064  -12.5400  H     
83   H        24.6883   -2.9467  -14.1455  H     
@<TRIPOS>BOND
     1    1    2 1
     2    1    4 1
     3    2    3 1
     4    3   34 am
     5    4    5 1
     6    5   11 1
     7    5   12 1
     8    5   32 1
     9    6    7 2
    10    6   11 1
    11    7    8 1
    12    8    9 2
    13    9   10 1
    14    9   33 1
    15   10   11 2
    16   12   13 1
    17   12   17 1
    18   13   14 1
    19   14   15 1
    20   14   18 1
    21   15   16 1
    22   16   17 1
    23   18   19 2
    24   18   20 am
    25   20   21 1
    26   21   22 1
    27   21   23 1
    28   22   30 1
    29   23   24 1
    30   24   25 1
    31   24   29 1
    32   25   26 1
    33   26   27 1
    34   27   28 1
    35   28   29 1
    36   30   31 1
    37   34   35 1
    38   34   36 2
    39   35   37 1
    40    1   38 1
    41    1   39 1
    42    2   40 1
    43    2   41 1
    44    3   42 1
    45    4   43 1
    46    4   44 1
    47    6   45 1
    48    7   46 1
    49    8   47 1
    50   10   48 1
    51   12   49 1
    52   13   50 1
    53   13   51 1
    54   15   52 1
    55   15   53 1
    56   16   54 1
    57   16   55 1
    58   17   56 1
    59   17   57 1
    60   20   58 1
    61   21   59 1
    62   22   60 1
    63   22   61 1
    64   23   62 1
    65   23   63 1
    66   24   64 1
    67   25   65 1
    68   25   66 1
    69   26   67 1
    70   26   68 1
    71   27   69 1
    72   27   70 1
    73   28   71 1
    74   28   72 1
    75   29   73 1
    76   29   74 1
    77   30   75 1
    78   30   76 1
    79   31   77 1
    80   31   78 1
    81   31   79 1
    82   32   80 1
    83   37   81 1
    84   37   82 1
    85   37   83 1
@<TRIPOS>PROPERTY_DATA
  Total_Score	| 12.6998
  Crash		| -2.5318
  Polar		| 6.0478
  FragIndex	| 1
  FragRMSD	| 0.138

