@<TRIPOS>MOLECULE
BindingDB_50380159
 41 42 0 0 0
SMALL
NO_CHARGES


@<TRIPOS>ATOM
1    S        -5.8122    1.1362   16.3715  S     
2    O        -4.6734    1.1395   17.4841  O     
3    O        -5.6436   -0.2726   15.6484  O     
4    C        -5.8799    4.7919   14.5805  C     
5    C        -6.1097    3.7648   15.5152  C     
6    C        -5.5412    2.4832   15.2969  C     
7    C        -4.7066    2.2844   14.1728  C     
8    C        -4.4699    3.3078   13.2213  C     
9    C        -5.0879    4.5611   13.4435  C     
10   C        -3.6564    3.0753   12.1060  C     
11   C        -3.9955    3.5249   10.7571  C     
12   O        -2.7496    2.2517   12.2004  O     
13   S        -3.5724    5.2417   10.3661  S     
14   C        -1.8973    5.3017   10.8148  C     
15   N        -1.3942    6.4616   11.2968  N     
16   C        -0.1070    6.5631   11.6524  C     
17   C         0.7499    5.5167   11.5346  C     
18   C         0.2205    4.3388   11.0331  C     
19   N        -1.0623    4.2446   10.6792  N     
20   Cl       -7.0473    4.1475   16.8757  Cl    
21   N        -7.2793    1.0305   17.1806  N     
22   O         0.8794    3.3139   10.9084  O     
23   C         2.1023    5.6674   11.8665  C     
24   O         3.0222    4.7041   11.5747  O     
25   O         2.5508    6.7814   12.5057  O     
26   C         3.8943    7.0944   12.8837  C     
27   C         4.6164    5.9046   13.5467  C     
28   H        -6.2847    5.7194   14.7258  H     
29   H        -4.2808    1.3638   14.0355  H     
30   H        -4.9440    5.3403   12.8003  H     
31   H        -3.5179    2.8939   10.0025  H     
32   H        -5.0729    3.4111   10.6110  H     
33   H         0.1964    7.4526   11.9800  H     
34   H        -1.3992    3.4131   10.3207  H     
35   H        -8.0588    0.6811   16.7185  H     
36   H        -7.3277    1.2427   18.1240  H     
37   H         4.4509    7.4151   12.0017  H     
38   H         3.8693    7.9289   13.5860  H     
39   H         4.0670    5.5754   14.4322  H     
40   H         5.6189    6.2168   13.8466  H     
41   H         4.6966    5.0680   12.8477  H     
@<TRIPOS>BOND
     1    1    2 2
     2    1    3 2
     3    1    6 1
     4    1   21 am
     5    4    5 2
     6    4    9 1
     7    5    6 1
     8    5   20 1
     9    6    7 2
    10    7    8 1
    11    8    9 2
    12    8   10 1
    13   10   11 1
    14   10   12 2
    15   11   13 1
    16   13   14 1
    17   14   15 2
    18   14   19 1
    19   15   16 1
    20   16   17 2
    21   17   18 1
    22   17   23 1
    23   18   19 1
    24   18   22 2
    25   23   24 2
    26   23   25 1
    27   25   26 1
    28   26   27 1
    29    4   28 1
    30    7   29 1
    31    9   30 1
    32   11   31 1
    33   11   32 1
    34   16   33 1
    35   19   34 1
    36   21   35 1
    37   21   36 1
    38   26   37 1
    39   26   38 1
    40   27   39 1
    41   27   40 1
    42   27   41 1
@<TRIPOS>PROPERTY_DATA
  Total_Score	| 6.5592
  Crash		| -1.4571
  Polar		| 4.4357
  FragIndex	| 1
  FragRMSD	| 1.489

