@<TRIPOS>MOLECULE
BindingDB_50329834
 42 45 0 0 0
SMALL
NO_CHARGES


@<TRIPOS>ATOM
1    O         0.7952    9.7945   12.9651  O     
2    C         1.1652   10.1862   14.3051  C     
3    C         0.0002    9.9025   15.2865  C     
4    O        -0.3746    8.5109   15.2333  O     
5    C        -0.4716    7.9684   13.9737  C     
6    C         0.1654    8.5729   12.8493  C     
7    C         0.0917    7.9627   11.5765  C     
8    C        -0.6006    6.7467   11.4469  C     
9    N        -0.8543    5.9718   10.3775  N     
10   C        -1.5961    4.9358   10.8178  C     
11   N        -1.7788    5.0365   12.1459  N     
12   C        -1.1999    6.1590   12.5554  C     
13   C        -1.1560    6.7465   13.8249  C     
14   S        -2.1781    3.6436    9.8079  S     
15   C        -3.7516    3.2175   10.6137  C     
16   C        -3.6261    2.6964   11.9708  C     
17   O        -2.8027    1.7898   12.1083  O     
18   C        -4.4264    3.0451   13.0714  C     
19   C        -4.6956    2.0903   14.0937  C     
20   C        -5.5070    2.3862   15.2075  C     
21   C        -6.0580    3.6840   15.3371  C     
22   C        -5.7957    4.6484   14.3447  C     
23   C        -4.9923    4.3344   13.2360  C     
24   S        -5.7899    1.1302   16.3888  S     
25   O        -5.6373   -0.3226   15.7648  O     
26   Cl       -6.9918    4.1677   16.6703  Cl    
27   O        -4.6730    1.1755   17.5177  O     
28   N        -7.2851    1.0971   17.1440  N     
29   H         2.0513    9.6248   14.6099  H     
30   H         1.4108   11.2497   14.3116  H     
31   H         0.3003   10.1454   16.3074  H     
32   H        -0.8615   10.5207   15.0191  H     
33   H         0.5224    8.4008   10.7614  H     
34   H        -2.2440    4.4088   12.7145  H     
35   H        -1.6125    6.2993   14.6211  H     
36   H        -4.4088    4.0812   10.5622  H     
37   H        -4.2067    2.4368    9.9978  H     
38   H        -4.2950    1.1510   14.0146  H     
39   H        -6.1778    5.5936   14.4405  H     
40   H        -4.8018    5.0819   12.5632  H     
41   H        -7.4190    1.5805   17.9735  H     
42   H        -8.0063    0.5688   16.7681  H     
@<TRIPOS>BOND
     1    1    2 1
     2    1    6 1
     3    2    3 1
     4    3    4 1
     5    4    5 1
     6    5    6 2
     7    5   13 1
     8    6    7 1
     9    7    8 2
    10    8    9 1
    11    8   12 1
    12    9   10 2
    13   10   11 1
    14   10   14 1
    15   11   12 1
    16   12   13 2
    17   14   15 1
    18   15   16 1
    19   16   17 2
    20   16   18 1
    21   18   19 2
    22   18   23 1
    23   19   20 1
    24   20   21 2
    25   20   24 1
    26   21   22 1
    27   21   26 1
    28   22   23 2
    29   24   25 2
    30   24   27 2
    31   24   28 am
    32    2   29 1
    33    2   30 1
    34    3   31 1
    35    3   32 1
    36    7   33 1
    37   11   34 1
    38   13   35 1
    39   15   36 1
    40   15   37 1
    41   19   38 1
    42   22   39 1
    43   23   40 1
    44   28   41 1
    45   28   42 1
@<TRIPOS>PROPERTY_DATA
  Total_Score	| 6.4379
  Crash		| -1.1788
  Polar		| 3.8562
  FragIndex	| 1
  FragRMSD	| 1.119

