@<TRIPOS>MOLECULE
BindingDB_50380146
 44 45 0 0 0
SMALL
NO_CHARGES


@<TRIPOS>ATOM
1    S        -5.7010    1.1762   16.2723  S     
2    O        -4.5808    1.2540   17.3957  O     
3    O        -5.5776   -0.2905   15.6816  O     
4    C        -5.7048    4.6522   14.1432  C     
5    C        -5.9439    3.7192   15.1699  C     
6    C        -5.3931    2.4186   15.0742  C     
7    C        -4.5439    2.1111   13.9863  C     
8    C        -4.2698    3.0509   12.9592  C     
9    C        -4.8971    4.3202   13.0452  C     
10   C        -3.3602    2.7455   11.9385  C     
11   C        -3.6248    2.8632   10.5055  C     
12   O        -2.3190    2.1745   12.2501  O     
13   S        -3.4113    4.5103    9.7839  S     
14   C        -1.9814    5.0416   10.6159  C     
15   N        -2.0626    6.1467   11.3994  N     
16   C        -1.0089    6.6893   12.0421  C     
17   C         0.1949    6.0914   11.8754  C     
18   C         0.3059    4.9714   11.0898  C     
19   N        -0.7576    4.4626   10.4712  N     
20   Cl       -6.8689    4.2358   16.4937  Cl    
21   N        -7.1799    1.1836   17.0719  N     
22   O         1.3881    4.4124   10.9410  O     
23   C        -1.2767    7.8926   12.8724  C     
24   C         0.0045    8.5359   13.5027  C     
25   C        -1.9642    8.9902   11.9888  C     
26   C        -2.2429    7.4991   14.0399  C     
27   H        -6.1024    5.5933   14.1970  H     
28   H        -4.1084    1.1854   13.9427  H     
29   H        -4.7323    5.0349   12.3315  H     
30   H        -2.9650    2.2003    9.9443  H     
31   H        -4.6470    2.5379   10.3083  H     
32   H         1.0088    6.4482   12.3281  H     
33   H        -0.6627    3.6793    9.9062  H     
34   H        -7.9597    0.7993   16.6355  H     
35   H        -7.2089    1.3700   18.0266  H     
36   H         0.5021    7.8394   14.1766  H     
37   H        -0.2539    9.4293   14.0835  H     
38   H         0.7133    8.8359   12.7307  H     
39   H        -1.3304    9.2539   11.1395  H     
40   H        -2.1594    9.8982   12.5615  H     
41   H        -2.9228    8.6395   11.5977  H     
42   H        -3.1953    7.1243   13.6553  H     
43   H        -2.4601    8.3612   14.6765  H     
44   H        -1.7981    6.7200   14.6637  H     
@<TRIPOS>BOND
     1    1    2 2
     2    1    3 2
     3    1    6 1
     4    1   21 am
     5    4    5 2
     6    4    9 1
     7    5    6 1
     8    5   20 1
     9    6    7 2
    10    7    8 1
    11    8    9 2
    12    8   10 1
    13   10   11 1
    14   10   12 2
    15   11   13 1
    16   13   14 1
    17   14   15 2
    18   14   19 1
    19   15   16 1
    20   16   17 2
    21   16   23 1
    22   17   18 1
    23   18   19 1
    24   18   22 2
    25   23   24 1
    26   23   25 1
    27   23   26 1
    28    4   27 1
    29    7   28 1
    30    9   29 1
    31   11   30 1
    32   11   31 1
    33   17   32 1
    34   19   33 1
    35   21   34 1
    36   21   35 1
    37   24   36 1
    38   24   37 1
    39   24   38 1
    40   25   39 1
    41   25   40 1
    42   25   41 1
    43   26   42 1
    44   26   43 1
    45   26   44 1
@<TRIPOS>PROPERTY_DATA
  Total_Score	| 6.3825
  Crash		| -0.7938
  Polar		| 3.9577
  FragIndex	| 1
  FragRMSD	| 1.080

