@<TRIPOS>MOLECULE
BindingDB_50329833
 36 38 0 0 0
SMALL
NO_CHARGES


@<TRIPOS>ATOM
1    C        -5.8023    4.6624   14.4136  C     
2    C        -6.0791    3.6876   15.3867  C     
3    C        -5.5695    2.3735   15.2218  C     
4    C        -4.7776    2.0807   14.0899  C     
5    C        -4.4845    3.0564   13.0945  C     
6    C        -5.0183    4.3557   13.2868  C     
7    Cl       -6.9970    4.1686   16.7316  Cl    
8    C        -3.6751    2.7352   11.9875  C     
9    C        -3.8606    3.2179   10.6234  C     
10   O        -2.8266    1.8542   12.1101  O     
11   S        -5.8880    1.1131   16.3933  S     
12   N        -7.4935    0.9681   16.8553  N     
13   O        -5.6074   -0.3196   15.7616  O     
14   O        -4.9553    1.2155   17.6756  O     
15   S        -2.3176    3.5949    9.7431  S     
16   C        -1.5760    4.8293   10.7206  C     
17   N        -1.8696    5.1579   11.9935  N     
18   N        -0.5509    5.5829   10.2787  N     
19   C        -0.2059    6.4070   11.2820  C     
20   C        -1.0422    6.1411   12.3645  C     
21   C         0.9009    8.1386   12.5657  C     
22   C         0.7847    7.4008   11.3672  C     
23   C         0.0462    7.8689   13.6599  C     
24   C        -0.9307    6.8525   13.5665  C     
25   H        -6.1558    5.6171   14.5220  H     
26   H        -4.4041    1.1345   13.9904  H     
27   H        -4.8204    5.1072   12.6253  H     
28   H        -4.3507    2.4211   10.0577  H     
29   H        -4.5160    4.0894   10.5593  H     
30   H        -7.8737    0.0804   16.9822  H     
31   H        -7.9707    1.7441   17.1922  H     
32   H        -2.5490    4.7600   12.5543  H     
33   H         1.6086    8.8753   12.6419  H     
34   H         1.4036    7.5916   10.5724  H     
35   H         0.1395    8.4099   14.5216  H     
36   H        -1.5441    6.6480   14.3549  H     
@<TRIPOS>BOND
     1    1    2 2
     2    1    6 1
     3    2    3 1
     4    2    7 1
     5    3    4 2
     6    3   11 1
     7    4    5 1
     8    5    6 2
     9    5    8 1
    10    8    9 1
    11    8   10 2
    12    9   15 1
    13   11   12 am
    14   11   13 2
    15   11   14 2
    16   15   16 1
    17   16   17 1
    18   16   18 2
    19   17   20 1
    20   18   19 1
    21   19   20 2
    22   19   22 1
    23   20   24 1
    24   21   22 2
    25   21   23 1
    26   23   24 2
    27    1   25 1
    28    4   26 1
    29    6   27 1
    30    9   28 1
    31    9   29 1
    32   12   30 1
    33   12   31 1
    34   17   32 1
    35   21   33 1
    36   22   34 1
    37   23   35 1
    38   24   36 1
@<TRIPOS>PROPERTY_DATA
  Total_Score	| 5.8747
  Crash		| -0.7945
  Polar		| 3.7104
  FragIndex	| 1
  FragRMSD	| 0.912

