@<TRIPOS>MOLECULE
BindingDB_50380140
 31 32 0 0 0
SMALL
NO_CHARGES


@<TRIPOS>ATOM
1    S        -5.7654    1.1788   16.2588  S     
2    O        -4.7525    1.2626   17.4785  O     
3    O        -5.6054   -0.2983   15.7003  O     
4    C        -5.6682    4.6485   14.1368  C     
5    C        -5.9207    3.7237   15.1672  C     
6    C        -5.4092    2.4082   15.0638  C     
7    C        -4.5930    2.0733   13.9633  C     
8    C        -4.3056    3.0008   12.9231  C     
9    C        -4.8890    4.2895   13.0297  C     
10   C        -3.4355    2.6560   11.8777  C     
11   C        -3.6219    2.9637   10.4618  C     
12   O        -2.4868    1.9213   12.1446  O     
13   S        -3.4111    4.6852    9.9290  S     
14   C        -1.8660    5.0888   10.6115  C     
15   N        -0.8585    5.4816    9.7828  N     
16   C         0.3296    5.9152   10.2721  C     
17   C         0.5367    5.9817   11.6595  C     
18   C        -0.5210    5.5805   12.5004  C     
19   N        -1.6928    5.1567   11.9560  N     
20   Cl       -6.8162    4.2776   16.5000  Cl    
21   N        -7.3150    1.1865   16.9102  N     
22   H        -6.0411    5.5992   14.1907  H     
23   H        -4.2002    1.1287   13.9087  H     
24   H        -4.7092    5.0074   12.3306  H     
25   H        -2.9153    2.3847    9.8603  H     
26   H        -4.6186    2.6515   10.1616  H     
27   H         1.0633    6.2081    9.6245  H     
28   H         1.4251    6.3154   12.0498  H     
29   H        -0.4172    5.6184   13.5160  H     
30   H        -8.0313    0.7110   16.4596  H     
31   H        -7.4726    1.5895   17.7778  H     
@<TRIPOS>BOND
     1    1    2 2
     2    1    3 2
     3    1    6 1
     4    1   21 am
     5    4    5 2
     6    4    9 1
     7    5    6 1
     8    5   20 1
     9    6    7 2
    10    7    8 1
    11    8    9 2
    12    8   10 1
    13   10   11 1
    14   10   12 2
    15   11   13 1
    16   13   14 1
    17   14   15 2
    18   14   19 1
    19   15   16 1
    20   16   17 2
    21   17   18 1
    22   18   19 2
    23    4   22 1
    24    7   23 1
    25    9   24 1
    26   11   25 1
    27   11   26 1
    28   16   27 1
    29   17   28 1
    30   18   29 1
    31   21   30 1
    32   21   31 1
@<TRIPOS>PROPERTY_DATA
  Total_Score	| 5.3100
  Crash		| -0.7646
  Polar		| 4.0012
  FragIndex	| 1
  FragRMSD	| 1.020

