@<TRIPOS>MOLECULE
BindingDB_50380155
 41 42 0 0 0
SMALL
NO_CHARGES


@<TRIPOS>ATOM
1    S        -5.7945    1.1690   16.3218  S     
2    O        -4.6399    1.1924   17.4166  O     
3    O        -5.6766   -0.2720   15.6662  O     
4    C        -5.8503    4.7850   14.4700  C     
5    C        -6.1026    3.7713   15.4083  C     
6    C        -5.5386    2.4885   15.2055  C     
7    C        -4.7087    2.2689   14.0850  C     
8    C        -4.4314    3.2826   13.1215  C     
9    C        -5.0415    4.5467   13.3476  C     
10   C        -3.5880    3.0174   12.0145  C     
11   C        -3.7528    3.5341   10.6500  C     
12   O        -2.7868    2.0881   12.0994  O     
13   S        -2.2026    3.8978    9.7857  S     
14   C        -1.3896    4.9055   10.9504  C     
15   N        -1.9922    5.9716   11.5384  N     
16   C        -1.2932    6.7934   12.3725  C     
17   C         0.0171    6.5532   12.6128  C     
18   C         0.6167    5.4710   12.0310  C     
19   N        -0.0740    4.6729   11.2193  N     
20   Cl       -7.0652    4.1645   16.7497  Cl    
21   N        -7.2447    1.1398   17.1689  N     
22   O         1.8000    5.2336   12.2276  O     
23   C        -1.9850    7.9031   13.0189  C     
24   C        -1.9795    7.8129   14.5796  C     
25   C        -0.8793    8.6687   15.2478  C     
26   H        -6.2469    5.7178   14.6063  H     
27   H        -4.2982    1.3372   13.9786  H     
28   H        -4.8983    5.3310   12.7134  H     
29   H        -4.2844    2.7663   10.0748  H     
30   H        -4.3192    4.4662   10.5925  H     
31   H         0.5482    7.1637   13.1991  H     
32   H         0.3695    3.9193   10.7985  H     
33   H        -8.0501    0.8180   16.7301  H     
34   H        -7.2427    1.2801   18.1292  H     
35   H        -1.5523    8.8557   12.6764  H     
36   H        -3.0243    7.9178   12.6750  H     
37   H        -2.9462    8.1533   14.9540  H     
38   H        -1.8607    6.7759   14.9175  H     
39   H         0.1066    8.3764   14.8861  H     
40   H        -0.9164    8.5217   16.3269  H     
41   H        -1.0371    9.7255   15.0310  H     
@<TRIPOS>BOND
     1    1    2 2
     2    1    3 2
     3    1    6 1
     4    1   21 am
     5    4    5 2
     6    4    9 1
     7    5    6 1
     8    5   20 1
     9    6    7 2
    10    7    8 1
    11    8    9 2
    12    8   10 1
    13   10   11 1
    14   10   12 2
    15   11   13 1
    16   13   14 1
    17   14   15 2
    18   14   19 1
    19   15   16 1
    20   16   17 2
    21   16   23 1
    22   17   18 1
    23   18   19 1
    24   18   22 2
    25   23   24 1
    26   24   25 1
    27    4   26 1
    28    7   27 1
    29    9   28 1
    30   11   29 1
    31   11   30 1
    32   17   31 1
    33   19   32 1
    34   21   33 1
    35   21   34 1
    36   23   35 1
    37   23   36 1
    38   24   37 1
    39   24   38 1
    40   25   39 1
    41   25   40 1
    42   25   41 1
@<TRIPOS>PROPERTY_DATA
  Total_Score	| 7.0460
  Crash		| -1.0491
  Polar		| 3.9377
  FragIndex	| 1
  FragRMSD	| 1.388

