@<TRIPOS>MOLECULE
BindingDB_50380158
 35 36 0 0 0
SMALL
NO_CHARGES


@<TRIPOS>ATOM
1    O        -4.5573    1.2633   17.3955  O     
2    S        -5.6894    1.2139   16.2758  S     
3    O        -5.5767   -0.2571   15.6834  O     
4    C        -5.3860    2.4415   15.0680  C     
5    C        -5.9499    3.7415   15.1468  C     
6    C        -5.7175    4.6653   14.1083  C     
7    C        -4.9146    4.3243   13.0117  C     
8    C        -4.2774    3.0599   12.9369  C     
9    C        -4.5393    2.1313   13.9825  C     
10   C        -3.3714    2.7498   11.9135  C     
11   O        -2.3351    2.1704   12.2216  O     
12   C        -3.6228    2.8998   10.4804  C     
13   S        -3.5393    4.5779    9.8065  S     
14   C        -2.0434    5.0995   10.5188  C     
15   N        -2.0861    5.7741   11.6939  N     
16   C        -0.9687    6.2411   12.2790  C     
17   C         0.2273    6.0572   11.6774  C     
18   C         0.2788    5.3826   10.4840  C     
19   N        -0.8349    4.9195    9.9156  N     
20   O         1.3453    5.2052    9.9112  O     
21   C        -1.1272    6.9395   13.5407  C     
22   Cl       -6.8600    4.2824   16.4727  Cl    
23   N        -7.1586    1.2105   17.0788  N     
24   H        -6.1112    5.6064   14.1618  H     
25   H        -4.7522    5.0377   12.2995  H     
26   H        -4.0941    1.2118   13.9483  H     
27   H        -2.9085    2.3015    9.9103  H     
28   H        -4.6145    2.5025   10.2539  H     
29   H         1.0666    6.4028   12.0838  H     
30   H        -0.7852    4.4473    9.0671  H     
31   H        -1.7708    7.8057   13.3903  H     
32   H        -0.1783    7.2836   13.9508  H     
33   H        -1.5954    6.2767   14.2694  H     
34   H        -7.9457    0.8191   16.6565  H     
35   H        -7.2098    1.4941   18.0104  H     
@<TRIPOS>BOND
     1    1    2 2
     2    2    3 2
     3    2    4 1
     4    2   23 am
     5    4    5 1
     6    4    9 2
     7    5    6 2
     8    5   22 1
     9    6    7 1
    10    7    8 2
    11    8    9 1
    12    8   10 1
    13   10   11 2
    14   10   12 1
    15   12   13 1
    16   13   14 1
    17   14   15 2
    18   14   19 1
    19   15   16 1
    20   16   17 2
    21   16   21 1
    22   17   18 1
    23   18   19 1
    24   18   20 2
    25    6   24 1
    26    7   25 1
    27    9   26 1
    28   12   27 1
    29   12   28 1
    30   17   29 1
    31   19   30 1
    32   21   31 1
    33   21   32 1
    34   21   33 1
    35   23   34 1
    36   23   35 1
@<TRIPOS>PROPERTY_DATA
  Total_Score	| 5.7273
  Crash		| -0.6886
  Polar		| 4.0735
  FragIndex	| 1
  FragRMSD	| 1.053

