@<TRIPOS>MOLECULE
BindingDB_50380151
 40 41 0 0 0
SMALL
NO_CHARGES


@<TRIPOS>ATOM
1    S        -5.7030    1.1663   16.3158  S     
2    O        -4.5159    1.1966   17.3751  O     
3    O        -5.5729   -0.2903   15.6807  O     
4    C        -5.7816    4.7115   14.3151  C     
5    C        -6.0328    3.7359   15.2976  C     
6    C        -5.4544    2.4437   15.1507  C     
7    C        -4.6058    2.1977   14.0605  C     
8    C        -4.3383    3.1658   13.0528  C     
9    C        -4.9631    4.4323   13.2100  C     
10   C        -3.4801    2.8556   11.9877  C     
11   C        -3.6337    3.3294   10.6112  C     
12   O        -2.6664    1.9482   12.1389  O     
13   S        -2.0902    3.7576    9.7493  S     
14   C        -1.5558    5.0922   10.7333  C     
15   N        -0.2457    5.2646   11.0629  N     
16   C         0.1403    6.2589   11.9010  C     
17   C        -0.8247    7.1441   12.4685  C     
18   C        -2.1386    6.9934   12.0280  C     
19   N        -2.4741    5.9516   11.1918  N     
20   Cl       -6.9663    4.1936   16.6331  Cl    
21   N        -7.1324    1.0936   17.1837  N     
22   C        -0.4491    8.2547   13.3902  C     
23   C        -1.5003    8.6197   14.4964  C     
24   C        -0.9650    8.5530   15.9408  C     
25   H        -6.1885    5.6496   14.4044  H     
26   H        -4.1740    1.2682   13.9742  H     
27   H        -4.7874    5.1833   12.5449  H     
28   H        -4.0778    2.5119   10.0520  H     
29   H        -4.3471    4.1578   10.5167  H     
30   H         1.1329    6.3735   12.1103  H     
31   H        -2.9016    7.5748   12.3479  H     
32   H        -7.9323    0.7312   16.7712  H     
33   H        -7.1890    1.5134   18.0530  H     
34   H         0.5199    8.0283   13.8544  H     
35   H        -0.2966    9.1332   12.7516  H     
36   H        -1.8624    9.6367   14.3115  H     
37   H        -2.3701    7.9612   14.4611  H     
38   H        -0.6365    7.5392   16.1581  H     
39   H        -1.7646    8.8199   16.6356  H     
40   H        -0.1307    9.2400   16.0754  H     
@<TRIPOS>BOND
     1    1    2 2
     2    1    3 2
     3    1    6 1
     4    1   21 am
     5    4    5 2
     6    4    9 1
     7    5    6 1
     8    5   20 1
     9    6    7 2
    10    7    8 1
    11    8    9 2
    12    8   10 1
    13   10   11 1
    14   10   12 2
    15   11   13 1
    16   13   14 1
    17   14   15 2
    18   14   19 1
    19   15   16 1
    20   16   17 2
    21   17   18 1
    22   17   22 1
    23   18   19 2
    24   22   23 1
    25   23   24 1
    26    4   25 1
    27    7   26 1
    28    9   27 1
    29   11   28 1
    30   11   29 1
    31   16   30 1
    32   18   31 1
    33   21   32 1
    34   21   33 1
    35   22   34 1
    36   22   35 1
    37   23   36 1
    38   23   37 1
    39   24   38 1
    40   24   39 1
    41   24   40 1
@<TRIPOS>PROPERTY_DATA
  Total_Score	| 7.0650
  Crash		| -1.1013
  Polar		| 3.8669
  FragIndex	| 1
  FragRMSD	| 1.059

