@<TRIPOS>MOLECULE
BindingDB_50380141
 43 44 0 0 0
SMALL
NO_CHARGES


@<TRIPOS>ATOM
1    S        -5.7637    1.1566   16.3248  S     
2    O        -4.6595    1.2256   17.4654  O     
3    O        -5.6168   -0.3097   15.7328  O     
4    C        -5.7083    4.6826   14.2767  C     
5    C        -5.9882    3.7221   15.2665  C     
6    C        -5.4495    2.4174   15.1503  C     
7    C        -4.6059    2.1245   14.0538  C     
8    C        -4.3065    3.0800   13.0466  C     
9    C        -4.8786    4.3691   13.1877  C     
10   C        -3.4619    2.7502   11.9720  C     
11   C        -3.5655    3.3015   10.6259  C     
12   O        -2.6871    1.8071   12.0931  O     
13   S        -1.9652    3.7687    9.9156  S     
14   C        -1.6272    5.2069   10.8280  C     
15   N        -0.3460    5.5060   11.1593  N     
16   C        -0.0249    6.6607   11.7975  C     
17   C        -1.0228    7.5999   12.1245  C     
18   C        -2.3431    7.2714   11.7407  C     
19   N        -2.6063    6.1002   11.1065  N     
20   Cl       -6.9420    4.2208   16.5783  Cl    
21   N        -7.2516    1.1515   17.1075  N     
22   C        -0.7034    8.8702   12.8290  C     
23   C        -0.3567    8.7419   14.3435  C     
24   C        -1.5624    8.5813   15.3179  C     
25   C        -2.4724    7.3597   15.0548  C     
26   H        -6.0919    5.6291   14.3490  H     
27   H        -4.2028    1.1866   13.9828  H     
28   H        -4.6649    5.1190   12.5258  H     
29   H        -3.9750    2.5222    9.9838  H     
30   H        -4.2503    4.1454   10.5535  H     
31   H         0.9521    6.8385   12.0291  H     
32   H        -3.1183    7.9043   11.9401  H     
33   H        -8.0209    0.7680   16.6618  H     
34   H        -7.2953    1.3412   18.0569  H     
35   H         0.1591    9.3156   12.3230  H     
36   H        -1.5308    9.5808   12.7364  H     
37   H         0.3456    7.9172   14.4927  H     
38   H         0.1716    9.6589   14.6327  H     
39   H        -1.1595    8.4718   16.3335  H     
40   H        -2.1681    9.4930   15.2996  H     
41   H        -3.0663    7.4836   14.1468  H     
42   H        -3.1676    7.2220   15.8877  H     
43   H        -1.8541    6.4645   14.9476  H     
@<TRIPOS>BOND
     1    1    2 2
     2    1    3 2
     3    1    6 1
     4    1   21 am
     5    4    5 2
     6    4    9 1
     7    5    6 1
     8    5   20 1
     9    6    7 2
    10    7    8 1
    11    8    9 2
    12    8   10 1
    13   10   11 1
    14   10   12 2
    15   11   13 1
    16   13   14 1
    17   14   15 2
    18   14   19 1
    19   15   16 1
    20   16   17 2
    21   17   18 1
    22   17   22 1
    23   18   19 2
    24   22   23 1
    25   23   24 1
    26   24   25 1
    27    4   26 1
    28    7   27 1
    29    9   28 1
    30   11   29 1
    31   11   30 1
    32   16   31 1
    33   18   32 1
    34   21   33 1
    35   21   34 1
    36   22   35 1
    37   22   36 1
    38   23   37 1
    39   23   38 1
    40   24   39 1
    41   24   40 1
    42   25   41 1
    43   25   42 1
    44   25   43 1
@<TRIPOS>PROPERTY_DATA
  Total_Score	| 7.0990
  Crash		| -0.9993
  Polar		| 3.9178
  FragIndex	| 1
  FragRMSD	| 1.103

