@<TRIPOS>MOLECULE
BindingDB_50380138
 48 50 0 0 0
SMALL
NO_CHARGES


@<TRIPOS>ATOM
1    S        -5.6825    1.2328   16.1942  S     
2    O        -4.5853    1.2899   17.3387  O     
3    O        -5.5878   -0.2449   15.6272  O     
4    C        -5.6803    4.6860   14.0388  C     
5    C        -5.9210    3.7637   15.0750  C     
6    C        -5.3683    2.4604   14.9925  C     
7    C        -4.5125    2.1433   13.9112  C     
8    C        -4.2310    3.0791   12.8823  C     
9    C        -4.8542    4.3494   12.9521  C     
10   C        -3.3047    2.7745   11.8853  C     
11   C        -3.6413    2.5115   10.4892  C     
12   O        -2.1745    2.4689   12.2396  O     
13   S        -3.6369    3.9172    9.3534  S     
14   C        -2.4542    4.9975   10.0190  C     
15   N        -2.8400    6.2684   10.2782  N     
16   C        -2.0125    7.1352   10.8489  C     
17   C        -0.7303    6.7649   11.2386  C     
18   C        -0.3352    5.4855   10.9488  C     
19   N        -1.1868    4.6313   10.3514  N     
20   Cl       -6.8235    4.3130   16.4030  Cl    
21   N        -7.1889    1.2593   16.9313  N     
22   C         0.0510    7.6473   12.1204  C     
23   C        -0.5283    7.8983   13.4725  C     
24   C        -1.7515    7.3504   13.9462  C     
25   C        -2.2383    7.6457   15.2336  C     
26   C        -1.5048    8.4945   16.0805  C     
27   C        -0.2980    9.0633   15.6362  C     
28   C         0.1831    8.7599   14.3490  C     
29   C         0.9595    4.9134   11.3103  C     
30   O        -2.4698    8.2580   11.0207  O     
31   H        -6.0761    5.6302   14.0842  H     
32   H        -4.0866    1.2116   13.8670  H     
33   H        -4.6662    5.0703   12.2483  H     
34   H        -2.9521    1.7806   10.0622  H     
35   H        -4.6382    2.0680   10.4520  H     
36   H        -3.7428    6.5368   10.0547  H     
37   H        -7.9519    0.8636   16.4875  H     
38   H        -7.2865    1.6096   17.8307  H     
39   H         1.0599    7.2428   12.2478  H     
40   H         0.1973    8.6112   11.6410  H     
41   H        -2.3186    6.7404   13.3568  H     
42   H        -3.1298    7.2489   15.5549  H     
43   H        -1.8586    8.7062   17.0153  H     
44   H         0.2275    9.6871   16.2544  H     
45   H         1.0630    9.1888   14.0498  H     
46   H         1.7545    5.4706   10.8182  H     
47   H         1.0502    3.8721   11.0006  H     
48   H         1.0978    4.9508   12.3924  H     
@<TRIPOS>BOND
     1    1    2 2
     2    1    3 2
     3    1    6 1
     4    1   21 am
     5    4    5 2
     6    4    9 1
     7    5    6 1
     8    5   20 1
     9    6    7 2
    10    7    8 1
    11    8    9 2
    12    8   10 1
    13   10   11 1
    14   10   12 2
    15   11   13 1
    16   13   14 1
    17   14   15 1
    18   14   19 2
    19   15   16 1
    20   16   17 1
    21   16   30 2
    22   17   18 2
    23   17   22 1
    24   18   19 1
    25   18   29 1
    26   22   23 1
    27   23   24 2
    28   23   28 1
    29   24   25 1
    30   25   26 2
    31   26   27 1
    32   27   28 2
    33    4   31 1
    34    7   32 1
    35    9   33 1
    36   11   34 1
    37   11   35 1
    38   15   36 1
    39   21   37 1
    40   21   38 1
    41   22   39 1
    42   22   40 1
    43   24   41 1
    44   25   42 1
    45   26   43 1
    46   27   44 1
    47   28   45 1
    48   29   46 1
    49   29   47 1
    50   29   48 1
@<TRIPOS>PROPERTY_DATA
  Total_Score	| 7.4486
  Crash		| -1.4593
  Polar		| 4.1648
  FragIndex	| 1
  FragRMSD	| 1.336

