@<TRIPOS>MOLECULE
BindingDB_50380139
 33 34 0 0 0
SMALL
NO_CHARGES


@<TRIPOS>ATOM
1    S        -5.7733    1.1325   16.3560  S     
2    O        -4.6203    1.1884   17.4485  O     
3    O        -5.6389   -0.3271   15.7436  O     
4    C        -5.7591    4.6809   14.3387  C     
5    C        -6.0261    3.7074   15.3215  C     
6    C        -5.5026    2.4004   15.1777  C     
7    C        -4.6767    2.1142   14.0681  C     
8    C        -4.3901    3.0794   13.0721  C     
9    C        -4.9565    4.3723   13.2288  C     
10   C        -3.5615    2.7597   11.9820  C     
11   C        -3.7424    3.2919   10.6408  C     
12   O        -2.6874    1.9090   12.1214  O     
13   S        -2.3098    4.2875   10.1383  S     
14   C        -2.9622    4.9560    8.6649  C     
15   C        -2.3753    4.6583    7.4117  C     
16   C        -2.9074    5.2134    6.2291  C     
17   C        -4.0199    6.0740    6.2918  C     
18   C        -4.5934    6.3898    7.5389  C     
19   C        -4.0543    5.8491    8.7169  C     
20   Cl       -6.9407    4.1928   16.6675  Cl    
21   N        -7.2195    1.0968   17.1954  N     
22   H        -6.1262    5.6342   14.4384  H     
23   H        -4.2836    1.1726   13.9784  H     
24   H        -4.7663    5.1200   12.5584  H     
25   H        -3.8595    2.4601    9.9435  H     
26   H        -4.6565    3.8867   10.5747  H     
27   H        -1.5659    4.0397    7.3511  H     
28   H        -2.4865    4.9935    5.3217  H     
29   H        -4.4086    6.4758    5.4344  H     
30   H        -5.3981    7.0192    7.5855  H     
31   H        -4.4669    6.1054    9.6187  H     
32   H        -8.0141    0.7293   16.7752  H     
33   H        -7.2848    1.5095   18.0706  H     
@<TRIPOS>BOND
     1    1    2 2
     2    1    3 2
     3    1    6 1
     4    1   21 am
     5    4    5 2
     6    4    9 1
     7    5    6 1
     8    5   20 1
     9    6    7 2
    10    7    8 1
    11    8    9 2
    12    8   10 1
    13   10   11 1
    14   10   12 2
    15   11   13 1
    16   13   14 1
    17   14   15 2
    18   14   19 1
    19   15   16 1
    20   16   17 2
    21   17   18 1
    22   18   19 2
    23    4   22 1
    24    7   23 1
    25    9   24 1
    26   11   25 1
    27   11   26 1
    28   15   27 1
    29   16   28 1
    30   17   29 1
    31   18   30 1
    32   19   31 1
    33   21   32 1
    34   21   33 1
@<TRIPOS>PROPERTY_DATA
  Total_Score	| 7.1662
  Crash		| -0.7949
  Polar		| 3.8898
  FragIndex	| 1
  FragRMSD	| 1.130

