@<TRIPOS>MOLECULE
BindingDB_50380152
 37 38 0 0 0
SMALL
NO_CHARGES


@<TRIPOS>ATOM
1    S        -5.7820    1.1701   16.3068  S     
2    O        -4.7456    1.1775   17.5078  O     
3    O        -5.6158   -0.2695   15.6539  O     
4    C        -5.7922    4.6987   14.2888  C     
5    C        -6.0310    3.7344   15.2863  C     
6    C        -5.4646    2.4439   15.1509  C     
7    C        -4.6145    2.1743   14.0589  C     
8    C        -4.3464    3.1344   13.0465  C     
9    C        -4.9674    4.4038   13.1882  C     
10   C        -3.4882    2.8302   11.9732  C     
11   C        -3.5527    3.3982   10.6316  C     
12   O        -2.6687    1.9218   12.1123  O     
13   S        -1.9488    3.9731   10.0007  S     
14   C        -1.4788    5.1880   11.1585  C     
15   N        -0.1594    5.5014   11.2735  N     
16   C         0.2765    6.4517   12.1306  C     
17   C        -0.6409    7.1661   12.9387  C     
18   C        -2.0079    6.8305   12.7878  C     
19   N        -2.3893    5.8607   11.9134  N     
20   Cl       -6.9690    4.2057   16.6219  Cl    
21   N        -7.3237    1.1106   16.9603  N     
22   C        -0.2034    8.2487   13.8615  C     
23   C        -0.9485    8.2503   15.2167  C     
24   H        -6.2068    5.6316   14.3631  H     
25   H        -4.1937    1.2457   13.9845  H     
26   H        -4.8090    5.1497   12.5032  H     
27   H        -3.8786    2.6189    9.9430  H     
28   H        -4.2686    4.2127   10.5559  H     
29   H         1.2781    6.6455   12.1734  H     
30   H        -2.7214    7.3228   13.3380  H     
31   H        -7.9805    0.4848   16.6113  H     
32   H        -7.5248    1.6191   17.7669  H     
33   H         0.8744    8.1681   14.0594  H     
34   H        -0.3707    9.2107   13.3758  H     
35   H        -1.9837    8.5701   15.0738  H     
36   H        -0.4493    8.9369   15.9089  H     
37   H        -0.9491    7.2501   15.6617  H     
@<TRIPOS>BOND
     1    1    2 2
     2    1    3 2
     3    1    6 1
     4    1   21 am
     5    4    5 2
     6    4    9 1
     7    5    6 1
     8    5   20 1
     9    6    7 2
    10    7    8 1
    11    8    9 2
    12    8   10 1
    13   10   11 1
    14   10   12 2
    15   11   13 1
    16   13   14 1
    17   14   15 2
    18   14   19 1
    19   15   16 1
    20   16   17 2
    21   17   18 1
    22   17   22 1
    23   18   19 2
    24   22   23 1
    25    4   24 1
    26    7   25 1
    27    9   26 1
    28   11   27 1
    29   11   28 1
    30   16   29 1
    31   18   30 1
    32   21   31 1
    33   21   32 1
    34   22   33 1
    35   22   34 1
    36   23   35 1
    37   23   36 1
    38   23   37 1
@<TRIPOS>PROPERTY_DATA
  Total_Score	| 6.7320
  Crash		| -0.9442
  Polar		| 3.9063
  FragIndex	| 1
  FragRMSD	| 1.033

