@<TRIPOS>MOLECULE
BindingDB_50329836
 41 44 0 0 0
SMALL
NO_CHARGES


@<TRIPOS>ATOM
1    C        -5.8466    4.7049   14.4018  C     
2    C        -6.0805    3.7266   15.3849  C     
3    C        -5.5339    2.4311   15.2238  C     
4    C        -4.7160    2.1675   14.1010  C     
5    C        -4.4562    3.1431   13.1006  C     
6    C        -5.0568    4.4154   13.2763  C     
7    Cl       -6.9919    4.1887   16.7402  Cl    
8    C        -3.6291    2.8367   12.0015  C     
9    C        -3.8347    3.3089   10.6328  C     
10   O        -2.7732    1.9679   12.1354  O     
11   S        -5.8149    1.1396   16.3688  S     
12   N        -7.3003    1.1004   17.1520  N     
13   O        -5.6474   -0.3066   15.7347  O     
14   O        -4.7020    1.2065   17.5000  O     
15   S        -2.3089    3.5985    9.6895  S     
16   C        -1.5087    4.8437   10.6018  C     
17   N        -1.8833    5.3938   11.7701  N     
18   N        -0.3467    5.3904   10.1951  N     
19   C         0.0037    6.2967   11.1194  C     
20   C        -0.9635    6.2996   12.1206  C     
21   N         1.2052    7.9583   12.2441  N     
22   C         1.0965    7.1438   11.2015  C     
23   C         0.2976    8.0109   13.2632  C     
24   C        -0.8411    7.1552   13.2418  C     
25   C        -1.7623    7.1792   14.3094  C     
26   C        -1.5544    8.0571   15.3896  C     
27   C        -0.4352    8.9109   15.4065  C     
28   C         0.4891    8.8913   14.3447  C     
29   H        -6.2375    5.6447   14.5069  H     
30   H        -4.3081    1.2330   14.0055  H     
31   H        -4.8999    5.1733   12.6115  H     
32   H        -4.3782    2.5263   10.1001  H     
33   H        -4.4466    4.2067   10.5695  H     
34   H        -7.3391    1.2351   18.1125  H     
35   H        -8.0793    0.7618   16.6832  H     
36   H        -2.6771    5.1736   12.2752  H     
37   H         1.7900    7.1462   10.4949  H     
38   H        -2.5777    6.5606   14.3105  H     
39   H        -2.2211    8.0761   16.1641  H     
40   H        -0.2884    9.5427   16.1963  H     
41   H         1.3068    9.5062   14.3725  H     
@<TRIPOS>BOND
     1    1    2 2
     2    1    6 1
     3    2    3 1
     4    2    7 1
     5    3    4 2
     6    3   11 1
     7    4    5 1
     8    5    6 2
     9    5    8 1
    10    8    9 1
    11    8   10 2
    12    9   15 1
    13   11   12 am
    14   11   13 2
    15   11   14 2
    16   15   16 1
    17   16   17 1
    18   16   18 2
    19   17   20 1
    20   18   19 1
    21   19   20 2
    22   19   22 1
    23   20   24 1
    24   21   22 2
    25   21   23 1
    26   23   24 1
    27   23   28 2
    28   24   25 2
    29   25   26 1
    30   26   27 2
    31   27   28 1
    32    1   29 1
    33    4   30 1
    34    6   31 1
    35    9   32 1
    36    9   33 1
    37   12   34 1
    38   12   35 1
    39   17   36 1
    40   22   37 1
    41   25   38 1
    42   26   39 1
    43   27   40 1
    44   28   41 1
@<TRIPOS>PROPERTY_DATA
  Total_Score	| 7.5836
  Crash		| -0.8899
  Polar		| 3.9125
  FragIndex	| 1
  FragRMSD	| 0.717

