@<TRIPOS>MOLECULE
BindingDB_50380153
 37 38 0 0 0
SMALL
NO_CHARGES


@<TRIPOS>ATOM
1    S        -5.8569    1.1269   16.3901  S     
2    O        -4.7748    1.2225   17.5525  O     
3    O        -5.6593   -0.3167   15.7689  O     
4    C        -5.8569    4.7191   14.4724  C     
5    C        -6.1111    3.7210   15.4325  C     
6    C        -5.5717    2.4259   15.2487  C     
7    C        -4.7549    2.1812   14.1227  C     
8    C        -4.4804    3.1702   13.1466  C     
9    C        -5.0579    4.4451   13.3523  C     
10   C        -3.6601    2.8862   12.0374  C     
11   C        -3.8822    3.3763   10.6813  C     
12   O        -2.7899    2.0294   12.1410  O     
13   S        -2.3636    3.8817    9.8233  S     
14   C        -1.6614    5.0663   10.8842  C     
15   N        -0.4686    5.5773   10.5000  N     
16   C         0.2027    6.5011   11.2326  C     
17   C        -0.3530    6.9392   12.4523  C     
18   C        -1.5914    6.4081   12.8537  C     
19   N        -2.2021    5.4834   12.0596  N     
20   Cl       -7.0430    4.1668   16.7858  Cl    
21   N        -7.3554    1.0753   17.1428  N     
22   C        -2.2092    6.8463   14.1164  C     
23   C         1.4970    6.9991   10.7261  C     
24   H        -6.2439    5.6647   14.5938  H     
25   H        -4.3607    1.2445   14.0072  H     
26   H        -4.8834    5.2224   12.7124  H     
27   H        -4.3130    2.5542   10.1013  H     
28   H        -4.5941    4.2013   10.6137  H     
29   H         0.1246    7.6339   13.0274  H     
30   H        -8.1301    0.7925   16.6361  H     
31   H        -7.4137    1.1164   18.1101  H     
32   H        -1.5212    6.6724   14.9499  H     
33   H        -3.1404    6.3116   14.3225  H     
34   H        -2.4287    7.9163   14.0622  H     
35   H         2.1986    6.1661   10.6299  H     
36   H         1.9384    7.7470   11.3916  H     
37   H         1.3517    7.4532    9.7433  H     
@<TRIPOS>BOND
     1    1    2 2
     2    1    3 2
     3    1    6 1
     4    1   21 am
     5    4    5 2
     6    4    9 1
     7    5    6 1
     8    5   20 1
     9    6    7 2
    10    7    8 1
    11    8    9 2
    12    8   10 1
    13   10   11 1
    14   10   12 2
    15   11   13 1
    16   13   14 1
    17   14   15 2
    18   14   19 1
    19   15   16 1
    20   16   17 2
    21   16   23 1
    22   17   18 1
    23   18   19 2
    24   18   22 1
    25    4   24 1
    26    7   25 1
    27    9   26 1
    28   11   27 1
    29   11   28 1
    30   17   29 1
    31   21   30 1
    32   21   31 1
    33   22   32 1
    34   22   33 1
    35   22   34 1
    36   23   35 1
    37   23   36 1
    38   23   37 1
@<TRIPOS>PROPERTY_DATA
  Total_Score	| 6.2103
  Crash		| -0.6847
  Polar		| 3.9038
  FragIndex	| 1
  FragRMSD	| 0.904

