@<TRIPOS>MOLECULE
BindingDB_50329835
 36 38 0 0 0
SMALL
NO_CHARGES


@<TRIPOS>ATOM
1    C        -5.8389    4.7147   14.3318  C     
2    C        -6.0478    3.7587   15.3358  C     
3    C        -5.4981    2.4587   15.1867  C     
4    C        -4.7019    2.1776   14.0554  C     
5    C        -4.4571    3.1420   13.0417  C     
6    C        -5.0627    4.4175   13.1990  C     
7    Cl       -6.9173    4.2518   16.7043  Cl    
8    C        -3.6347    2.8443   11.9457  C     
9    C        -3.8376    3.3046   10.5754  C     
10   O        -2.6857    2.0722   12.1217  O     
11   S        -5.7472    1.1890   16.3627  S     
12   N        -7.2005    1.2244   17.2037  N     
13   O        -5.6506   -0.2628   15.7181  O     
14   O        -4.5825    1.3123   17.4404  O     
15   S        -2.3189    3.7264    9.6755  S     
16   C        -1.6084    4.9598   10.6719  C     
17   N        -0.2877    5.1735   10.7338  N     
18   N        -2.2495    5.8164   11.4935  N     
19   C        -1.3043    6.5665   12.0843  C     
20   C        -0.0637    6.1593   11.6080  C     
21   C        -0.2273    8.1999   13.5147  C     
22   C        -1.4120    7.5870   13.0416  C     
23   C         1.0302    7.7941   13.0217  C     
24   C         1.1229    6.7627   12.0580  C     
25   Br       -0.3248    9.5281   14.8105  Br    
26   H        -6.2369    5.6505   14.4199  H     
27   H        -4.2929    1.2408   13.9637  H     
28   H        -4.9135    5.1600   12.5184  H     
29   H        -4.3095    2.4960   10.0171  H     
30   H        -4.5131    4.1547   10.5154  H     
31   H        -7.2364    0.9297   18.1381  H     
32   H        -7.9853    1.6567   16.8091  H     
33   H         0.3925    4.6805   10.2456  H     
34   H        -2.3224    7.8680   13.3998  H     
35   H         1.8848    8.2409   13.3675  H     
36   H         2.0333    6.4540   11.7105  H     
@<TRIPOS>BOND
     1    1    2 2
     2    1    6 1
     3    2    3 1
     4    2    7 1
     5    3    4 2
     6    3   11 1
     7    4    5 1
     8    5    6 2
     9    5    8 1
    10    8    9 1
    11    8   10 2
    12    9   15 1
    13   11   12 am
    14   11   13 2
    15   11   14 2
    16   15   16 1
    17   16   17 1
    18   16   18 2
    19   17   20 1
    20   18   19 1
    21   19   20 2
    22   19   22 1
    23   20   24 1
    24   21   22 2
    25   21   23 1
    26   21   25 1
    27   23   24 2
    28    1   26 1
    29    4   27 1
    30    6   28 1
    31    9   29 1
    32    9   30 1
    33   12   31 1
    34   12   32 1
    35   17   33 1
    36   22   34 1
    37   23   35 1
    38   24   36 1
@<TRIPOS>PROPERTY_DATA
  Total_Score	| 5.9035
  Crash		| -0.8735
  Polar		| 4.0118
  FragIndex	| 1
  FragRMSD	| 1.376

