@<TRIPOS>MOLECULE
BindingDB_22435
 63 65 0 0 0
SMALL
NO_CHARGES


@<TRIPOS>ATOM
1    C        17.2499    2.4984   29.7407  C     
2    C        17.7987    1.8788   28.5974  C     
3    C        18.9971    1.1568   28.6872  C     
4    C        19.7018    1.0536   29.9155  C     
5    C        19.1636    1.7146   31.0552  C     
6    C        17.9481    2.4133   30.9683  C     
7    O        15.9779    3.0116   29.6752  O     
8    C        15.8083    4.2021   28.8881  C     
9    C        14.2835    4.3933   28.6974  C     
10   N        13.7384    5.7568   29.0261  N     
11   C        12.2801    5.8510   28.7207  C     
12   C        14.0469    6.2085   30.4129  C     
13   C        20.8917    0.3069   29.9947  C     
14   C        20.9674   -0.9095   30.6182  C     
15   C        19.8216   -1.5341   31.1540  C     
16   C        17.9140   -3.0610   30.8990  C     
17   C        19.0234   -2.3796   30.3503  C     
18   C        19.4964   -1.4135   32.5277  C     
19   C        18.3866   -2.0898   33.0764  C     
20   C        17.5877   -2.9036   32.2550  C     
21   C        22.2119   -1.7064   30.7305  C     
22   C        22.0046    0.9115   29.3830  C     
23   C        22.7261    0.2694   28.3419  C     
24   C        23.8277    0.9099   27.7321  C     
25   C        24.2136    2.2009   28.1409  C     
26   C        23.4947    2.8589   29.1589  C     
27   C        22.4026    2.2186   29.7730  C     
28   O        25.2740    2.8070   27.5466  O     
29   C        22.2126   -2.9624   29.7987  C     
30   C        23.6039   -3.6325   29.6767  C     
31   O        24.4962   -3.1809   30.6956  O     
32   H        17.2927    1.9173   27.7037  H     
33   H        19.3363    0.6790   27.8468  H     
34   H        19.6535    1.6811   31.9552  H     
35   H        17.5548    2.8388   31.8109  H     
36   H        16.2404    5.0594   29.4009  H     
37   H        16.2841    4.0748   27.9155  H     
38   H        14.0729    4.1817   27.6418  H     
39   H        13.7576    3.6318   29.2869  H     
40   H        14.2024    6.4084   28.3973  H     
41   H        12.0967    5.6424   27.6642  H     
42   H        11.9088    6.8605   28.9188  H     
43   H        11.7004    5.1476   29.3226  H     
44   H        13.6868    5.4961   31.1595  H     
45   H        13.5932    7.1864   30.6101  H     
46   H        15.1165    6.3553   30.5354  H     
47   H        17.3561   -3.6892   30.3067  H     
48   H        19.2419   -2.5087   29.3556  H     
49   H        20.0586   -0.8178   33.1513  H     
50   H        18.1567   -1.9841   34.0709  H     
51   H        16.7933   -3.4125   32.6488  H     
52   H        23.0944   -1.0914   30.5041  H     
53   H        22.3494   -2.0341   31.7773  H     
54   H        22.4354   -0.6468   27.9952  H     
55   H        24.3441    0.4299   26.9899  H     
56   H        23.7568    3.8012   29.4465  H     
57   H        21.8944    2.7176   30.5142  H     
58   H        24.9479    3.7078   27.2847  H     
59   H        21.4971   -3.6965   30.1891  H     
60   H        21.9000   -2.6965   28.7850  H     
61   H        23.5039   -4.7143   29.7408  H     
62   H        24.0384   -3.3821   28.7112  H     
63   H        24.9486   -3.9781   31.0543  H     
@<TRIPOS>BOND
     1    1    2 2
     2    1    6 1
     3    1    7 1
     4    2    3 1
     5    3    4 2
     6    4    5 1
     7    4   13 1
     8    5    6 2
     9    7    8 1
    10    8    9 1
    11    9   10 1
    12   10   11 1
    13   10   12 1
    14   13   14 2
    15   13   22 1
    16   14   15 1
    17   14   21 1
    18   15   17 2
    19   15   18 1
    20   16   17 1
    21   16   20 2
    22   18   19 2
    23   19   20 1
    24   21   29 1
    25   22   23 1
    26   22   27 2
    27   23   24 2
    28   24   25 1
    29   25   26 2
    30   25   28 1
    31   26   27 1
    32   29   30 1
    33   30   31 1
    34    2   32 1
    35    3   33 1
    36    5   34 1
    37    6   35 1
    38    8   36 1
    39    8   37 1
    40    9   38 1
    41    9   39 1
    42   10   40 1
    43   11   41 1
    44   11   42 1
    45   11   43 1
    46   12   44 1
    47   12   45 1
    48   12   46 1
    49   16   47 1
    50   17   48 1
    51   18   49 1
    52   19   50 1
    53   20   51 1
    54   21   52 1
    55   21   53 1
    56   23   54 1
    57   24   55 1
    58   26   56 1
    59   27   57 1
    60   28   58 1
    61   29   59 1
    62   29   60 1
    63   30   61 1
    64   30   62 1
    65   31   63 1
@<TRIPOS>PROPERTY_DATA
  Total_Score	| 13.1701
  Crash		| -1.4742
  Polar		| 5.8531
  FragIndex	| 1
  FragRMSD	| 0.559

