@<TRIPOS>MOLECULE
BindingDB_22425
 60 62 0 0 0
SMALL
NO_CHARGES


@<TRIPOS>ATOM
1    C        17.3247    2.3264   29.8506  C     
2    C        18.0116    2.2024   31.0731  C     
3    C        19.2496    1.5388   31.1196  C     
4    C        19.8072    0.9799   29.9433  C     
5    C        19.1178    1.1376   28.7154  C     
6    C        17.8757    1.7876   28.6733  C     
7    O        16.0637    2.8420   29.8079  O     
8    C        15.8733    4.0741   29.0704  C     
9    C        14.4063    4.0923   28.5818  C     
10   N        13.8121    5.4713   28.5159  N     
11   C        13.1009    5.7153   27.2300  C     
12   C        12.9356    5.8006   29.6817  C     
13   C        21.0133    0.2475   29.9907  C     
14   C        21.1038   -0.9571   30.6359  C     
15   C        19.9339   -1.5903   31.0908  C     
16   C        18.3377   -2.1205   32.8928  C     
17   C        19.5035   -1.4694   32.4350  C     
18   C        19.1521   -2.3847   30.2129  C     
19   C        17.9895   -3.0448   30.6655  C     
20   C        17.5778   -2.9023   32.0046  C     
21   C        22.3721   -1.6289   30.9717  C     
22   C        22.0844    0.8706   29.3421  C     
23   C        22.8423    0.1773   28.3698  C     
24   C        23.8900    0.8165   27.6769  C     
25   C        24.1991    2.1653   27.9411  C     
26   C        23.4490    2.8709   28.9014  C     
27   C        22.4076    2.2302   29.5946  C     
28   O        25.1825    2.7783   27.2384  O     
29   C        22.3400   -3.1855   31.0497  C     
30   C        22.5851   -3.8277   29.8612  C     
31   N        22.7914   -4.3876   28.8692  N     
32   H        17.6043    2.5759   31.9357  H     
33   H        19.7261    1.4401   32.0158  H     
34   H        19.4975    0.7371   27.8505  H     
35   H        17.3653    1.8524   27.7948  H     
36   H        16.0961    4.9116   29.7482  H     
37   H        16.5385    4.1525   28.1997  H     
38   H        14.4179    3.6259   27.5963  H     
39   H        13.7776    3.4594   29.2196  H     
40   H        14.5850    6.1337   28.5393  H     
41   H        13.7991    5.6236   26.3935  H     
42   H        12.6905    6.7275   27.1961  H     
43   H        12.2869    4.9982   27.0865  H     
44   H        12.0307    5.1873   29.6846  H     
45   H        12.6386    6.8535   29.6470  H     
46   H        13.4564    5.6490   30.6282  H     
47   H        18.0310   -2.0172   33.8652  H     
48   H        20.0288   -0.8931   33.1030  H     
49   H        19.4373   -2.5009   29.2350  H     
50   H        17.4433   -3.6216   30.0177  H     
51   H        16.7326   -3.3743   32.3231  H     
52   H        23.1789   -1.3585   30.2736  H     
53   H        22.6992   -1.2686   31.9466  H     
54   H        22.6089   -0.7890   28.1201  H     
55   H        24.4260    0.2972   26.9743  H     
56   H        23.6571    3.8549   29.1015  H     
57   H        21.8715    2.7721   30.2895  H     
58   H        24.9012    3.7124   27.1275  H     
59   H        23.1101   -3.5151   31.7552  H     
60   H        21.3835   -3.5411   31.4080  H     
@<TRIPOS>BOND
     1    1    2 2
     2    1    6 1
     3    1    7 1
     4    2    3 1
     5    3    4 2
     6    4    5 1
     7    4   13 1
     8    5    6 2
     9    7    8 1
    10    8    9 1
    11    9   10 1
    12   10   11 1
    13   10   12 1
    14   13   14 2
    15   13   22 1
    16   14   15 1
    17   14   21 1
    18   15   17 2
    19   15   18 1
    20   16   17 1
    21   16   20 2
    22   18   19 2
    23   19   20 1
    24   21   29 1
    25   22   23 1
    26   22   27 2
    27   23   24 2
    28   24   25 1
    29   25   26 2
    30   25   28 1
    31   26   27 1
    32   29   30 1
    33   30   31 3
    34    2   32 1
    35    3   33 1
    36    5   34 1
    37    6   35 1
    38    8   36 1
    39    8   37 1
    40    9   38 1
    41    9   39 1
    42   10   40 1
    43   11   41 1
    44   11   42 1
    45   11   43 1
    46   12   44 1
    47   12   45 1
    48   12   46 1
    49   16   47 1
    50   17   48 1
    51   18   49 1
    52   19   50 1
    53   20   51 1
    54   21   52 1
    55   21   53 1
    56   23   54 1
    57   24   55 1
    58   26   56 1
    59   27   57 1
    60   28   58 1
    61   29   59 1
    62   29   60 1
@<TRIPOS>PROPERTY_DATA
  Total_Score	| 11.4969
  Crash		| -1.5000
  Polar		| 3.6647
  FragIndex	| 1
  FragRMSD	| 0.241

