@<TRIPOS>MOLECULE
BindingDB_22426
 63 65 0 0 0
SMALL
NO_CHARGES


@<TRIPOS>ATOM
1    C        17.2190    2.3851   29.9757  C     
2    C        17.7432    1.8462   28.7807  C     
3    C        18.9922    1.1972   28.7761  C     
4    C        19.7260    1.0415   29.9785  C     
5    C        19.1946    1.5976   31.1703  C     
6    C        17.9502    2.2536   31.1703  C     
7    O        15.9378    2.8661   29.9791  O     
8    C        15.7291    4.1617   29.3856  C     
9    C        14.3431    4.1419   28.6924  C     
10   N        13.7690    5.5130   28.4880  N     
11   C        13.2271    5.7097   27.1121  C     
12   C        12.7736    5.9078   29.5251  C     
13   C        20.9128    0.2896   30.0028  C     
14   C        21.0099   -0.9091   30.6638  C     
15   C        19.8607   -1.5186   31.2156  C     
16   C        18.4138   -2.0444   33.1362  C     
17   C        19.5610   -1.4252   32.6003  C     
18   C        18.9665   -2.2416   30.3840  C     
19   C        17.8172   -2.8564   30.9142  C     
20   C        17.5464   -2.7618   32.2912  C     
21   C        22.2988   -1.5903   30.9397  C     
22   C        21.9893    0.9307   29.3827  C     
23   C        22.7183    0.2864   28.3531  C     
24   C        23.8488    0.9012   27.7760  C     
25   C        24.2224    2.1958   28.1636  C     
26   C        23.4601    2.8760   29.1374  C     
27   C        22.3560    2.2478   29.7527  C     
28   O        25.2888    2.7887   27.5776  O     
29   C        22.4035   -3.1298   30.6674  C     
30   C        23.1727   -3.5923   29.4025  C     
31   C        24.3032   -2.8676   29.1715  C     
32   N        25.2525   -2.2467   28.9693  N     
33   H        17.1980    1.8914   27.9148  H     
34   H        19.3393    0.7988   27.8959  H     
35   H        19.6955    1.4983   32.0567  H     
36   H        17.5601    2.6050   32.0470  H     
37   H        15.7475    4.9133   30.1735  H     
38   H        16.4986    4.4043   28.6375  H     
39   H        14.4926    3.6412   27.7294  H     
40   H        13.6510    3.5191   29.2697  H     
41   H        14.5404    6.1729   28.5758  H     
42   H        14.0045    5.5314   26.3656  H     
43   H        12.8894    6.7408   26.9830  H     
44   H        12.3914    5.0343   26.9155  H     
45   H        11.8726    5.2891   29.4723  H     
46   H        12.4881    6.9544   29.3952  H     
47   H        13.1953    5.8164   30.5279  H     
48   H        18.2132   -1.9758   34.1376  H     
49   H        20.1675   -0.8979   33.2351  H     
50   H        19.1584   -2.3403   29.3877  H     
51   H        17.1885   -3.3804   30.2981  H     
52   H        16.7055   -3.2048   32.6778  H     
53   H        23.1322   -1.1331   30.4061  H     
54   H        22.5294   -1.4353   31.9942  H     
55   H        22.4309   -0.6421   28.0150  H     
56   H        24.3855    0.3989   27.0706  H     
57   H        23.7098    3.8390   29.4094  H     
58   H        21.8375    2.7522   30.4754  H     
59   H        24.9855    3.6917   27.3135  H     
60   H        22.8734   -3.6042   31.5399  H     
61   H        21.3948   -3.5434   30.6082  H     
62   H        23.4736   -4.6346   29.5230  H     
63   H        22.5214   -3.5191   28.5300  H     
@<TRIPOS>BOND
     1    1    2 2
     2    1    6 1
     3    1    7 1
     4    2    3 1
     5    3    4 2
     6    4    5 1
     7    4   13 1
     8    5    6 2
     9    7    8 1
    10    8    9 1
    11    9   10 1
    12   10   11 1
    13   10   12 1
    14   13   14 2
    15   13   22 1
    16   14   15 1
    17   14   21 1
    18   15   17 2
    19   15   18 1
    20   16   17 1
    21   16   20 2
    22   18   19 2
    23   19   20 1
    24   21   29 1
    25   22   23 1
    26   22   27 2
    27   23   24 2
    28   24   25 1
    29   25   26 2
    30   25   28 1
    31   26   27 1
    32   29   30 1
    33   30   31 1
    34   31   32 3
    35    2   33 1
    36    3   34 1
    37    5   35 1
    38    6   36 1
    39    8   37 1
    40    8   38 1
    41    9   39 1
    42    9   40 1
    43   10   41 1
    44   11   42 1
    45   11   43 1
    46   11   44 1
    47   12   45 1
    48   12   46 1
    49   12   47 1
    50   16   48 1
    51   17   49 1
    52   18   50 1
    53   19   51 1
    54   20   52 1
    55   21   53 1
    56   21   54 1
    57   23   55 1
    58   24   56 1
    59   26   57 1
    60   27   58 1
    61   28   59 1
    62   29   60 1
    63   29   61 1
    64   30   62 1
    65   30   63 1
@<TRIPOS>PROPERTY_DATA
  Total_Score	| 11.9486
  Crash		| -1.6098
  Polar		| 3.6528
  FragIndex	| 1
  FragRMSD	| 0.352

