@<TRIPOS>MOLECULE
BindingDB_22428
 65 67 0 0 0
SMALL
NO_CHARGES


@<TRIPOS>ATOM
1    C        17.3008    2.6484   29.5463  C     
2    C        18.0134    2.1833   28.4086  C     
3    C        19.2369    1.4646   28.5406  C     
4    C        19.7683    1.1535   29.8251  C     
5    C        19.0380    1.5933   30.9612  C     
6    C        17.8407    2.3382   30.8262  C     
7    O        16.0745    3.3242   29.5384  O     
8    C        15.5305    3.8722   28.3171  C     
9    C        14.0341    4.2549   28.5433  C     
10   N        13.8086    5.6457   29.0789  N     
11   C        12.3693    6.0506   29.1033  C     
12   C        14.4555    5.8692   30.4104  C     
13   C        20.9529    0.3975   29.9621  C     
14   C        20.9747   -0.8261   30.6038  C     
15   C        19.7838   -1.3733   31.1195  C     
16   C        17.7995   -2.7988   30.8761  C     
17   C        18.9205   -2.1504   30.3122  C     
18   C        19.4700   -1.2132   32.5015  C     
19   C        18.3532   -1.8599   33.0559  C     
20   C        17.5227   -2.6444   32.2467  C     
21   C        22.2192   -1.5924   30.8843  C     
22   C        22.1028    1.0166   29.4522  C     
23   C        22.5174    2.2859   29.9452  C     
24   C        23.6616    2.9181   29.4173  C     
25   C        24.4070    2.3090   28.3865  C     
26   C        24.0407    1.0262   27.9371  C     
27   C        22.9315    0.3613   28.5049  C     
28   O        25.4799    2.9294   27.8251  O     
29   C        22.2820   -2.9679   30.1159  C     
30   C        23.5984   -3.7732   30.3468  C     
31   N        24.7561   -3.0078   30.4382  N     
32   N        25.3762   -2.5608   29.5563  N     
33   N        25.9857   -2.0828   28.6919  N     
34   H        17.6292    2.3296   27.4626  H     
35   H        19.7287    1.1775   27.6780  H     
36   H        19.3807    1.3683   31.9099  H     
37   H        17.3389    2.6411   31.6777  H     
38   H        16.0929    4.7552   28.0087  H     
39   H        15.5735    3.1536   27.4984  H     
40   H        13.5241    4.1679   27.5766  H     
41   H        13.5708    3.5242   29.2211  H     
42   H        14.2590    6.2759   28.4095  H     
43   H        11.9110    5.9311   28.1165  H     
44   H        12.2956    7.1092   29.3728  H     
45   H        11.7989    5.4647   29.8306  H     
46   H        13.9990    5.2080   31.1669  H     
47   H        14.3236    6.9265   30.7116  H     
48   H        15.5381    5.6550   30.3549  H     
49   H        17.1826   -3.3588   30.2813  H     
50   H        19.1360   -2.3056   29.3199  H     
51   H        20.0800   -0.6532   33.1043  H     
52   H        18.1519   -1.7488   34.0598  H     
53   H        16.7011   -3.1041   32.6517  H     
54   H        23.0915   -1.0064   30.5366  H     
55   H        22.2952   -1.7464   31.9950  H     
56   H        22.0067    2.7519   30.7044  H     
57   H        23.9488    3.8333   29.7768  H     
58   H        24.6074    0.5548   27.2310  H     
59   H        22.7248   -0.6042   28.2236  H     
60   H        25.2585    3.8808   27.8007  H     
61   H        21.4567   -3.6216   30.4517  H     
62   H        22.1477   -2.7931   29.0309  H     
63   H        23.5103   -4.3155   31.2920  H     
64   H        23.6999   -4.5039   29.5585  H     
65   H        26.3042   -1.2054   28.7898  H     
@<TRIPOS>BOND
     1    1    2 2
     2    1    6 1
     3    1    7 1
     4    2    3 1
     5    3    4 2
     6    4    5 1
     7    4   13 1
     8    5    6 2
     9    7    8 1
    10    8    9 1
    11    9   10 1
    12   10   11 1
    13   10   12 1
    14   13   14 2
    15   13   22 1
    16   14   15 1
    17   14   21 1
    18   15   17 2
    19   15   18 1
    20   16   17 1
    21   16   20 2
    22   18   19 2
    23   19   20 1
    24   21   29 1
    25   22   23 1
    26   22   27 2
    27   23   24 2
    28   24   25 1
    29   25   26 2
    30   25   28 1
    31   26   27 1
    32   29   30 1
    33   30   31 1
    34   31   32 2
    35   32   33 2
    36    2   34 1
    37    3   35 1
    38    5   36 1
    39    6   37 1
    40    8   38 1
    41    8   39 1
    42    9   40 1
    43    9   41 1
    44   10   42 1
    45   11   43 1
    46   11   44 1
    47   11   45 1
    48   12   46 1
    49   12   47 1
    50   12   48 1
    51   16   49 1
    52   17   50 1
    53   18   51 1
    54   19   52 1
    55   20   53 1
    56   21   54 1
    57   21   55 1
    58   23   56 1
    59   24   57 1
    60   26   58 1
    61   27   59 1
    62   28   60 1
    63   29   61 1
    64   29   62 1
    65   30   63 1
    66   30   64 1
    67   33   65 1
@<TRIPOS>PROPERTY_DATA
  Total_Score	| 12.9750
  Crash		| -1.5336
  Polar		| 4.7933
  FragIndex	| 1
  FragRMSD	| 0.298

