@<TRIPOS>MOLECULE
BindingDB_22424
 62 64 0 0 0
SMALL
NO_CHARGES


@<TRIPOS>ATOM
1    C        17.5618    2.4824   29.3874  C     
2    C        17.9852    2.2382   30.7047  C     
3    C        19.1693    1.5122   30.9486  C     
4    C        19.9428    1.0136   29.8719  C     
5    C        19.4912    1.2406   28.5526  C     
6    C        18.3007    1.9474   28.3186  C     
7    O        16.3747    3.1207   29.1483  O     
8    C        16.4305    4.2839   28.2963  C     
9    C        15.0723    4.4799   27.5812  C     
10   N        14.0223    5.2217   28.3576  N     
11   C        12.7233    5.2826   27.6211  C     
12   C        13.8221    4.7532   29.7608  C     
13   C        21.1282    0.2862   30.0811  C     
14   C        21.1746   -0.8663   30.8186  C     
15   C        19.9980   -1.4256   31.3648  C     
16   C        18.6790   -2.1806   33.3041  C     
17   C        19.8586   -1.6317   32.7636  C     
18   C        18.9276   -1.8268   30.5255  C     
19   C        17.7443   -2.3657   31.0662  C     
20   C        17.6172   -2.5399   32.4578  C     
21   C        22.4450   -1.5615   31.1775  C     
22   C        22.2496    0.9137   29.5164  C     
23   C        22.9738    0.3069   28.4647  C     
24   C        24.0656    0.9602   27.8590  C     
25   C        24.4278    2.2604   28.2676  C     
26   C        23.6927    2.8925   29.2870  C     
27   C        22.6234    2.2237   29.9143  C     
28   O        25.4607    2.8958   27.6524  O     
29   C        22.4796   -3.1347   31.0868  C     
30   C        23.1751   -3.7358   29.8388  C     
31   Cl       22.3295   -3.3375   28.3383  Cl    
32   H        17.4356    2.5842   31.4933  H     
33   H        19.4613    1.3504   31.9102  H     
34   H        20.0112    0.8773   27.7493  H     
35   H        17.9743    2.0676   27.3609  H     
36   H        16.6818    5.1696   28.8855  H     
37   H        17.2001    4.1714   27.5277  H     
38   H        15.2795    5.0506   26.6673  H     
39   H        14.6945    3.4963   27.2697  H     
40   H        14.3527    6.1874   28.4159  H     
41   H        12.8680    5.6975   26.6213  H     
42   H        12.0243    5.9405   28.1461  H     
43   H        12.2699    4.2935   27.5311  H     
44   H        13.5984    3.6808   29.7830  H     
45   H        13.0107    5.3074   30.2430  H     
46   H        14.7234    4.9478   30.3510  H     
47   H        18.5866   -2.3026   34.3176  H     
48   H        20.6076   -1.3628   33.4131  H     
49   H        19.0026   -1.7321   29.5098  H     
50   H        16.9727   -2.6342   30.4503  H     
51   H        16.7532   -2.9285   32.8507  H     
52   H        23.2931   -1.2110   30.5942  H     
53   H        22.6874   -1.2761   32.2100  H     
54   H        22.7061   -0.6033   28.1043  H     
55   H        24.5933    0.4929   27.1162  H     
56   H        23.9316    3.8479   29.5689  H     
57   H        22.1103    2.7135   30.6540  H     
58   H        25.1416    3.8210   27.5038  H     
59   H        23.0402   -3.4929   31.9567  H     
60   H        21.4800   -3.5601   31.1713  H     
61   H        24.2175   -3.3946   29.7799  H     
62   H        23.1711   -4.8286   29.9310  H     
@<TRIPOS>BOND
     1    1    2 2
     2    1    6 1
     3    1    7 1
     4    2    3 1
     5    3    4 2
     6    4    5 1
     7    4   13 1
     8    5    6 2
     9    7    8 1
    10    8    9 1
    11    9   10 1
    12   10   11 1
    13   10   12 1
    14   13   14 2
    15   13   22 1
    16   14   15 1
    17   14   21 1
    18   15   17 2
    19   15   18 1
    20   16   17 1
    21   16   20 2
    22   18   19 2
    23   19   20 1
    24   21   29 1
    25   22   23 1
    26   22   27 2
    27   23   24 2
    28   24   25 1
    29   25   26 2
    30   25   28 1
    31   26   27 1
    32   29   30 1
    33   30   31 1
    34    2   32 1
    35    3   33 1
    36    5   34 1
    37    6   35 1
    38    8   36 1
    39    8   37 1
    40    9   38 1
    41    9   39 1
    42   10   40 1
    43   11   41 1
    44   11   42 1
    45   11   43 1
    46   12   44 1
    47   12   45 1
    48   12   46 1
    49   16   47 1
    50   17   48 1
    51   18   49 1
    52   19   50 1
    53   20   51 1
    54   21   52 1
    55   21   53 1
    56   23   54 1
    57   24   55 1
    58   26   56 1
    59   27   57 1
    60   28   58 1
    61   29   59 1
    62   29   60 1
    63   30   61 1
    64   30   62 1
@<TRIPOS>PROPERTY_DATA
  Total_Score	| 11.5417
  Crash		| -2.1865
  Polar		| 3.7291
  FragIndex	| 1
  FragRMSD	| 0.623

