@<TRIPOS>MOLECULE
BindingDB_20608
 59 61 0 0 0
SMALL
NO_CHARGES


@<TRIPOS>ATOM
1    C        20.9977   -0.8684   30.6615  C     
2    C        19.8243   -1.5205   31.0655  C     
3    C        19.3412   -1.4177   32.3944  C     
4    C        18.1850   -2.1172   32.7927  C     
5    C        17.4982   -2.9265   31.8683  C     
6    C        17.9663   -3.0308   30.5430  C     
7    C        19.1181   -2.3286   30.1453  C     
8    C        22.2403   -1.5957   31.0053  C     
9    C        22.4105   -2.9564   30.2695  C     
10   C        20.9438    0.3259   29.9939  C     
11   C        19.7360    1.0358   29.8409  C     
12   C        19.0267    1.4888   30.9797  C     
13   C        19.1974    1.3178   28.5604  C     
14   C        17.9815    2.0097   28.4349  C     
15   C        17.3159    2.5308   29.5730  C     
16   C        17.8447    2.2355   30.8413  C     
17   O        16.1418    3.2530   29.5531  O     
18   C        15.6217    3.8304   28.3223  C     
19   C        14.1266    4.2154   28.5370  C     
20   N        13.8913    5.5941   29.0643  N     
21   C        12.4515    5.9939   29.0507  C     
22   C        14.5097    5.8395   30.4048  C     
23   C        22.0697    0.9158   29.4014  C     
24   C        23.8988    0.8344   27.7586  C     
25   C        22.8302    0.2143   28.4293  C     
26   C        22.4434    2.2505   29.7022  C     
27   C        23.5029    2.8774   29.0190  C     
28   C        24.2307    2.1731   28.0443  C     
29   O        25.2471    2.7684   27.3655  O     
30   H        19.8277   -0.8364   33.0838  H     
31   H        17.8471   -2.0477   33.7587  H     
32   H        16.6611   -3.4416   32.1568  H     
33   H        17.4739   -3.6291   29.8758  H     
34   H        19.4512   -2.4339   29.1836  H     
35   H        23.1308   -0.9949   30.8065  H     
36   H        22.2598   -1.7962   32.0842  H     
37   H        21.6581   -3.6758   30.6097  H     
38   H        23.4021   -3.3746   30.4825  H     
39   H        22.3126   -2.8316   29.1866  H     
40   H        19.3705    1.2801   31.9227  H     
41   H        19.6718    0.9900   27.7135  H     
42   H        17.5893    2.1218   27.5034  H     
43   H        17.3603    2.5639   31.6788  H     
44   H        16.2098    4.7045   27.9925  H     
45   H        15.6394    3.0856   27.5169  H     
46   H        13.6251    4.1362   27.5694  H     
47   H        13.6663    3.4882   29.2064  H     
48   H        14.3505    6.2328   28.4113  H     
49   H        12.0031    5.8157   28.0731  H     
50   H        12.3632    7.0643   29.2548  H     
51   H        11.8703    5.4520   29.8001  H     
52   H        14.0370    5.2107   31.1629  H     
53   H        14.4139    6.8856   30.6846  H     
54   H        15.5752    5.6154   30.3942  H     
55   H        24.4283    0.3152   27.0489  H     
56   H        22.5972   -0.7497   28.1850  H     
57   H        21.9475    2.7766   30.4250  H     
58   H        23.7464    3.8491   29.2395  H     
59   H        24.9836    3.7113   27.2641  H     
@<TRIPOS>BOND
     1    1    2 1
     2    1    8 1
     3    1   10 2
     4    2    3 2
     5    2    7 1
     6    3    4 1
     7    4    5 2
     8    5    6 1
     9    6    7 2
    10    8    9 1
    11   10   11 1
    12   10   23 1
    13   11   12 2
    14   11   13 1
    15   12   16 1
    16   13   14 2
    17   14   15 1
    18   15   16 2
    19   15   17 1
    20   17   18 1
    21   18   19 1
    22   19   20 1
    23   20   21 1
    24   20   22 1
    25   23   25 2
    26   23   26 1
    27   24   25 1
    28   24   28 2
    29   26   27 2
    30   27   28 1
    31   28   29 1
    32    3   30 1
    33    4   31 1
    34    5   32 1
    35    6   33 1
    36    7   34 1
    37    8   35 1
    38    8   36 1
    39    9   37 1
    40    9   38 1
    41    9   39 1
    42   12   40 1
    43   13   41 1
    44   14   42 1
    45   16   43 1
    46   18   44 1
    47   18   45 1
    48   19   46 1
    49   19   47 1
    50   20   48 1
    51   21   49 1
    52   21   50 1
    53   21   51 1
    54   22   52 1
    55   22   53 1
    56   22   54 1
    57   24   55 1
    58   25   56 1
    59   26   57 1
    60   27   58 1
    61   29   59 1
@<TRIPOS>PROPERTY_DATA
  Total_Score	| 11.2921
  Crash		| -0.7966
  Polar		| 3.6758
  FragIndex	| 1
  FragRMSD	| 0.312

