@<TRIPOS>MOLECULE
BindingDB_22423
 59 61 0 0 0
SMALL
NO_CHARGES


@<TRIPOS>ATOM
1    C        17.2589    2.4755   29.5902  C     
2    C        17.8257    1.9003   28.4347  C     
3    C        19.0082    1.1386   28.5270  C     
4    C        19.6431    0.9336   29.7803  C     
5    C        19.0570    1.5134   30.9324  C     
6    C        17.8800    2.2735   30.8374  C     
7    O        16.0886    3.1820   29.5248  O     
8    C        16.2256    4.6055   29.3380  C     
9    C        14.9595    5.3229   29.8814  C     
10   N        13.8907    5.5711   28.8616  N     
11   C        13.5966    4.3950   27.9872  C     
12   C        12.6501    6.1193   29.4923  C     
13   C        20.8540    0.2181   29.8791  C     
14   C        20.9895   -0.9386   30.6040  C     
15   C        19.8627   -1.5848   31.1365  C     
16   C        17.8609   -2.9797   30.8407  C     
17   C        19.0116   -2.3592   30.3142  C     
18   C        19.5185   -1.4369   32.5062  C     
19   C        18.3688   -2.0558   33.0343  C     
20   C        17.5399   -2.8304   32.2009  C     
21   C        22.2867   -1.5878   30.9254  C     
22   C        21.9514    0.8850   29.3265  C     
23   C        22.3186    2.1704   29.8019  C     
24   C        23.4337    2.8480   29.2692  C     
25   C        24.2128    2.2483   28.2613  C     
26   C        23.8665    0.9676   27.7867  C     
27   C        22.7471    0.2891   28.3187  C     
28   O        25.2777    2.8970   27.7277  O     
29   C        22.3184   -3.1224   30.7051  C     
30   Cl       22.4569   -3.5670   28.9989  Cl    
31   H        17.3704    2.0266   27.5254  H     
32   H        19.4056    0.7355   27.6712  H     
33   H        19.4977    1.4058   31.8476  H     
34   H        17.4732    2.6814   31.6818  H     
35   H        17.0917    4.9961   29.8808  H     
36   H        16.3564    4.8247   28.2777  H     
37   H        14.5558    4.7585   30.7273  H     
38   H        15.2878    6.2930   30.2664  H     
39   H        14.2487    6.3158   28.2631  H     
40   H        14.4717    4.1569   27.3742  H     
41   H        12.7677    4.6176   27.3047  H     
42   H        13.3342    3.5163   28.5834  H     
43   H        12.1727    5.3826   30.1410  H     
44   H        11.9367    6.4250   28.7228  H     
45   H        12.8825    7.0094   30.0838  H     
46   H        17.2646   -3.5523   30.2398  H     
47   H        19.2270   -2.4869   29.3221  H     
48   H        20.1034   -0.8792   33.1353  H     
49   H        18.1280   -1.9337   34.0225  H     
50   H        16.6971   -3.2694   32.5829  H     
51   H        23.1168   -1.1562   30.3563  H     
52   H        22.5181   -1.3959   31.9838  H     
53   H        21.7843    2.6206   30.5471  H     
54   H        23.6674    3.7811   29.6159  H     
55   H        24.4339    0.5214   27.0650  H     
56   H        22.5028   -0.6234   27.9329  H     
57   H        25.0272    3.8451   27.7099  H     
58   H        23.1854   -3.5486   31.2308  H     
59   H        21.4070   -3.5829   31.1076  H     
@<TRIPOS>BOND
     1    1    2 2
     2    1    6 1
     3    1    7 1
     4    2    3 1
     5    3    4 2
     6    4    5 1
     7    4   13 1
     8    5    6 2
     9    7    8 1
    10    8    9 1
    11    9   10 1
    12   10   11 1
    13   10   12 1
    14   13   14 2
    15   13   22 1
    16   14   15 1
    17   14   21 1
    18   15   17 2
    19   15   18 1
    20   16   17 1
    21   16   20 2
    22   18   19 2
    23   19   20 1
    24   21   29 1
    25   22   23 1
    26   22   27 2
    27   23   24 2
    28   24   25 1
    29   25   26 2
    30   25   28 1
    31   26   27 1
    32   29   30 1
    33    2   31 1
    34    3   32 1
    35    5   33 1
    36    6   34 1
    37    8   35 1
    38    8   36 1
    39    9   37 1
    40    9   38 1
    41   10   39 1
    42   11   40 1
    43   11   41 1
    44   11   42 1
    45   12   43 1
    46   12   44 1
    47   12   45 1
    48   16   46 1
    49   17   47 1
    50   18   48 1
    51   19   49 1
    52   20   50 1
    53   21   51 1
    54   21   52 1
    55   23   53 1
    56   24   54 1
    57   26   55 1
    58   27   56 1
    59   28   57 1
    60   29   58 1
    61   29   59 1
@<TRIPOS>PROPERTY_DATA
  Total_Score	| 10.7842
  Crash		| -1.5107
  Polar		| 3.5209
  FragIndex	| 1
  FragRMSD	| 0.367

