@<TRIPOS>MOLECULE
BindingDB_22429
 66 68 0 0 0
SMALL
NO_CHARGES


@<TRIPOS>ATOM
1    C        17.1622    2.6088   29.6212  C     
2    C        17.6421    2.2555   30.8989  C     
3    C        18.8592    1.5599   31.0471  C     
4    C        19.6143    1.1727   29.9118  C     
5    C        19.1245    1.5077   28.6263  C     
6    C        17.9122    2.2068   28.4868  C     
7    O        15.9451    3.2513   29.5692  O     
8    C        15.5104    3.8688   28.3471  C     
9    C        14.0228    4.2926   28.4269  C     
10   N        13.7578    5.6625   28.9911  N     
11   C        12.3028    5.9926   29.0143  C     
12   C        14.3909    5.9006   30.3209  C     
13   C        20.8158    0.4633   30.0420  C     
14   C        20.8855   -0.7346   30.6982  C     
15   C        19.7321   -1.3761   31.1885  C     
16   C        17.8046   -2.8570   30.8411  C     
17   C        18.9157   -2.1577   30.3339  C     
18   C        19.4007   -1.3081   32.5680  C     
19   C        18.2885   -2.0099   33.0744  C     
20   C        17.4966   -2.7867   32.2108  C     
21   C        22.1338   -1.4959   30.9098  C     
22   C        21.9269    1.0593   29.4260  C     
23   C        22.4083    2.3201   29.8588  C     
24   C        23.5506    2.8955   29.2665  C     
25   C        24.2347    2.2195   28.2395  C     
26   C        23.7714    0.9638   27.8067  C     
27   C        22.6125    0.4050   28.3769  C     
28   O        25.3147    2.7820   27.6224  O     
29   C        22.1876   -2.8597   30.1338  C     
30   C        23.4057   -3.0456   29.1891  C     
31   S        24.9750   -2.5260   29.9345  S     
32   C        25.8712   -2.0353   28.4437  C     
33   H        17.1092    2.4955   31.7312  H     
34   H        19.1939    1.3295   31.9886  H     
35   H        19.6317    1.2298   27.7866  H     
36   H        17.5771    2.4241   27.5486  H     
37   H        16.1204    4.7444   28.1065  H     
38   H        15.6006    3.1475   27.5221  H     
39   H        13.6391    4.2680   27.4006  H     
40   H        13.4709    3.5372   28.9986  H     
41   H        14.1909    6.3222   28.3498  H     
42   H        11.8731    5.8900   28.0050  H     
43   H        12.1469    7.0341   29.3198  H     
44   H        11.7532    5.3399   29.6908  H     
45   H        14.1060    5.1378   31.0403  H     
46   H        14.1121    6.8839   30.7153  H     
47   H        15.4786    5.9020   30.2282  H     
48   H        17.2274   -3.4167   30.2111  H     
49   H        19.1377   -2.2364   29.3366  H     
50   H        19.9703   -0.7486   33.2127  H     
51   H        18.0637   -1.9561   34.0700  H     
52   H        16.6962   -3.2978   32.5777  H     
53   H        23.0066   -0.9071   30.6538  H     
54   H        22.2570   -1.6861   31.9728  H     
55   H        21.9404    2.8290   30.6132  H     
56   H        23.8790    3.8126   29.5937  H     
57   H        24.2662    0.4575   27.0730  H     
58   H        22.2954   -0.4979   28.0334  H     
59   H        25.0525    3.7025   27.3905  H     
60   H        22.1777   -3.6791   30.8613  H     
61   H        21.2967   -2.9792   29.5051  H     
62   H        23.4952   -4.1115   28.9289  H     
63   H        23.2142   -2.4995   28.2519  H     
64   H        25.9226   -2.8645   27.7404  H     
65   H        26.8765   -1.7410   28.7408  H     
66   H        25.3748   -1.1901   27.9669  H     
@<TRIPOS>BOND
     1    1    2 2
     2    1    6 1
     3    1    7 1
     4    2    3 1
     5    3    4 2
     6    4    5 1
     7    4   13 1
     8    5    6 2
     9    7    8 1
    10    8    9 1
    11    9   10 1
    12   10   11 1
    13   10   12 1
    14   13   14 2
    15   13   22 1
    16   14   15 1
    17   14   21 1
    18   15   17 2
    19   15   18 1
    20   16   17 1
    21   16   20 2
    22   18   19 2
    23   19   20 1
    24   21   29 1
    25   22   23 1
    26   22   27 2
    27   23   24 2
    28   24   25 1
    29   25   26 2
    30   25   28 1
    31   26   27 1
    32   29   30 1
    33   30   31 1
    34   31   32 1
    35    2   33 1
    36    3   34 1
    37    5   35 1
    38    6   36 1
    39    8   37 1
    40    8   38 1
    41    9   39 1
    42    9   40 1
    43   10   41 1
    44   11   42 1
    45   11   43 1
    46   11   44 1
    47   12   45 1
    48   12   46 1
    49   12   47 1
    50   16   48 1
    51   17   49 1
    52   18   50 1
    53   19   51 1
    54   20   52 1
    55   21   53 1
    56   21   54 1
    57   23   55 1
    58   24   56 1
    59   26   57 1
    60   27   58 1
    61   28   59 1
    62   29   60 1
    63   29   61 1
    64   30   62 1
    65   30   63 1
    66   32   64 1
    67   32   65 1
    68   32   66 1
@<TRIPOS>PROPERTY_DATA
  Total_Score	| 11.2630
  Crash		| -2.5458
  Polar		| 4.1552
  FragIndex	| 1
  FragRMSD	| 0.714

