@<TRIPOS>MOLECULE
BindingDB_16409
 80 83 0 0 0
SMALL
NO_CHARGES


@<TRIPOS>ATOM
1    C        28.2043   44.4717    0.4671  C     
2    C        29.2624   45.2539    0.9839  C     
3    C        30.4429   44.6623    1.5000  C     
4    C        30.5343   43.2539    1.4576  C     
5    C        29.5112   42.4300    0.9380  C     
6    C        28.3434   43.0710    0.4433  C     
7    C        31.4756   45.4335    2.0420  C     
8    O        31.5543   46.6220    1.7589  O     
9    N        32.3322   44.9120    2.9151  N     
10   C        33.3292   45.6020    3.6758  C     
11   C        29.6816   41.0381    0.8488  C     
12   O        29.0996   40.4065   -0.0212  O     
13   N        30.5320   40.3979    1.6565  N     
14   C        31.0747   39.0780    1.4819  C     
15   C        31.8774   37.0504    2.9914  C     
16   C        32.0487   39.0370    0.2513  C     
17   C        31.7122   38.5993    2.8240  C     
18   O        32.9562   39.2761    2.9984  O     
19   N        27.0515   45.0747    0.0261  N     
20   C        26.7552   47.8101    1.1579  C     
21   S        26.1875   46.0948    1.0677  S     
22   O        24.6504   46.0733    0.6629  O     
23   O        26.1836   45.4524    2.5248  O     
24   C        34.5553   44.6887    3.9310  C     
25   C        33.1428   40.0502    0.2696  C     
26   C        33.0009   41.2641   -0.4345  C     
27   C        33.9851   42.2710   -0.3734  C     
28   C        35.1306   42.0703    0.4151  C     
29   C        35.2933   40.8758    1.1237  C     
30   C        34.3213   39.8538    1.0299  C     
31   N        30.8788   36.3996    3.8670  N     
32   C        29.8979   35.4663    3.2623  C     
33   C        29.6079   35.2463    1.7608  C     
34   C        30.6356   34.3673    2.4608  C     
35   C        32.6957   46.0705    4.9452  C     
36   C        32.3923   45.1618    5.9868  C     
37   C        32.3376   47.4248    5.1099  C     
38   C        31.7081   47.8674    6.2908  C     
39   C        31.4072   46.9495    7.3100  C     
40   C        31.7489   45.5963    7.1620  C     
41   F        30.8112   47.3653    8.3997  F     
42   C        26.6181   44.8989   -1.3334  C     
43   H        29.1648   46.2627    0.9931  H     
44   H        31.4012   42.8236    1.7816  H     
45   H        27.5781   42.5100    0.0739  H     
46   H        32.1662   43.9899    3.1841  H     
47   H        33.7065   46.4580    3.0996  H     
48   H        30.9034   40.9059    2.4016  H     
49   H        30.2316   38.4187    1.2922  H     
50   H        31.8830   36.5099    2.0495  H     
51   H        32.8579   36.8625    3.4507  H     
52   H        32.4917   38.0472    0.1564  H     
53   H        31.4447   39.1725   -0.6589  H     
54   H        31.0738   38.9471    3.6447  H     
55   H        33.1359   39.2336    3.9578  H     
56   H        27.7802   47.8499    1.5239  H     
57   H        26.1210   48.3747    1.8417  H     
58   H        26.7057   48.2536    0.1655  H     
59   H        34.2627   43.7476    4.4060  H     
60   H        35.2801   45.1992    4.5750  H     
61   H        35.0411   44.4481    2.9818  H     
62   H        32.1656   41.4331   -0.9856  H     
63   H        33.8536   43.1408   -0.8945  H     
64   H        35.8296   42.8134    0.4782  H     
65   H        36.1290   40.7426    1.7020  H     
66   H        34.4822   38.9879    1.5403  H     
67   H        31.4038   35.8856    4.5845  H     
68   H        30.3546   37.1515    4.3409  H     
69   H        29.1784   35.0265    3.9538  H     
70   H        28.6352   34.7734    1.5561  H     
71   H        29.9778   36.0229    1.0673  H     
72   H        31.6660   34.5641    2.1372  H     
73   H        30.3166   33.3392    2.6512  H     
74   H        32.6342   44.1704    5.9042  H     
75   H        32.5118   48.1021    4.3628  H     
76   H        31.4746   48.8556    6.3976  H     
77   H        31.5299   44.9217    7.8980  H     
78   H        27.3728   45.2989   -2.0126  H     
79   H        25.6726   45.4016   -1.5491  H     
80   H        26.4731   43.8386   -1.5596  H     
@<TRIPOS>BOND
     1    1    2 1
     2    1    6 2
     3    1   19 1
     4    2    3 2
     5    3    4 1
     6    3    7 1
     7    4    5 2
     8    5    6 1
     9    5   11 1
    10    7    8 2
    11    7    9 am
    12    9   10 1
    13   10   24 1
    14   10   35 1
    15   11   12 2
    16   11   13 am
    17   13   14 1
    18   14   16 1
    19   14   17 1
    20   15   17 1
    21   15   31 1
    22   16   25 1
    23   17   18 1
    24   19   21 1
    25   19   42 1
    26   20   21 1
    27   21   22 2
    28   21   23 2
    29   25   26 2
    30   25   30 1
    31   26   27 1
    32   27   28 2
    33   28   29 1
    34   29   30 2
    35   31   32 1
    36   32   33 1
    37   32   34 1
    38   33   34 1
    39   35   36 1
    40   35   37 2
    41   36   40 2
    42   37   38 1
    43   38   39 2
    44   39   40 1
    45   39   41 1
    46    2   43 1
    47    4   44 1
    48    6   45 1
    49    9   46 1
    50   10   47 1
    51   13   48 1
    52   14   49 1
    53   15   50 1
    54   15   51 1
    55   16   52 1
    56   16   53 1
    57   17   54 1
    58   18   55 1
    59   20   56 1
    60   20   57 1
    61   20   58 1
    62   24   59 1
    63   24   60 1
    64   24   61 1
    65   26   62 1
    66   27   63 1
    67   28   64 1
    68   29   65 1
    69   30   66 1
    70   31   67 1
    71   31   68 1
    72   32   69 1
    73   33   70 1
    74   33   71 1
    75   34   72 1
    76   34   73 1
    77   36   74 1
    78   37   75 1
    79   38   76 1
    80   40   77 1
    81   42   78 1
    82   42   79 1
    83   42   80 1
@<TRIPOS>PROPERTY_DATA
  Total_Score	| 14.5679
  Crash		| -4.0206
  Polar		| 6.8578
  FragIndex	| 1
  FragRMSD	| 0.586

