@<TRIPOS>MOLECULE
BindingDB_16412
 85 87 0 0 0
SMALL
NO_CHARGES


@<TRIPOS>ATOM
1    C        28.1956   44.0313    0.5183  C     
2    C        29.2506   44.8027    1.0608  C     
3    C        30.4501   44.2134    1.5338  C     
4    C        30.5851   42.8132    1.4125  C     
5    C        29.5656   41.9899    0.8668  C     
6    C        28.3753   42.6311    0.4317  C     
7    C        31.4590   44.9839    2.1187  C     
8    O        31.5990   46.1552    1.7880  O     
9    N        32.2297   44.4885    3.0928  N     
10   C        33.1907   45.2014    3.8878  C     
11   C        29.7474   40.5963    0.7319  C     
12   O        29.0079   39.9651   -0.0189  O     
13   N        30.7436   39.9667    1.3557  N     
14   C        31.2203   38.6282    1.1632  C     
15   C        30.0746   36.6876    2.5383  C     
16   C        32.6309   38.6885    0.4681  C     
17   C        31.1259   37.8365    2.5221  C     
18   O        32.3799   37.2466    2.8941  O     
19   N        27.0294   44.6305    0.1017  N     
20   C        26.7967   47.3934    1.0751  C     
21   S        26.1982   45.6933    1.1237  S     
22   O        24.6332   45.6677    0.8308  O     
23   O        26.2886   45.1457    2.6150  O     
24   C        34.3740   44.2754    4.2694  C     
25   C        33.4358   39.9381    0.6475  C     
26   C        33.2419   41.0448   -0.2169  C     
27   C        34.0118   42.2161   -0.0913  C     
28   C        34.9963   42.3009    0.9057  C     
29   C        35.2064   41.2160    1.7751  C     
30   C        34.4330   40.0426    1.6478  C     
31   C        32.5222   45.7584    5.1049  C     
32   C        32.7146   47.1094    5.4809  C     
33   C        31.6967   44.9451    5.9224  C     
34   C        31.1098   45.4584    7.0920  C     
35   C        31.3336   46.7982    7.4628  C     
36   C        32.1300   47.6259    6.6502  C     
37   F        30.8143   47.2779    8.5614  F     
38   N        28.6877   37.2136    2.5125  N     
39   C        27.5166   36.2853    2.5793  C     
40   C        27.7531   35.0622    3.5184  C     
41   C        26.3404   37.1298    3.1596  C     
42   C        27.1228   35.7934    1.1527  C     
43   C        26.5043   44.3695   -1.2132  C     
44   H        29.1254   45.8251    1.1248  H     
45   H        31.4644   42.3874    1.6905  H     
46   H        27.6028   42.0650    0.0591  H     
47   H        32.0362   43.5782    3.3812  H     
48   H        33.6286   46.0083    3.2892  H     
49   H        31.2491   40.4824    1.9900  H     
50   H        30.5628   38.1115    0.4463  H     
51   H        30.2450   36.0316    1.6808  H     
52   H        30.2128   36.1071    3.4539  H     
53   H        33.2453   37.8337    0.7611  H     
54   H        32.4676   38.5470   -0.6098  H     
55   H        30.8595   38.5213    3.3325  H     
56   H        32.5956   37.6476    3.7796  H     
57   H        27.8294   47.4293    1.4319  H     
58   H        26.1756   48.0247    1.7117  H     
59   H        26.7512   47.7602    0.0470  H     
60   H        34.0226   43.3778    4.7834  H     
61   H        35.0725   44.8025    4.9218  H     
62   H        34.9094   43.9749    3.3682  H     
63   H        32.5172   41.0174   -0.9381  H     
64   H        33.8542   43.0041   -0.7228  H     
65   H        35.5557   43.1504    0.9984  H     
66   H        35.9267   41.2806    2.4981  H     
67   H        34.6072   39.2681    2.2917  H     
68   H        33.2893   47.7289    4.9068  H     
69   H        31.5239   43.9706    5.6737  H     
70   H        30.5313   44.8501    7.6774  H     
71   H        32.2915   48.5991    6.9164  H     
72   H        28.6145   37.8625    3.2957  H     
73   H        28.5803   37.7658    1.6545  H     
74   H        28.5025   34.3871    3.0979  H     
75   H        26.8324   34.4883    3.6561  H     
76   H        28.1018   35.3920    4.5017  H     
77   H        26.5791   37.4772    4.1694  H     
78   H        25.4182   36.5411    3.2126  H     
79   H        26.1478   38.0083    2.5350  H     
80   H        26.9355   36.6413    0.4905  H     
81   H        26.2173   35.1827    1.1918  H     
82   H        27.9176   35.1883    0.7139  H     
83   H        27.2835   44.5192   -1.9677  H     
84   H        25.6683   45.0254   -1.4828  H     
85   H        26.1458   43.3371   -1.2798  H     
@<TRIPOS>BOND
     1    1    2 1
     2    1    6 2
     3    1   19 1
     4    2    3 2
     5    3    4 1
     6    3    7 1
     7    4    5 2
     8    5    6 1
     9    5   11 1
    10    7    8 2
    11    7    9 am
    12    9   10 1
    13   10   24 1
    14   10   31 1
    15   11   12 2
    16   11   13 am
    17   13   14 1
    18   14   16 1
    19   14   17 1
    20   15   17 1
    21   15   38 1
    22   16   25 1
    23   17   18 1
    24   19   21 1
    25   19   43 1
    26   20   21 1
    27   21   22 2
    28   21   23 2
    29   25   26 2
    30   25   30 1
    31   26   27 1
    32   27   28 2
    33   28   29 1
    34   29   30 2
    35   31   32 1
    36   31   33 2
    37   32   36 2
    38   33   34 1
    39   34   35 2
    40   35   36 1
    41   35   37 1
    42   38   39 1
    43   39   40 1
    44   39   41 1
    45   39   42 1
    46    2   44 1
    47    4   45 1
    48    6   46 1
    49    9   47 1
    50   10   48 1
    51   13   49 1
    52   14   50 1
    53   15   51 1
    54   15   52 1
    55   16   53 1
    56   16   54 1
    57   17   55 1
    58   18   56 1
    59   20   57 1
    60   20   58 1
    61   20   59 1
    62   24   60 1
    63   24   61 1
    64   24   62 1
    65   26   63 1
    66   27   64 1
    67   28   65 1
    68   29   66 1
    69   30   67 1
    70   32   68 1
    71   33   69 1
    72   34   70 1
    73   36   71 1
    74   38   72 1
    75   38   73 1
    76   40   74 1
    77   40   75 1
    78   40   76 1
    79   41   77 1
    80   41   78 1
    81   41   79 1
    82   42   80 1
    83   42   81 1
    84   42   82 1
    85   43   83 1
    86   43   84 1
    87   43   85 1
@<TRIPOS>PROPERTY_DATA
  Total_Score	| 14.7819
  Crash		| -2.9919
  Polar		| 5.7034
  FragIndex	| 1
  FragRMSD	| 0.489

