@<TRIPOS>MOLECULE
BindingDB_16038
 73 75 0 0 0
SMALL
NO_CHARGES


@<TRIPOS>ATOM
1    C        31.0883   45.3689    6.9998  C     
2    C        31.4120   46.7056    7.2895  C     
3    C        32.2694   47.4161    6.4313  C     
4    C        32.7952   46.7943    5.2813  C     
5    C        31.6203   44.7460    5.8540  C     
6    C        32.4967   45.4431    4.9802  C     
7    C        33.1224   44.7535    3.8000  C     
8    C        34.2110   43.7399    4.2770  C     
9    N        32.1119   44.1037    3.0042  N     
10   C        31.3628   44.6610    2.0479  C     
11   O        31.6194   45.8196    1.7193  O     
12   C        30.2794   44.0055    1.4447  C     
13   C        28.0238   44.0931    0.3957  C     
14   C        29.1563   44.7272    0.9579  C     
15   C        30.2347   42.5964    1.3186  C     
16   C        29.1303   41.9210    0.7508  C     
17   C        28.0352   42.6886    0.2874  C     
18   N        26.9243   44.8208   -0.0039  N     
19   C        26.4172   44.7299   -1.3475  C     
20   C        26.7605   47.5548    1.1073  C     
21   S        26.1588   45.8551    1.1051  S     
22   O        24.5825   45.8423    0.8657  O     
23   O        26.2937   45.2593    2.5724  O     
24   F        30.9361   47.2831    8.3601  F     
25   C        29.0571   40.4394    0.6554  C     
26   O        30.1619   39.7758    1.3001  O     
27   C        29.9294   38.4171    1.7102  C     
28   C        31.1720   37.8360    2.4562  C     
29   C        32.4634   37.8123    1.5640  C     
30   C        33.0972   39.1252    1.2365  C     
31   C        34.1005   39.6722    2.0700  C     
32   C        34.7297   40.8937    1.7427  C     
33   C        34.3778   41.5678    0.5601  C     
34   C        33.3815   41.0406   -0.2781  C     
35   C        32.7584   39.8183    0.0464  C     
36   N        31.3904   38.6540    3.6683  N     
37   C        30.8407   36.3766    2.9189  C     
38   O        31.9447   35.7158    3.5363  O     
39   H        30.4604   44.8459    7.6103  H     
40   H        32.5064   48.3844    6.6388  H     
41   H        33.4102   47.3353    4.6715  H     
42   H        31.3687   43.7745    5.6613  H     
43   H        33.6488   45.4764    3.1656  H     
44   H        34.9242   44.2375    4.9508  H     
45   H        34.7777   43.3214    3.4208  H     
46   H        33.7462   42.9059    4.8115  H     
47   H        31.8754   43.2041    3.2854  H     
48   H        29.1422   45.7424    1.0279  H     
49   H        31.0311   42.0484    1.6388  H     
50   H        27.2173   42.2070   -0.1004  H     
51   H        27.2321   44.8437   -2.0671  H     
52   H        25.6788   45.5067   -1.5665  H     
53   H        25.9358   43.7625   -1.5157  H     
54   H        27.8107   47.5715    1.4020  H     
55   H        26.1888   48.1477    1.8212  H     
56   H        26.6574   47.9908    0.1113  H     
57   H        28.1206   40.1185    1.1267  H     
58   H        29.0402   40.1565   -0.4037  H     
59   H        29.0700   38.4149    2.3885  H     
60   H        29.6914   37.7927    0.8436  H     
61   H        33.2200   37.1888    2.0521  H     
62   H        32.2237   37.3037    0.6291  H     
63   H        34.3913   39.1858    2.9247  H     
64   H        35.4345   41.3041    2.3617  H     
65   H        34.8503   42.4432    0.3081  H     
66   H        33.1085   41.5393   -1.1295  H     
67   H        32.0416   39.4460   -0.5792  H     
68   H        31.4583   39.6441    3.4200  H     
69   H        32.2590   38.3685    4.1160  H     
70   H        30.6171   38.5197    4.3261  H     
71   H        30.0180   36.3747    3.6383  H     
72   H        30.5347   35.7780    2.0572  H     
73   H        31.9611   36.0223    4.4680  H     
@<TRIPOS>BOND
     1    1    2 2
     2    1    5 1
     3    2    3 1
     4    2   24 1
     5    3    4 2
     6    4    6 1
     7    5    6 2
     8    6    7 1
     9    7    8 1
    10    7    9 1
    11    9   10 am
    12   10   11 2
    13   10   12 1
    14   12   14 2
    15   12   15 1
    16   13   14 1
    17   13   17 2
    18   13   18 1
    19   15   16 2
    20   16   17 1
    21   16   25 1
    22   18   19 1
    23   18   21 1
    24   20   21 1
    25   21   22 2
    26   21   23 2
    27   25   26 1
    28   26   27 1
    29   27   28 1
    30   28   29 1
    31   28   36 1
    32   28   37 1
    33   29   30 1
    34   30   31 2
    35   30   35 1
    36   31   32 1
    37   32   33 2
    38   33   34 1
    39   34   35 2
    40   37   38 1
    41    1   39 1
    42    3   40 1
    43    4   41 1
    44    5   42 1
    45    7   43 1
    46    8   44 1
    47    8   45 1
    48    8   46 1
    49    9   47 1
    50   14   48 1
    51   15   49 1
    52   17   50 1
    53   19   51 1
    54   19   52 1
    55   19   53 1
    56   20   54 1
    57   20   55 1
    58   20   56 1
    59   25   57 1
    60   25   58 1
    61   27   59 1
    62   27   60 1
    63   29   61 1
    64   29   62 1
    65   31   63 1
    66   32   64 1
    67   33   65 1
    68   34   66 1
    69   35   67 1
    70   36   68 1
    71   36   69 1
    72   36   70 1
    73   37   71 1
    74   37   72 1
    75   38   73 1
@<TRIPOS>PROPERTY_DATA
  Total_Score	| 17.3962
  Crash		| -1.6662
  Polar		| 8.6620
  FragIndex	| 1
  FragRMSD	| 0.238

