@<TRIPOS>MOLECULE
BindingDB_16411
 79 81 0 0 0
SMALL
NO_CHARGES


@<TRIPOS>ATOM
1    C        28.1630   44.4725    0.4404  C     
2    C        29.2261   45.1986    1.0295  C     
3    C        30.3986   44.5571    1.5034  C     
4    C        30.4820   43.1521    1.3526  C     
5    C        29.4570   42.3772    0.7444  C     
6    C        28.3014   43.0722    0.3003  C     
7    C        31.4300   45.2898    2.0978  C     
8    O        31.6068   46.4586    1.7651  O     
9    N        32.1865   44.7673    3.0601  N     
10   C        33.2060   45.4366    3.8127  C     
11   C        29.6002   40.9911    0.5486  C     
12   O        28.6703   40.3589    0.0414  O     
13   N        30.7387   40.3493    0.8353  N     
14   C        31.1030   39.0121    0.4671  C     
15   C        31.5285   38.1003    2.8805  C     
16   C        32.6180   38.9585    0.0329  C     
17   C        30.6887   37.9973    1.5841  C     
18   O        29.2956   38.1571    1.8667  O     
19   N        27.0214   45.1161    0.0122  N     
20   C        26.7613   47.7946    1.1917  C     
21   S        26.1611   46.0930    1.0981  S     
22   O        24.6087   46.0835    0.7248  O     
23   O        26.1922   45.4396    2.5453  O     
24   C        34.4003   44.4695    4.0284  C     
25   C        33.4456   40.1705    0.2870  C     
26   C        34.3981   40.1877    1.3433  C     
27   C        35.2374   41.3049    1.5354  C     
28   C        35.1520   42.4066    0.6716  C     
29   C        34.2037   42.4141   -0.3702  C     
30   C        33.3529   41.3014   -0.5494  C     
31   C        32.6066   45.9500    5.0820  C     
32   C        32.2863   45.0781    6.1529  C     
33   C        32.3037   47.3255    5.2350  C     
34   C        31.7141   47.8148    6.4160  C     
35   C        31.4400   46.9411    7.4818  C     
36   C        31.7253   45.5697    7.3471  C     
37   F        30.9254   47.4029    8.5877  F     
38   N        31.2537   37.0432    3.8799  N     
39   C        31.2194   35.6391    3.4047  C     
40   C        29.7977   35.1670    3.0041  C     
41   C        26.5875   45.0233   -1.3583  C     
42   H        29.1277   46.2128    1.1250  H     
43   H        31.3359   42.6896    1.6769  H     
44   H        27.5326   42.5548   -0.1363  H     
45   H        31.9697   43.8631    3.3480  H     
46   H        33.6074   46.2679    3.2222  H     
47   H        31.4304   40.8640    1.2812  H     
48   H        30.5272   38.7401   -0.4175  H     
49   H        32.5927   38.0480    2.6165  H     
50   H        31.3404   39.0580    3.3623  H     
51   H        33.1004   38.1137    0.5196  H     
52   H        32.6720   38.7521   -1.0384  H     
53   H        30.8198   36.9812    1.1972  H     
54   H        29.1785   38.1145    2.8426  H     
55   H        27.8026   47.7995    1.5215  H     
56   H        26.1558   48.3586    1.9040  H     
57   H        26.6864   48.2591    0.2052  H     
58   H        34.0705   43.5310    4.4880  H     
59   H        35.1536   44.9350    4.6731  H     
60   H        34.8645   44.2387    3.0619  H     
61   H        34.4777   39.3967    1.9813  H     
62   H        35.9209   41.3038    2.2989  H     
63   H        35.7813   43.2087    0.7949  H     
64   H        34.1390   43.2224   -0.9944  H     
65   H        32.6656   41.3403   -1.3011  H     
66   H        32.4613   44.0724    6.0695  H     
67   H        32.4897   47.9840    4.4732  H     
68   H        31.4854   48.8104    6.4997  H     
69   H        31.5266   44.9250    8.1154  H     
70   H        31.9987   37.1028    4.5812  H     
71   H        30.3786   37.2556    4.3596  H     
72   H        31.8988   35.4824    2.5644  H     
73   H        31.5671   35.0083    4.2245  H     
74   H        29.1221   35.2533    3.8648  H     
75   H        29.8355   34.1151    2.6947  H     
76   H        29.4112   35.7599    2.1727  H     
77   H        27.3981   45.3254   -2.0232  H     
78   H        25.7346   45.6686   -1.5676  H     
79   H        26.2979   43.9984   -1.5924  H     
@<TRIPOS>BOND
     1    1    2 1
     2    1    6 2
     3    1   19 1
     4    2    3 2
     5    3    4 1
     6    3    7 1
     7    4    5 2
     8    5    6 1
     9    5   11 1
    10    7    8 2
    11    7    9 am
    12    9   10 1
    13   10   24 1
    14   10   31 1
    15   11   12 2
    16   11   13 am
    17   13   14 1
    18   14   16 1
    19   14   17 1
    20   15   17 1
    21   15   38 1
    22   16   25 1
    23   17   18 1
    24   19   21 1
    25   19   41 1
    26   20   21 1
    27   21   22 2
    28   21   23 2
    29   25   26 2
    30   25   30 1
    31   26   27 1
    32   27   28 2
    33   28   29 1
    34   29   30 2
    35   31   32 1
    36   31   33 2
    37   32   36 2
    38   33   34 1
    39   34   35 2
    40   35   36 1
    41   35   37 1
    42   38   39 1
    43   39   40 1
    44    2   42 1
    45    4   43 1
    46    6   44 1
    47    9   45 1
    48   10   46 1
    49   13   47 1
    50   14   48 1
    51   15   49 1
    52   15   50 1
    53   16   51 1
    54   16   52 1
    55   17   53 1
    56   18   54 1
    57   20   55 1
    58   20   56 1
    59   20   57 1
    60   24   58 1
    61   24   59 1
    62   24   60 1
    63   26   61 1
    64   27   62 1
    65   28   63 1
    66   29   64 1
    67   30   65 1
    68   32   66 1
    69   33   67 1
    70   34   68 1
    71   36   69 1
    72   38   70 1
    73   38   71 1
    74   39   72 1
    75   39   73 1
    76   40   74 1
    77   40   75 1
    78   40   76 1
    79   41   77 1
    80   41   78 1
    81   41   79 1
@<TRIPOS>PROPERTY_DATA
  Total_Score	| 15.6311
  Crash		| -3.9249
  Polar		| 7.6650
  FragIndex	| 1
  FragRMSD	| 0.509

