@<TRIPOS>MOLECULE
BindingDB_16410
 73 75 0 0 0
SMALL
NO_CHARGES


@<TRIPOS>ATOM
1    C        28.2669   43.7180    0.6066  C     
2    C        29.2951   44.5012    1.1935  C     
3    C        30.4948   43.9484    1.7104  C     
4    C        30.6825   42.5439    1.5735  C     
5    C        29.7027   41.7124    0.9853  C     
6    C        28.5102   42.3188    0.5187  C     
7    C        31.4619   44.7390    2.3213  C     
8    O        31.4101   45.9707    2.2232  O     
9    N        32.3530   44.2210    3.1661  N     
10   C        33.3419   44.9020    3.9347  C     
11   C        29.9862   40.3486    0.7558  C     
12   O        29.5639   39.8687   -0.2930  O     
13   N        30.7693   39.6039    1.5528  N     
14   C        31.3598   38.3290    1.1965  C     
15   C        31.1204   36.1862    2.8226  C     
16   C        32.8974   38.2971    1.5628  C     
17   C        30.5471   37.0725    1.6702  C     
18   O        29.1968   37.4466    2.0401  O     
19   N        27.0990   44.3112    0.1338  N     
20   C        26.9014   47.2400    0.9259  C     
21   S        26.2994   45.5309    1.0091  S     
22   O        24.7583   45.5917    0.5873  O     
23   O        26.1692   45.1012    2.5293  O     
24   C        34.5297   43.9528    4.2596  C     
25   C        33.6826   39.5221    1.2294  C     
26   C        33.6729   40.0651   -0.0763  C     
27   C        34.4127   41.2234   -0.3659  C     
28   C        35.2073   41.8165    0.6272  C     
29   C        35.2694   41.2555    1.9127  C     
30   C        34.4935   40.1273    2.2210  C     
31   N        31.2392   36.8784    4.1175  N     
32   C        32.7341   45.4843    5.1738  C     
33   C        32.8828   46.8627    5.4499  C     
34   C        31.9719   44.7051    6.0770  C     
35   C        31.3347   45.2929    7.1886  C     
36   C        31.4789   46.6696    7.4372  C     
37   C        32.2558   47.4512    6.5618  C     
38   F        30.8815   47.2246    8.4556  F     
39   C        26.4059   43.8131   -1.0288  C     
40   H        29.1536   45.5142    1.2445  H     
41   H        31.5603   42.1307    1.8613  H     
42   H        27.7823   41.7205    0.0985  H     
43   H        32.2817   43.2637    3.3132  H     
44   H        33.7618   45.6929    3.3038  H     
45   H        31.0736   40.0188    2.3705  H     
46   H        31.3620   38.2750    0.1125  H     
47   H        30.4791   35.3052    2.9552  H     
48   H        32.1069   35.8116    2.5205  H     
49   H        33.0014   38.0929    2.6205  H     
50   H        33.3465   37.4443    1.0323  H     
51   H        30.4205   36.3972    0.8068  H     
52   H        28.7196   36.5920    2.2012  H     
53   H        27.9160   47.3119    1.3237  H     
54   H        26.2426   47.8813    1.5217  H     
55   H        26.8881   47.5857   -0.1122  H     
56   H        34.2120   43.1223    4.8986  H     
57   H        35.3340   44.5032    4.7546  H     
58   H        34.9216   43.5454    3.3316  H     
59   H        33.1309   39.6143   -0.8122  H     
60   H        34.3808   41.6278   -1.3041  H     
61   H        35.7498   42.6519    0.4143  H     
62   H        35.8703   41.6625    2.6173  H     
63   H        34.5405   39.7326    3.1640  H     
64   H        31.9307   37.6307    4.0866  H     
65   H        31.5520   36.2002    4.8191  H     
66   H        30.3209   37.2490    4.3846  H     
67   H        33.4102   47.4629    4.8083  H     
68   H        31.8246   43.7071    5.9087  H     
69   H        30.7601   44.7182    7.8172  H     
70   H        32.3605   48.4524    6.7294  H     
71   H        27.1269   43.4716   -1.7857  H     
72   H        25.7864   44.5764   -1.5055  H     
73   H        25.7660   42.9615   -0.7547  H     
@<TRIPOS>BOND
     1    1    2 1
     2    1    6 2
     3    1   19 1
     4    2    3 2
     5    3    4 1
     6    3    7 1
     7    4    5 2
     8    5    6 1
     9    5   11 1
    10    7    8 2
    11    7    9 am
    12    9   10 1
    13   10   24 1
    14   10   32 1
    15   11   12 2
    16   11   13 am
    17   13   14 1
    18   14   16 1
    19   14   17 1
    20   15   17 1
    21   15   31 1
    22   16   25 1
    23   17   18 1
    24   19   21 1
    25   19   39 1
    26   20   21 1
    27   21   22 2
    28   21   23 2
    29   25   26 2
    30   25   30 1
    31   26   27 1
    32   27   28 2
    33   28   29 1
    34   29   30 2
    35   32   33 1
    36   32   34 2
    37   33   37 2
    38   34   35 1
    39   35   36 2
    40   36   37 1
    41   36   38 1
    42    2   40 1
    43    4   41 1
    44    6   42 1
    45    9   43 1
    46   10   44 1
    47   13   45 1
    48   14   46 1
    49   15   47 1
    50   15   48 1
    51   16   49 1
    52   16   50 1
    53   17   51 1
    54   18   52 1
    55   20   53 1
    56   20   54 1
    57   20   55 1
    58   24   56 1
    59   24   57 1
    60   24   58 1
    61   26   59 1
    62   27   60 1
    63   28   61 1
    64   29   62 1
    65   30   63 1
    66   31   64 1
    67   31   65 1
    68   31   66 1
    69   33   67 1
    70   34   68 1
    71   35   69 1
    72   37   70 1
    73   39   71 1
    74   39   72 1
    75   39   73 1
@<TRIPOS>PROPERTY_DATA
  Total_Score	| 14.5275
  Crash		| -2.4958
  Polar		| 6.5787
  FragIndex	| 1
  FragRMSD	| 0.622

