@<TRIPOS>MOLECULE
BindingDB_16039
 72 74 0 0 0
SMALL
NO_CHARGES


@<TRIPOS>ATOM
1    C        31.1044   45.3442    6.8593  C     
2    C        31.4481   46.6807    7.1304  C     
3    C        32.3622   47.3505    6.2966  C     
4    C        32.9183   46.6911    5.1830  C     
5    C        31.6715   44.6874    5.7523  C     
6    C        32.5879   45.3467    4.8975  C     
7    C        33.1935   44.6324    3.7292  C     
8    C        34.2337   43.5843    4.1973  C     
9    N        32.1649   44.0078    2.9388  N     
10   C        31.3352   44.6182    2.0922  C     
11   O        31.5165   45.8072    1.8626  O     
12   C        30.2336   43.9642    1.5166  C     
13   C        27.9967   44.0871    0.4415  C     
14   C        29.1438   44.7084    0.9878  C     
15   C        30.1436   42.5519    1.4566  C     
16   C        29.0298   41.8922    0.8867  C     
17   C        27.9677   42.6771    0.3839  C     
18   N        26.9369   44.8396   -0.0048  N     
19   C        26.4887   44.7380   -1.3661  C     
20   C        26.7317   47.5863    1.0777  C     
21   S        26.1346   45.8839    1.0652  S     
22   O        24.5744   45.8710    0.7437  O     
23   O        26.1779   45.2940    2.5439  O     
24   F        30.9241   47.2937    8.1595  F     
25   C        28.9116   40.4053    0.8370  C     
26   O        30.1095   39.7232    1.2722  O     
27   C        29.9313   38.3748    1.7640  C     
28   C        31.2121   37.8848    2.5078  C     
29   C        32.4809   37.8560    1.5805  C     
30   C        33.0964   39.1768    1.2473  C     
31   C        32.7016   39.9055    0.0968  C     
32   C        33.2889   41.1483   -0.2125  C     
33   C        34.3051   41.6702    0.6052  C     
34   C        34.7318   40.9408    1.7310  C     
35   C        34.1330   39.7059    2.0530  C     
36   N        31.4415   38.7619    3.6771  N     
37   C        30.9516   36.4539    3.0730  C     
38   H        30.4445   44.8475    7.4617  H     
39   H        32.6311   48.3151    6.4996  H     
40   H        33.5697   47.2027    4.5861  H     
41   H        31.4081   43.7179    5.5731  H     
42   H        33.7362   45.3326    3.0907  H     
43   H        34.9827   44.0561    4.8337  H     
44   H        34.7405   43.1596    3.3313  H     
45   H        33.7520   42.7826    4.7555  H     
46   H        31.9846   43.0781    3.1456  H     
47   H        29.1760   45.7301    1.0172  H     
48   H        30.9156   41.9875    1.8190  H     
49   H        27.1448   42.2073   -0.0005  H     
50   H        27.3312   44.8805   -2.0453  H     
51   H        25.7373   45.4896   -1.6201  H     
52   H        26.0489   43.7559   -1.5533  H     
53   H        27.7841   47.6111    1.3735  H     
54   H        26.1502   48.1707    1.7929  H     
55   H        26.6247   48.0192    0.0817  H     
56   H        28.0528   40.1180    1.4519  H     
57   H        28.6999   40.1044   -0.1930  H     
58   H        29.0882   38.3646    2.4719  H     
59   H        29.6996   37.6897    0.9332  H     
60   H        33.2585   37.2441    2.0482  H     
61   H        32.2154   37.3406    0.6580  H     
62   H        31.9685   39.5432   -0.5170  H     
63   H        32.9775   41.6742   -1.0347  H     
64   H        34.7416   42.5719    0.3786  H     
65   H        35.4900   41.3064    2.3127  H     
66   H        34.4683   39.2005    2.8780  H     
67   H        31.4477   39.7437    3.3887  H     
68   H        32.3412   38.5360    4.0945  H     
69   H        30.7118   38.6144    4.3712  H     
70   H        30.0722   36.4392    3.7249  H     
71   H        31.7988   36.1016    3.6594  H     
72   H        30.7794   35.7505    2.2550  H     
@<TRIPOS>BOND
     1    1    2 2
     2    1    5 1
     3    2    3 1
     4    2   24 1
     5    3    4 2
     6    4    6 1
     7    5    6 2
     8    6    7 1
     9    7    8 1
    10    7    9 1
    11    9   10 am
    12   10   11 2
    13   10   12 1
    14   12   14 2
    15   12   15 1
    16   13   14 1
    17   13   17 2
    18   13   18 1
    19   15   16 2
    20   16   17 1
    21   16   25 1
    22   18   19 1
    23   18   21 1
    24   20   21 1
    25   21   22 2
    26   21   23 2
    27   25   26 1
    28   26   27 1
    29   27   28 1
    30   28   29 1
    31   28   36 1
    32   28   37 1
    33   29   30 1
    34   30   31 2
    35   30   35 1
    36   31   32 1
    37   32   33 2
    38   33   34 1
    39   34   35 2
    40    1   38 1
    41    3   39 1
    42    4   40 1
    43    5   41 1
    44    7   42 1
    45    8   43 1
    46    8   44 1
    47    8   45 1
    48    9   46 1
    49   14   47 1
    50   15   48 1
    51   17   49 1
    52   19   50 1
    53   19   51 1
    54   19   52 1
    55   20   53 1
    56   20   54 1
    57   20   55 1
    58   25   56 1
    59   25   57 1
    60   27   58 1
    61   27   59 1
    62   29   60 1
    63   29   61 1
    64   31   62 1
    65   32   63 1
    66   33   64 1
    67   34   65 1
    68   35   66 1
    69   36   67 1
    70   36   68 1
    71   36   69 1
    72   37   70 1
    73   37   71 1
    74   37   72 1
@<TRIPOS>PROPERTY_DATA
  Total_Score	| 15.2370
  Crash		| -1.7222
  Polar		| 6.3961
  FragIndex	| 1
  FragRMSD	| 0.252

