@<TRIPOS>MOLECULE
BindingDB_16035
 68 71 0 0 0
SMALL
NO_CHARGES


@<TRIPOS>ATOM
1    C        31.9102   47.7272    6.4674  C     
2    C        31.5732   46.8494    7.5095  C     
3    C        31.7859   45.4706    7.3516  C     
4    C        32.3485   44.9747    6.1576  C     
5    C        32.4868   47.2348    5.2799  C     
6    C        32.7134   45.8479    5.1048  C     
7    C        33.2748   45.3278    3.8201  C     
8    C        34.5125   44.4110    4.0086  C     
9    N        32.2449   44.6030    3.1254  N     
10   C        31.4698   45.0478    2.1340  C     
11   O        31.6251   46.1924    1.7192  O     
12   C        30.4226   44.2668    1.6242  C     
13   C        28.1909   44.1061    0.5457  C     
14   C        29.2722   44.8674    1.0553  C     
15   C        30.4771   42.8531    1.6404  C     
16   C        29.4435   42.0453    1.1010  C     
17   C        28.3005   42.6940    0.5626  C     
18   N        27.0528   44.7290    0.0816  N     
19   C        26.5628   44.4778   -1.2494  C     
20   C        26.8320   47.5108    1.0596  C     
21   S        26.2200   45.8131    1.0846  S     
22   O        24.6681   45.8120    0.7182  O     
23   O        26.2336   45.2825    2.5858  O     
24   C        29.5535   40.6517    1.0999  C     
25   C        29.2156   38.5294    0.7260  C     
26   N        30.4735   40.0377    1.7442  N     
27   O        28.8006   39.8501    0.3489  O     
28   C        31.8267   38.3811    0.6931  C     
29   C        30.5341   38.6855    1.5443  C     
30   C        30.4981   37.9175    2.9089  C     
31   O        30.9148   38.7309    4.0076  O     
32   C        33.0692   39.1009    1.1035  C     
33   C        33.7113   38.8044    2.3301  C     
34   C        34.7925   39.5775    2.7829  C     
35   C        35.3200   40.5970    1.9678  C     
36   C        34.7515   40.8506    0.7071  C     
37   C        33.6317   40.1125    0.2812  C     
38   F        31.0439   47.3103    8.6062  F     
39   H        31.7291   48.7323    6.5643  H     
40   H        31.5370   44.8214    8.0977  H     
41   H        32.4713   43.9609    6.0619  H     
42   H        32.7146   47.8947    4.5326  H     
43   H        33.6249   46.1557    3.1994  H     
44   H        35.2756   44.9229    4.5971  H     
45   H        34.9478   44.1584    3.0364  H     
46   H        34.2533   43.4787    4.5153  H     
47   H        32.0223   43.7240    3.4914  H     
48   H        29.2045   45.8911    1.0170  H     
49   H        31.3157   42.4048    2.0166  H     
50   H        27.5319   42.1306    0.1808  H     
51   H        27.3671   44.6012   -1.9783  H     
52   H        25.7593   45.1608   -1.5406  H     
53   H        26.1764   43.4592   -1.3287  H     
54   H        27.8449   47.5535    1.4738  H     
55   H        26.1675   48.1405    1.6556  H     
56   H        26.8434   47.8750    0.0300  H     
57   H        28.4047   38.0876    1.3104  H     
58   H        29.3470   37.9139   -0.1688  H     
59   H        32.0372   37.3090    0.7089  H     
60   H        31.6229   38.6390   -0.3520  H     
61   H        29.4821   37.6017    3.1506  H     
62   H        31.1195   37.0152    2.8517  H     
63   H        31.6458   38.2600    4.4658  H     
64   H        33.3717   38.0429    2.9228  H     
65   H        35.2048   39.3844    3.6954  H     
66   H        36.1188   41.1498    2.2919  H     
67   H        35.1472   41.5794    0.1045  H     
68   H        33.2074   40.3428   -0.6191  H     
@<TRIPOS>BOND
     1    1    2 2
     2    1    5 1
     3    2    3 1
     4    2   38 1
     5    3    4 2
     6    4    6 1
     7    5    6 2
     8    6    7 1
     9    7    8 1
    10    7    9 1
    11    9   10 am
    12   10   11 2
    13   10   12 1
    14   12   14 2
    15   12   15 1
    16   13   14 1
    17   13   17 2
    18   13   18 1
    19   15   16 2
    20   16   17 1
    21   16   24 1
    22   18   19 1
    23   18   21 1
    24   20   21 1
    25   21   22 2
    26   21   23 2
    27   24   26 2
    28   24   27 1
    29   25   27 1
    30   25   29 1
    31   26   29 1
    32   28   29 1
    33   28   32 1
    34   29   30 1
    35   30   31 1
    36   32   33 2
    37   32   37 1
    38   33   34 1
    39   34   35 2
    40   35   36 1
    41   36   37 2
    42    1   39 1
    43    3   40 1
    44    4   41 1
    45    5   42 1
    46    7   43 1
    47    8   44 1
    48    8   45 1
    49    8   46 1
    50    9   47 1
    51   14   48 1
    52   15   49 1
    53   17   50 1
    54   19   51 1
    55   19   52 1
    56   19   53 1
    57   20   54 1
    58   20   55 1
    59   20   56 1
    60   25   57 1
    61   25   58 1
    62   28   59 1
    63   28   60 1
    64   30   61 1
    65   30   62 1
    66   31   63 1
    67   33   64 1
    68   34   65 1
    69   35   66 1
    70   36   67 1
    71   37   68 1
@<TRIPOS>PROPERTY_DATA
  Total_Score	| 11.2335
  Crash		| -2.9198
  Polar		| 4.0137
  FragIndex	| 1
  FragRMSD	| 0.956

