@<TRIPOS>MOLECULE
BindingDB_16036
 72 74 0 0 0
SMALL
NO_CHARGES


@<TRIPOS>ATOM
1    C        32.0429   47.5029    6.1928  C     
2    C        31.3960   46.7274    7.1728  C     
3    C        31.3476   45.3283    7.0296  C     
4    C        31.9458   44.7089    5.9156  C     
5    C        32.6202   46.8834    5.0665  C     
6    C        32.5928   45.4768    4.9157  C     
7    C        33.1810   44.8337    3.6979  C     
8    C        34.3212   43.8339    4.0069  C     
9    N        32.1533   44.1684    2.9516  N     
10   C        31.2740   44.7347    2.1219  C     
11   O        31.3301   45.9593    1.9626  O     
12   C        30.2364   44.0130    1.5245  C     
13   C        27.9862   43.9696    0.4640  C     
14   C        29.0757   44.6730    1.0258  C     
15   C        30.2842   42.6013    1.3997  C     
16   C        29.2141   41.8605    0.8443  C     
17   C        28.0750   42.5624    0.3694  C     
18   N        26.8681   44.6360    0.0233  N     
19   C        26.3994   44.4509   -1.3220  C     
20   C        26.7184   47.4457    0.9251  C     
21   S        26.0830   45.7588    1.0206  S     
22   O        24.5280   45.7797    0.6727  O     
23   O        26.0976   45.2556    2.5309  O     
24   F        30.8456   47.3062    8.2067  F     
25   C        29.2559   40.4373    0.8316  C     
26   O        28.2177   39.7094    0.3562  O     
27   O        30.2864   39.7827    1.4468  O     
28   C        30.3967   38.3835    1.7266  C     
29   C        31.6027   38.0826    2.6837  C     
30   C        31.8097   39.2477    3.6976  C     
31   N        31.2337   36.9187    3.5215  N     
32   O        30.6598   39.4459    4.5130  O     
33   C        32.9363   37.7481    1.9326  C     
34   C        33.6825   38.9213    1.3904  C     
35   C        34.5662   39.6558    2.2164  C     
36   C        35.2713   40.7670    1.7168  C     
37   C        35.0870   41.1758    0.3817  C     
38   C        34.2010   40.4639   -0.4511  C     
39   C        33.5219   39.3303    0.0410  C     
40   H        32.0830   48.5223    6.2869  H     
41   H        30.8908   44.7580    7.7446  H     
42   H        31.8888   43.6931    5.8297  H     
43   H        33.0721   47.4722    4.3652  H     
44   H        33.6464   45.5939    3.0617  H     
45   H        35.1285   44.3245    4.5564  H     
46   H        34.7360   43.4528    3.0692  H     
47   H        33.9620   42.9851    4.5916  H     
48   H        32.0174   43.2247    3.1549  H     
49   H        29.0094   45.7003    1.0759  H     
50   H        31.1213   42.1068    1.7128  H     
51   H        27.2849   42.0433   -0.0181  H     
52   H        27.2172   44.6330   -2.0248  H     
53   H        25.5848   45.1353   -1.5869  H     
54   H        26.0343   43.4287   -1.4589  H     
55   H        27.7577   47.4699    1.2590  H     
56   H        26.1234   48.1060    1.5593  H     
57   H        26.6614   47.7996   -0.1074  H     
58   H        29.4631   38.0866    2.2107  H     
59   H        30.4843   37.8232    0.7919  H     
60   H        32.6717   39.0515    4.3459  H     
61   H        32.0011   40.1820    3.1701  H     
62   H        30.3349   37.1121    3.9675  H     
63   H        31.9335   36.7861    4.2636  H     
64   H        31.1562   36.0713    2.9537  H     
65   H        30.7787   38.8200    5.2617  H     
66   H        33.5957   37.2102    2.6262  H     
67   H        32.7241   37.0460    1.1201  H     
68   H        34.7176   39.3788    3.1898  H     
69   H        35.9021   41.2908    2.3286  H     
70   H        35.5954   41.9865    0.0236  H     
71   H        34.0632   40.7688   -1.4140  H     
72   H        32.8847   38.8255   -0.5815  H     
@<TRIPOS>BOND
     1    1    2 2
     2    1    5 1
     3    2    3 1
     4    2   24 1
     5    3    4 2
     6    4    6 1
     7    5    6 2
     8    6    7 1
     9    7    8 1
    10    7    9 1
    11    9   10 am
    12   10   11 2
    13   10   12 1
    14   12   14 2
    15   12   15 1
    16   13   14 1
    17   13   17 2
    18   13   18 1
    19   15   16 2
    20   16   17 1
    21   16   25 1
    22   18   19 1
    23   18   21 1
    24   20   21 1
    25   21   22 2
    26   21   23 2
    27   25   26 2
    28   25   27 1
    29   27   28 1
    30   28   29 1
    31   29   30 1
    32   29   31 1
    33   29   33 1
    34   30   32 1
    35   33   34 1
    36   34   35 1
    37   34   39 2
    38   35   36 2
    39   36   37 1
    40   37   38 2
    41   38   39 1
    42    1   40 1
    43    3   41 1
    44    4   42 1
    45    5   43 1
    46    7   44 1
    47    8   45 1
    48    8   46 1
    49    8   47 1
    50    9   48 1
    51   14   49 1
    52   15   50 1
    53   17   51 1
    54   19   52 1
    55   19   53 1
    56   19   54 1
    57   20   55 1
    58   20   56 1
    59   20   57 1
    60   28   58 1
    61   28   59 1
    62   30   60 1
    63   30   61 1
    64   31   62 1
    65   31   63 1
    66   31   64 1
    67   32   65 1
    68   33   66 1
    69   33   67 1
    70   35   68 1
    71   36   69 1
    72   37   70 1
    73   38   71 1
    74   39   72 1
@<TRIPOS>PROPERTY_DATA
  Total_Score	| 13.1112
  Crash		| -5.0141
  Polar		| 8.2855
  FragIndex	| 1
  FragRMSD	| 1.007

