@<TRIPOS>MOLECULE
BindingDB_16690
 69 71 0 0 0
SMALL
NO_CHARGES


@<TRIPOS>ATOM
1    C        31.0987   45.3492    6.8829  C     
2    C        31.5620   46.6449    7.1754  C     
3    C        32.4809   47.2679    6.3104  C     
4    C        32.9374   46.5952    5.1612  C     
5    C        32.4966   45.2835    4.8617  C     
6    C        31.5630   44.6779    5.7388  C     
7    C        33.0343   44.5441    3.6748  C     
8    F        31.1410   47.2673    8.2457  F     
9    C        34.0708   43.4748    4.1089  C     
10   N        31.9814   43.8994    2.9337  N     
11   C        31.2544   44.4167    1.9515  C     
12   O        31.4898   45.5641    1.5778  O     
13   C        30.1769   43.7096    1.4049  C     
14   C        27.8794   43.7376    0.4647  C     
15   C        29.0309   44.4044    0.9449  C     
16   C        30.1750   42.2950    1.2849  C     
17   C        29.0663   41.5962    0.7513  C     
18   C        27.9181   42.3285    0.3757  C     
19   N        26.7783   44.4633    0.0595  N     
20   C        26.2113   44.2583   -1.2500  C     
21   C        26.7835   47.2789    1.0329  C     
22   S        26.0789   45.6168    1.0919  S     
23   O        24.5134   45.7091    0.8248  O     
24   O        26.1428   45.1011    2.5956  O     
25   C        29.1176   40.2212    0.5385  C     
26   O        29.6364   39.8217   -0.4953  O     
27   N        28.5075   39.3871    1.3704  N     
28   C        28.2819   37.9743    1.1702  C     
29   C        29.4906   37.1134    1.6749  C     
30   C        29.4743   35.6344    1.4094  C     
31   C        30.1529   34.7441    2.2861  C     
32   C        28.8994   35.0880    0.2363  C     
33   C        28.9412   33.7035   -0.0228  C     
34   C        29.5786   32.8341    0.8797  C     
35   C        30.1947   33.3598    2.0282  C     
36   C        26.9129   37.5824    1.7981  C     
37   N        26.7560   37.9768    3.2042  N     
38   H        30.4209   44.8944    7.4999  H     
39   H        32.8200   48.2085    6.5175  H     
40   H        33.6062   47.0671    4.5508  H     
41   H        31.2120   43.7395    5.5483  H     
42   H        33.5697   45.2273    3.0030  H     
43   H        34.9041   43.9437    4.6383  H     
44   H        34.4694   42.9614    3.2302  H     
45   H        33.6177   42.7280    4.7658  H     
46   H        31.7199   43.0242    3.2594  H     
47   H        29.0148   45.4251    0.9826  H     
48   H        31.0036   41.7612    1.5646  H     
49   H        27.1042   41.8312    0.0112  H     
50   H        26.9924   44.3365   -2.0085  H     
51   H        25.4373   44.9850   -1.5006  H     
52   H        25.7602   43.2676   -1.3078  H     
53   H        27.8149   47.2588    1.3817  H     
54   H        26.2126   47.9455    1.6796  H     
55   H        26.7530   47.6515    0.0085  H     
56   H        28.1326   39.7825    2.1735  H     
57   H        28.1735   37.8112    0.0948  H     
58   H        30.4032   37.4996    1.2094  H     
59   H        29.5897   37.2970    2.7542  H     
60   H        30.6398   35.0979    3.1159  H     
61   H        28.4467   35.6937   -0.4444  H     
62   H        28.5055   33.3327   -0.8717  H     
63   H        29.5929   31.8262    0.6922  H     
64   H        30.6695   32.7235    2.6683  H     
65   H        26.1085   38.0745    1.2419  H     
66   H        26.7443   36.5053    1.7204  H     
67   H        27.5310   37.6317    3.7712  H     
68   H        25.8704   37.6179    3.5720  H     
69   H        26.7600   38.9935    3.2664  H     
@<TRIPOS>BOND
     1    1    2 2
     2    1    6 1
     3    2    3 1
     4    2    8 1
     5    3    4 2
     6    4    5 1
     7    5    6 2
     8    5    7 1
     9    7    9 1
    10    7   10 1
    11   10   11 am
    12   11   12 2
    13   11   13 1
    14   13   15 2
    15   13   16 1
    16   14   15 1
    17   14   18 2
    18   14   19 1
    19   16   17 2
    20   17   18 1
    21   17   25 1
    22   19   20 1
    23   19   22 1
    24   21   22 1
    25   22   23 2
    26   22   24 2
    27   25   26 2
    28   25   27 am
    29   27   28 1
    30   28   29 1
    31   28   36 1
    32   29   30 1
    33   30   31 1
    34   30   32 2
    35   31   35 2
    36   32   33 1
    37   33   34 2
    38   34   35 1
    39   36   37 1
    40    1   38 1
    41    3   39 1
    42    4   40 1
    43    6   41 1
    44    7   42 1
    45    9   43 1
    46    9   44 1
    47    9   45 1
    48   10   46 1
    49   15   47 1
    50   16   48 1
    51   18   49 1
    52   20   50 1
    53   20   51 1
    54   20   52 1
    55   21   53 1
    56   21   54 1
    57   21   55 1
    58   27   56 1
    59   28   57 1
    60   29   58 1
    61   29   59 1
    62   31   60 1
    63   32   61 1
    64   33   62 1
    65   34   63 1
    66   35   64 1
    67   36   65 1
    68   36   66 1
    69   37   67 1
    70   37   68 1
    71   37   69 1
@<TRIPOS>PROPERTY_DATA
  Total_Score	| 14.0466
  Crash		| -2.1546
  Polar		| 6.7610
  FragIndex	| 1
  FragRMSD	| 0.610

