@<TRIPOS>MOLECULE
BindingDB_16037
 71 73 0 0 0
SMALL
NO_CHARGES


@<TRIPOS>ATOM
1    C        31.3412   45.3753    7.1727  C     
2    C        31.5098   46.7479    7.4603  C     
3    C        32.2300   47.5592    6.5675  C     
4    C        32.7858   47.0080    5.4001  C     
5    C        31.9005   44.8285    6.0028  C     
6    C        32.6373   45.6318    5.0973  C     
7    C        33.2190   45.0454    3.8461  C     
8    C        34.4295   44.1197    4.1380  C     
9    N        32.2063   44.3409    3.1084  N     
10   C        31.3623   44.8602    2.2121  C     
11   O        31.4376   46.0753    1.9900  O     
12   C        30.3155   44.1340    1.6302  C     
13   C        28.0853   44.0691    0.5188  C     
14   C        29.1605   44.7859    1.1023  C     
15   C        30.3782   42.7217    1.5295  C     
16   C        29.3407   41.9682    0.9261  C     
17   C        28.2159   42.6649    0.3980  C     
18   N        26.9780   44.7327    0.0504  N     
19   C        26.4680   44.4747   -1.2703  C     
20   C        26.7629   47.5303    0.9500  C     
21   S        26.1455   45.8336    1.0245  S     
22   O        24.5990   45.8739    0.6096  O     
23   O        26.1035   45.3528    2.5403  O     
24   F        31.0076   47.2570    8.5493  F     
25   C        29.4288   40.5743    0.8353  C     
26   O        28.9458   39.9958   -0.1427  O     
27   N        30.0960   39.8968    1.7601  N     
28   C        31.0505   38.0720    3.1169  C     
29   O        30.9281   39.0884    4.1236  O     
30   C        29.4709   37.5922    1.1797  C     
31   O        28.2830   37.6605    1.9829  O     
32   C        30.6019   38.5545    1.6802  C     
33   C        31.8285   38.5054    0.6827  C     
34   C        32.9160   39.5064    0.9142  C     
35   C        33.9641   39.2368    1.8287  C     
36   C        34.9896   40.1777    2.0385  C     
37   C        34.9968   41.3871    1.3156  C     
38   C        33.9758   41.6618    0.3932  C     
39   C        32.9465   40.7310    0.1943  C     
40   H        30.8146   44.7801    7.8138  H     
41   H        32.3431   48.5553    6.7652  H     
42   H        33.2987   47.6238    4.7619  H     
43   H        31.7696   43.8307    5.8207  H     
44   H        33.6134   45.8474    3.2065  H     
45   H        35.1878   44.6538    4.7184  H     
46   H        34.8762   43.8031    3.1941  H     
47   H        34.1320   43.2276    4.6935  H     
48   H        32.0672   43.4073    3.3626  H     
49   H        29.0952   45.8100    1.1592  H     
50   H        31.2074   42.2237    1.8731  H     
51   H        27.4561   42.1321   -0.0592  H     
52   H        27.2915   44.4813   -1.9924  H     
53   H        25.7331   45.2172   -1.6236  H     
54   H        25.9837   43.4954   -1.3050  H     
55   H        27.8023   47.5752    1.3140  H     
56   H        26.1364   48.1805    1.5734  H     
57   H        26.7220   47.8825   -0.0900  H     
58   H        30.3561   40.4197    2.5386  H     
59   H        32.0982   37.7326    3.1177  H     
60   H        30.4745   37.2091    3.4660  H     
61   H        31.6374   38.8834    4.7831  H     
62   H        29.8228   36.5492    1.1788  H     
63   H        29.1485   37.8570    0.1752  H     
64   H        28.5481   37.8850    2.9177  H     
65   H        32.2636   37.5003    0.7094  H     
66   H        31.4721   38.6416   -0.3512  H     
67   H        33.9918   38.3525    2.3390  H     
68   H        35.7260   39.9741    2.7029  H     
69   H        35.7350   42.0667    1.4726  H     
70   H        33.9801   42.5342   -0.1341  H     
71   H        32.2132   40.9527   -0.4828  H     
@<TRIPOS>BOND
     1    1    2 2
     2    1    5 1
     3    2    3 1
     4    2   24 1
     5    3    4 2
     6    4    6 1
     7    5    6 2
     8    6    7 1
     9    7    8 1
    10    7    9 1
    11    9   10 am
    12   10   11 2
    13   10   12 1
    14   12   14 2
    15   12   15 1
    16   13   14 1
    17   13   17 2
    18   13   18 1
    19   15   16 2
    20   16   17 1
    21   16   25 1
    22   18   19 1
    23   18   21 1
    24   20   21 1
    25   21   22 2
    26   21   23 2
    27   25   26 2
    28   25   27 am
    29   27   32 1
    30   28   29 1
    31   28   32 1
    32   30   31 1
    33   30   32 1
    34   32   33 1
    35   33   34 1
    36   34   35 1
    37   34   39 2
    38   35   36 2
    39   36   37 1
    40   37   38 2
    41   38   39 1
    42    1   40 1
    43    3   41 1
    44    4   42 1
    45    5   43 1
    46    7   44 1
    47    8   45 1
    48    8   46 1
    49    8   47 1
    50    9   48 1
    51   14   49 1
    52   15   50 1
    53   17   51 1
    54   19   52 1
    55   19   53 1
    56   19   54 1
    57   20   55 1
    58   20   56 1
    59   20   57 1
    60   27   58 1
    61   28   59 1
    62   28   60 1
    63   29   61 1
    64   30   62 1
    65   30   63 1
    66   31   64 1
    67   33   65 1
    68   33   66 1
    69   35   67 1
    70   36   68 1
    71   37   69 1
    72   38   70 1
    73   39   71 1
@<TRIPOS>PROPERTY_DATA
  Total_Score	| 11.5860
  Crash		| -3.1581
  Polar		| 6.2249
  FragIndex	| 1
  FragRMSD	| 0.361

