@<TRIPOS>MOLECULE
BindingDB_16699
 92 95 0 0 0
SMALL
NO_CHARGES


@<TRIPOS>ATOM
1    C        31.0392   45.4394    6.9627  C     
2    C        31.2842   46.7803    7.3091  C     
3    C        32.1617   47.5534    6.5257  C     
4    C        32.7978   46.9819    5.4102  C     
5    C        32.5784   45.6290    5.0520  C     
6    C        31.6815   44.8695    5.8463  C     
7    C        33.2389   45.0394    3.8440  C     
8    F        30.6996   47.3177    8.3440  F     
9    C        34.3674   44.0416    4.2121  C     
10   N        32.2600   44.3752    3.0398  N     
11   C        31.4443   44.9309    2.1374  C     
12   O        31.5703   46.1274    1.8953  O     
13   C        30.4013   44.2136    1.5477  C     
14   C        28.1344   44.1514    0.5707  C     
15   C        29.2251   44.8642    1.1183  C     
16   C        30.4636   42.8074    1.3889  C     
17   C        29.3928   42.0233    0.8626  C     
18   C        28.2449   42.7432    0.4610  C     
19   N        27.0138   44.8116    0.1256  N     
20   C        26.5545   44.6591   -1.2252  C     
21   C        26.8030   47.5630    1.1544  C     
22   S        26.1782   45.8711    1.1562  S     
23   O        24.6329   45.8783    0.7934  O     
24   O        26.1873   45.2991    2.6387  O     
25   C        29.4895   40.6349    0.6942  C     
26   O        28.6999   40.0455   -0.0471  O     
27   N        30.3718   39.8978    1.3720  N     
28   C        30.7013   38.5108    1.1926  C     
29   C        32.1303   38.2574    1.7866  C     
30   C        33.1995   39.1855    1.3080  C     
31   C        33.2303   39.6171   -0.0420  C     
32   C        34.1664   39.7107    2.2017  C     
33   C        35.1245   40.6495    1.7684  C     
34   C        35.1102   41.0996    0.4356  C     
35   C        34.1692   40.5785   -0.4717  C     
36   C        29.5797   37.5558    1.7347  C     
37   N        29.9949   36.6345    2.8326  N     
38   C        29.2654   35.3479    3.0391  C     
39   C        29.4364   34.4503    1.8987  C     
40   O        29.3297   34.8746    0.7521  O     
41   N        29.7523   33.1654    2.0923  N     
42   C        27.7647   35.5548    3.4164  C     
43   C        30.2108   32.2400    1.0960  C     
44   C        29.4691   32.2007   -0.1975  C     
45   C        27.4293   32.5017   -1.5334  C     
46   C        28.0817   31.9986   -2.6712  C     
47   C        29.4278   31.5985   -2.5820  C     
48   C        30.1100   31.7041   -1.3589  C     
49   C        28.1163   32.5965   -0.3020  C     
50   H        30.3966   44.8739    7.5248  H     
51   H        32.3388   48.5306    6.7720  H     
52   H        33.4195   47.5700    4.8512  H     
53   H        31.4852   43.8931    5.6107  H     
54   H        33.7338   45.8312    3.2697  H     
55   H        35.1048   44.5161    4.8594  H     
56   H        34.8732   43.7078    3.3064  H     
57   H        33.9695   43.1661    4.7238  H     
58   H        32.0854   43.4518    3.2745  H     
59   H        29.1470   45.8798    1.1956  H     
60   H        31.3286   42.3455    1.6415  H     
61   H        27.4429   42.2346    0.0781  H     
62   H        27.3922   44.7446   -1.9148  H     
63   H        25.8246   45.4162   -1.5075  H     
64   H        26.0946   43.6821   -1.3633  H     
65   H        27.8392   47.5819    1.4937  H     
66   H        26.2011   48.1843    1.8188  H     
67   H        26.7521   47.9779    0.1464  H     
68   H        30.9235   40.3881    2.0061  H     
69   H        30.7766   38.3403    0.1124  H     
70   H        32.0463   38.3036    2.8830  H     
71   H        32.4439   37.2438    1.5332  H     
72   H        32.5617   39.2463   -0.7248  H     
73   H        34.1823   39.4107    3.1777  H     
74   H        35.8061   41.0219    2.4249  H     
75   H        35.7736   41.8046    0.1286  H     
76   H        34.1539   40.9058   -1.4379  H     
77   H        28.7352   38.1483    2.1060  H     
78   H        29.1832   36.9757    0.8937  H     
79   H        30.9792   36.4037    2.6982  H     
80   H        29.9141   37.1823    3.6904  H     
81   H        29.7353   34.8960    3.9203  H     
82   H        29.7912   32.8673    3.0147  H     
83   H        27.6758   36.1245    4.3568  H     
84   H        27.2866   34.5768    3.5500  H     
85   H        27.2517   36.1001    2.6129  H     
86   H        31.2637   32.4670    0.9079  H     
87   H        30.1806   31.2305    1.5190  H     
88   H        26.4428   32.7635   -1.5961  H     
89   H        27.5873   31.9329   -3.5641  H     
90   H        29.9119   31.2474   -3.4134  H     
91   H        31.0803   31.3837   -1.3129  H     
92   H        27.6193   32.9565    0.5148  H     
@<TRIPOS>BOND
     1    1    2 2
     2    1    6 1
     3    2    3 1
     4    2    8 1
     5    3    4 2
     6    4    5 1
     7    5    6 2
     8    5    7 1
     9    7    9 1
    10    7   10 1
    11   10   11 am
    12   11   12 2
    13   11   13 1
    14   13   15 2
    15   13   16 1
    16   14   15 1
    17   14   18 2
    18   14   19 1
    19   16   17 2
    20   17   18 1
    21   17   25 1
    22   19   20 1
    23   19   22 1
    24   21   22 1
    25   22   23 2
    26   22   24 2
    27   25   26 2
    28   25   27 am
    29   27   28 1
    30   28   29 1
    31   28   36 1
    32   29   30 1
    33   30   31 1
    34   30   32 2
    35   31   35 2
    36   32   33 1
    37   33   34 2
    38   34   35 1
    39   36   37 1
    40   37   38 1
    41   38   39 1
    42   38   42 1
    43   39   40 2
    44   39   41 am
    45   41   43 1
    46   43   44 1
    47   44   48 2
    48   44   49 1
    49   45   46 1
    50   45   49 2
    51   46   47 2
    52   47   48 1
    53    1   50 1
    54    3   51 1
    55    4   52 1
    56    6   53 1
    57    7   54 1
    58    9   55 1
    59    9   56 1
    60    9   57 1
    61   10   58 1
    62   15   59 1
    63   16   60 1
    64   18   61 1
    65   20   62 1
    66   20   63 1
    67   20   64 1
    68   21   65 1
    69   21   66 1
    70   21   67 1
    71   27   68 1
    72   28   69 1
    73   29   70 1
    74   29   71 1
    75   31   72 1
    76   32   73 1
    77   33   74 1
    78   34   75 1
    79   35   76 1
    80   36   77 1
    81   36   78 1
    82   37   79 1
    83   37   80 1
    84   38   81 1
    85   41   82 1
    86   42   83 1
    87   42   84 1
    88   42   85 1
    89   43   86 1
    90   43   87 1
    91   45   88 1
    92   46   89 1
    93   47   90 1
    94   48   91 1
    95   49   92 1
@<TRIPOS>PROPERTY_DATA
  Total_Score	| 13.8261
  Crash		| -3.6204
  Polar		| 4.8975
  FragIndex	| 1
  FragRMSD	| 0.480

