@<TRIPOS>MOLECULE
BindingDB_16691
 88 90 0 0 0
SMALL
NO_CHARGES


@<TRIPOS>ATOM
1    C        31.3248   45.4704    7.1073  C     
2    C        31.2882   46.8485    7.3863  C     
3    C        31.8530   47.7622    6.4760  C     
4    C        32.4724   47.2932    5.3004  C     
5    C        32.5528   45.9058    5.0185  C     
6    C        31.9479   45.0066    5.9347  C     
7    C        33.2438   45.4097    3.7911  C     
8    F        30.7522   47.2866    8.4925  F     
9    C        34.4469   44.4898    4.1189  C     
10   N        32.3060   44.6696    2.9947  N     
11   C        31.4749   45.1320    2.0637  C     
12   O        31.4741   46.3272    1.7897  O     
13   C        30.5176   44.2754    1.5041  C     
14   C        28.2657   43.9014    0.5913  C     
15   C        29.2699   44.7698    1.0708  C     
16   C        30.7647   42.8825    1.3951  C     
17   C        29.7813   41.9634    0.9409  C     
18   C        28.5365   42.5101    0.5292  C     
19   N        27.0516   44.4135    0.1830  N     
20   C        26.5319   44.0600   -1.1073  C     
21   C        26.8007   47.2855    0.9080  C     
22   S        26.2350   45.5835    1.1122  S     
23   O        24.6674   45.5632    0.8005  O     
24   O        26.2910   45.1896    2.6523  O     
25   C        30.0688   40.5922    0.8585  C     
26   O        29.6034   39.9295   -0.0651  O     
27   N        30.8839   39.9874    1.7268  N     
28   C        31.5332   38.6952    1.6235  C     
29   C        32.6996   38.8130    0.5768  C     
30   C        33.5406   40.0619    0.6168  C     
31   C        33.4219   41.0483   -0.4001  C     
32   C        34.5161   40.2567    1.6284  C     
33   C        35.2882   41.4323    1.6668  C     
34   C        35.1317   42.4084    0.6655  C     
35   C        34.2149   42.2097   -0.3775  C     
36   C        32.0359   38.2324    3.0330  C     
37   N        31.1702   37.2420    3.7277  N     
38   C        30.7813   36.0078    3.0117  C     
39   C        29.6590   36.1980    2.1130  C     
40   O        29.6797   35.6111    1.0367  O     
41   N        28.5947   36.8873    2.5005  N     
42   C        27.3879   37.1066    1.7512  C     
43   C        26.1787   36.3009    2.3173  C     
44   C        24.9958   36.2849    1.3064  C     
45   C        26.5727   34.8481    2.7221  C     
46   H        30.8993   44.7996    7.7544  H     
47   H        31.8159   48.7702    6.6703  H     
48   H        32.8651   47.9769    4.6521  H     
49   H        31.9581   43.9997    5.7515  H     
50   H        33.6314   46.2535    3.2095  H     
51   H        35.1873   45.0255    4.7159  H     
52   H        34.9192   44.1653    3.1883  H     
53   H        34.1172   43.6056    4.6732  H     
54   H        32.2019   43.7313    3.2391  H     
55   H        29.0866   45.7789    1.1177  H     
56   H        31.7017   42.5403    1.6400  H     
57   H        27.7915   41.8924    0.1920  H     
58   H        27.3143   44.1411   -1.8624  H     
59   H        25.7020   44.7002   -1.4187  H     
60   H        26.1709   43.0346   -1.0825  H     
61   H        27.8236   47.3835    1.2843  H     
62   H        26.1501   47.9588    1.4660  H     
63   H        26.7751   47.5423   -0.1518  H     
64   H        31.1807   40.5381    2.4760  H     
65   H        30.8473   37.9221    1.2538  H     
66   H        33.3717   37.9575    0.6755  H     
67   H        32.2279   38.7272   -0.4101  H     
68   H        32.7359   40.9313   -1.1488  H     
69   H        34.6572   39.5504    2.3557  H     
70   H        35.9654   41.5696    2.4153  H     
71   H        35.6988   43.2570    0.6960  H     
72   H        34.1144   42.9074   -1.1080  H     
73   H        33.0572   37.8186    2.9908  H     
74   H        32.0928   39.1081    3.7022  H     
75   H        31.7024   36.9403    4.5553  H     
76   H        30.3314   37.7144    4.0564  H     
77   H        31.6545   35.5880    2.4868  H     
78   H        30.4905   35.2712    3.7632  H     
79   H        28.6571   37.3294    3.3597  H     
80   H        27.1642   38.1705    1.8051  H     
81   H        27.5126   36.8629    0.6915  H     
82   H        25.8271   36.8128    3.2209  H     
83   H        24.7136   37.3101    1.0358  H     
84   H        24.1222   35.8003    1.7610  H     
85   H        25.2737   35.7390    0.3970  H     
86   H        27.0243   34.3170    1.8785  H     
87   H        25.6864   34.2927    3.0480  H     
88   H        27.2818   34.8626    3.5534  H     
@<TRIPOS>BOND
     1    1    2 2
     2    1    6 1
     3    2    3 1
     4    2    8 1
     5    3    4 2
     6    4    5 1
     7    5    6 2
     8    5    7 1
     9    7    9 1
    10    7   10 1
    11   10   11 am
    12   11   12 2
    13   11   13 1
    14   13   15 2
    15   13   16 1
    16   14   15 1
    17   14   18 2
    18   14   19 1
    19   16   17 2
    20   17   18 1
    21   17   25 1
    22   19   20 1
    23   19   22 1
    24   21   22 1
    25   22   23 2
    26   22   24 2
    27   25   26 2
    28   25   27 am
    29   27   28 1
    30   28   29 1
    31   28   36 1
    32   29   30 1
    33   30   31 1
    34   30   32 2
    35   31   35 2
    36   32   33 1
    37   33   34 2
    38   34   35 1
    39   36   37 1
    40   37   38 1
    41   38   39 1
    42   39   40 2
    43   39   41 am
    44   41   42 1
    45   42   43 1
    46   43   44 1
    47   43   45 1
    48    1   46 1
    49    3   47 1
    50    4   48 1
    51    6   49 1
    52    7   50 1
    53    9   51 1
    54    9   52 1
    55    9   53 1
    56   10   54 1
    57   15   55 1
    58   16   56 1
    59   18   57 1
    60   20   58 1
    61   20   59 1
    62   20   60 1
    63   21   61 1
    64   21   62 1
    65   21   63 1
    66   27   64 1
    67   28   65 1
    68   29   66 1
    69   29   67 1
    70   31   68 1
    71   32   69 1
    72   33   70 1
    73   34   71 1
    74   35   72 1
    75   36   73 1
    76   36   74 1
    77   37   75 1
    78   37   76 1
    79   38   77 1
    80   38   78 1
    81   41   79 1
    82   42   80 1
    83   42   81 1
    84   43   82 1
    85   44   83 1
    86   44   84 1
    87   44   85 1
    88   45   86 1
    89   45   87 1
    90   45   88 1
@<TRIPOS>PROPERTY_DATA
  Total_Score	| 16.6486
  Crash		| -3.0252
  Polar		| 7.8794
  FragIndex	| 1
  FragRMSD	| 0.582

