@<TRIPOS>MOLECULE
BindingDB_16689
 67 69 0 0 0
SMALL
NO_CHARGES


@<TRIPOS>ATOM
1    C        31.7527   47.7640    6.3085  C     
2    C        31.4414   46.9233    7.3921  C     
3    C        31.7154   45.5468    7.3060  C     
4    C        32.2993   45.0161    6.1416  C     
5    C        32.6517   45.8517    5.0533  C     
6    C        32.3579   47.2357    5.1542  C     
7    C        33.2741   45.2826    3.8196  C     
8    F        30.8930   47.4111    8.4681  F     
9    C        34.5264   44.4142    4.1108  C     
10   N        32.2887   44.5127    3.1053  N     
11   C        31.3814   44.9780    2.2521  C     
12   O        31.3355   46.2008    2.0644  O     
13   C        30.4109   44.1518    1.6708  C     
14   C        28.1906   43.9248    0.5604  C     
15   C        29.2002   44.7086    1.1721  C     
16   C        30.5853   42.7503    1.5403  C     
17   C        29.6136   41.9239    0.9208  C     
18   C        28.4319   42.5391    0.4202  C     
19   N        27.0248   44.5078    0.1084  N     
20   C        26.5209   44.2208   -1.2130  C     
21   C        26.8060   47.3363    0.9191  C     
22   S        26.2006   45.6425    1.0605  S     
23   O        24.6390   45.6165    0.7480  O     
24   O        26.2455   45.1979    2.5857  O     
25   C        29.8209   40.5357    0.7770  C     
26   O        29.3847   39.9751   -0.2220  O     
27   N        30.5237   39.8526    1.6836  N     
28   C        30.9313   38.4736    1.6332  C     
29   C        32.3497   38.3485    0.9711  C     
30   C        33.2856   39.4884    1.1708  C     
31   C        34.0502   40.0076    0.0924  C     
32   C        33.4609   40.0675    2.4535  C     
33   C        34.2855   41.1972    2.6283  C     
34   C        35.0189   41.7140    1.5425  C     
35   C        34.9215   41.1009    0.2780  C     
36   C        30.7888   37.8593    3.0522  C     
37   O        31.7290   36.8079    3.3000  O     
38   H        31.5351   48.7595    6.3600  H     
39   H        31.4878   44.9231    8.0835  H     
40   H        32.4682   44.0061    6.0963  H     
41   H        32.5710   47.8663    4.3769  H     
42   H        33.6329   46.0926    3.1686  H     
43   H        35.2813   45.0018    4.6404  H     
44   H        34.9552   44.0759    3.1562  H     
45   H        34.2727   43.5369    4.7113  H     
46   H        32.2412   43.5621    3.3233  H     
47   H        29.0308   45.7280    1.2514  H     
48   H        31.4630   42.3427    1.8592  H     
49   H        27.7153   41.9591   -0.0200  H     
50   H        27.3185   44.3124   -1.9554  H     
51   H        25.7208   44.9051   -1.5236  H     
52   H        26.1194   43.2046   -1.2568  H     
53   H        27.8533   47.3801    1.2378  H     
54   H        26.2022   47.9945    1.5491  H     
55   H        26.7238   47.6625   -0.1227  H     
56   H        30.8380   40.3619    2.4400  H     
57   H        30.2427   37.9081    0.9862  H     
58   H        32.8417   37.4421    1.3301  H     
59   H        32.1856   38.2249   -0.1078  H     
60   H        33.9699   39.6062   -0.8462  H     
61   H        32.9546   39.7103    3.2689  H     
62   H        34.3269   41.6478    3.5447  H     
63   H        35.6324   42.5207    1.6836  H     
64   H        35.4732   41.4662   -0.5032  H     
65   H        30.8968   38.6295    3.8258  H     
66   H        29.7809   37.4340    3.1502  H     
67   H        32.1081   37.0264    4.1973  H     
@<TRIPOS>BOND
     1    1    2 2
     2    1    6 1
     3    2    3 1
     4    2    8 1
     5    3    4 2
     6    4    5 1
     7    5    6 2
     8    5    7 1
     9    7    9 1
    10    7   10 1
    11   10   11 am
    12   11   12 2
    13   11   13 1
    14   13   15 2
    15   13   16 1
    16   14   15 1
    17   14   18 2
    18   14   19 1
    19   16   17 2
    20   17   18 1
    21   17   25 1
    22   19   20 1
    23   19   22 1
    24   21   22 1
    25   22   23 2
    26   22   24 2
    27   25   26 2
    28   25   27 am
    29   27   28 1
    30   28   29 1
    31   28   36 1
    32   29   30 1
    33   30   31 1
    34   30   32 2
    35   31   35 2
    36   32   33 1
    37   33   34 2
    38   34   35 1
    39   36   37 1
    40    1   38 1
    41    3   39 1
    42    4   40 1
    43    6   41 1
    44    7   42 1
    45    9   43 1
    46    9   44 1
    47    9   45 1
    48   10   46 1
    49   15   47 1
    50   16   48 1
    51   18   49 1
    52   20   50 1
    53   20   51 1
    54   20   52 1
    55   21   53 1
    56   21   54 1
    57   21   55 1
    58   27   56 1
    59   28   57 1
    60   29   58 1
    61   29   59 1
    62   31   60 1
    63   32   61 1
    64   33   62 1
    65   34   63 1
    66   35   64 1
    67   36   65 1
    68   36   66 1
    69   37   67 1
@<TRIPOS>PROPERTY_DATA
  Total_Score	| 12.1312
  Crash		| -2.3143
  Polar		| 4.7307
  FragIndex	| 1
  FragRMSD	| 0.577

