@<TRIPOS>MOLECULE
BindingDB_16040
 71 73 0 0 0
SMALL
NO_CHARGES


@<TRIPOS>ATOM
1    C        32.3625   47.3830    6.4418  C     
2    C        31.4871   46.6934    7.3080  C     
3    C        31.1459   45.3533    7.0313  C     
4    C        31.6751   44.7144    5.8910  C     
5    C        32.8773   46.7379    5.3034  C     
6    C        32.5544   45.3922    5.0110  C     
7    C        33.1333   44.7158    3.8118  C     
8    C        34.2094   43.6636    4.1891  C     
9    N        32.0753   44.0996    3.0587  N     
10   C        31.3292   44.6496    2.1007  C     
11   O        31.5855   45.7941    1.7272  O     
12   C        30.2468   43.9722    1.5267  C     
13   C        28.0045   44.0169    0.4569  C     
14   C        29.1186   44.6764    1.0249  C     
15   C        30.2186   42.5549    1.4214  C     
16   C        29.1355   41.8635    0.8360  C     
17   C        28.0359   42.6076    0.3651  C     
18   N        26.9094   44.7263    0.0172  N     
19   C        26.3905   44.5382   -1.3116  C     
20   C        26.7573   47.4768    1.0783  C     
21   S        26.1197   45.7899    1.0766  S     
22   O        24.5590   45.8069    0.7656  O     
23   O        26.1835   45.2130    2.5583  O     
24   F        31.0117   47.2861    8.3696  F     
25   C        29.1020   40.3867    0.6941  C     
26   O        30.0497   39.7099    1.5273  O     
27   C        30.2845   38.3653    1.5593  C     
28   C        31.2932   37.8285    2.5208  C     
29   C        32.7078   37.6958    1.8525  C     
30   C        33.3854   38.9665    1.4552  C     
31   C        33.2073   39.5019    0.1581  C     
32   C        33.8711   40.6845   -0.2280  C     
33   C        34.7419   41.3290    0.6634  C     
34   C        34.9476   40.8023    1.9519  C     
35   C        34.2703   39.6275    2.3406  C     
36   N        31.3606   38.7499    3.6778  N     
37   C        30.8679   36.4473    3.0915  C     
38   O        29.5935   37.5393    0.7345  O     
39   H        32.6223   48.3509    6.6446  H     
40   H        30.5117   44.8424    7.6526  H     
41   H        31.4184   43.7382    5.7177  H     
42   H        33.5027   47.2676    4.6909  H     
43   H        33.6488   45.4521    3.1901  H     
44   H        34.9877   44.1168    4.8237  H     
45   H        34.6836   43.2868    3.2647  H     
46   H        33.7613   42.8149    4.7282  H     
47   H        31.8006   43.2148    3.3594  H     
48   H        29.0932   45.6987    1.0806  H     
49   H        31.0183   42.0180    1.7612  H     
50   H        27.2263   42.1196   -0.0231  H     
51   H        27.1833   44.6721   -2.0487  H     
52   H        25.5966   45.2496   -1.5634  H     
53   H        25.9787   43.5329   -1.4202  H     
54   H        27.8174   47.4724    1.3234  H     
55   H        26.2275   48.0698    1.8218  H     
56   H        26.6148   47.9211    0.0933  H     
57   H        28.0983   40.0324    0.9537  H     
58   H        29.3054   40.1271   -0.3491  H     
59   H        33.3738   37.1507    2.5310  H     
60   H        32.6184   37.0670    0.9670  H     
61   H        32.5947   39.0387   -0.5142  H     
62   H        33.7348   41.0618   -1.1707  H     
63   H        35.2238   42.1830    0.3780  H     
64   H        35.5903   41.2609    2.5979  H     
65   H        34.4348   39.2578    3.2826  H     
66   H        31.5107   39.7198    3.3760  H     
67   H        32.1303   38.4727    4.2804  H     
68   H        30.4941   38.6971    4.2177  H     
69   H        29.8724   36.5090    3.5329  H     
70   H        31.5679   36.1225    3.8631  H     
71   H        30.8535   35.6966    2.3009  H     
@<TRIPOS>BOND
     1    1    2 2
     2    1    5 1
     3    2    3 1
     4    2   24 1
     5    3    4 2
     6    4    6 1
     7    5    6 2
     8    6    7 1
     9    7    8 1
    10    7    9 1
    11    9   10 am
    12   10   11 2
    13   10   12 1
    14   12   14 2
    15   12   15 1
    16   13   14 1
    17   13   17 2
    18   13   18 1
    19   15   16 2
    20   16   17 1
    21   16   25 1
    22   18   19 1
    23   18   21 1
    24   20   21 1
    25   21   22 2
    26   21   23 2
    27   25   26 1
    28   26   27 1
    29   27   28 1
    30   27   38 2
    31   28   29 1
    32   28   36 1
    33   28   37 1
    34   29   30 1
    35   30   31 2
    36   30   35 1
    37   31   32 1
    38   32   33 2
    39   33   34 1
    40   34   35 2
    41    1   39 1
    42    3   40 1
    43    4   41 1
    44    5   42 1
    45    7   43 1
    46    8   44 1
    47    8   45 1
    48    8   46 1
    49    9   47 1
    50   14   48 1
    51   15   49 1
    52   17   50 1
    53   19   51 1
    54   19   52 1
    55   19   53 1
    56   20   54 1
    57   20   55 1
    58   20   56 1
    59   25   57 1
    60   25   58 1
    61   29   59 1
    62   29   60 1
    63   31   61 1
    64   32   62 1
    65   33   63 1
    66   34   64 1
    67   35   65 1
    68   36   66 1
    69   36   67 1
    70   36   68 1
    71   37   69 1
    72   37   70 1
    73   37   71 1
@<TRIPOS>PROPERTY_DATA
  Total_Score	| 15.1824
  Crash		| -1.6278
  Polar		| 6.3637
  FragIndex	| 1
  FragRMSD	| 0.228

