@<TRIPOS>MOLECULE
BindingDB_16697
 85 87 0 0 0
SMALL
NO_CHARGES


@<TRIPOS>ATOM
1    C        32.3140   47.3900    6.2868  C     
2    C        31.3874   46.7224    7.1127  C     
3    C        31.0489   45.3865    6.8380  C     
4    C        31.6321   44.7233    5.7450  C     
5    C        32.5598   45.3796    4.8967  C     
6    C        32.8879   46.7247    5.1883  C     
7    C        33.1515   44.6735    3.7128  C     
8    F        30.8327   47.3470    8.1140  F     
9    C        34.2176   43.6314    4.1386  C     
10   N        32.1103   44.0503    2.9272  N     
11   C        31.3876   44.6436    1.9771  C     
12   O        31.7203   45.7760    1.6300  O     
13   C        30.2643   44.0498    1.3730  C     
14   C        28.0506   44.3098    0.2927  C     
15   C        29.1894   44.8565    0.9209  C     
16   C        30.1468   42.6464    1.1875  C     
17   C        29.0201   42.0562    0.5564  C     
18   C        27.9849   42.9148    0.1177  C     
19   N        27.0144   45.1031   -0.1171  N     
20   C        26.6492   45.1632   -1.5081  C     
21   C        26.8449   47.7340    1.1382  C     
22   S        26.1947   46.0589    1.0135  S     
23   O        24.6420   46.0762    0.6653  O     
24   O        26.2343   45.3647    2.4470  O     
25   C        28.8849   40.6743    0.3845  C     
26   O        28.4578   40.2422   -0.6811  O     
27   N        29.1548   39.8158    1.3592  N     
28   C        28.9240   38.3899    1.3421  C     
29   C        29.9420   37.7224    2.3093  C     
30   C        31.3964   37.7120    1.9730  C     
31   C        32.0096   38.5606    1.0141  C     
32   C        32.2186   36.7780    2.6479  C     
33   C        33.5933   36.6882    2.3816  C     
34   C        34.1871   37.5622    1.4594  C     
35   C        33.3954   38.4985    0.7702  C     
36   C        27.4092   38.0348    1.6214  C     
37   N        27.0776   37.2323    2.8272  N     
38   C        26.9919   35.7401    2.7719  C     
39   C        27.9769   35.0977    1.9089  C     
40   O        28.0310   35.4478    0.7379  O     
41   N        28.8308   34.1937    2.3904  N     
42   C        29.9648   33.6313    1.7143  C     
43   C        30.1082   32.1206    1.9910  C     
44   C        25.5454   35.2778    2.4339  C     
45   H        32.5639   48.3602    6.4823  H     
46   H        30.3658   44.8970    7.4233  H     
47   H        31.3562   43.7597    5.5550  H     
48   H        33.5420   47.2368    4.5914  H     
49   H        33.6832   45.3874    3.0707  H     
50   H        35.0150   44.1171    4.7069  H     
51   H        34.6625   43.1722    3.2526  H     
52   H        33.7769   42.8461    4.7522  H     
53   H        31.8448   43.1633    3.2112  H     
54   H        29.2162   45.8708    1.0566  H     
55   H        30.9131   42.0375    1.4827  H     
56   H        27.1389   42.5253   -0.3080  H     
57   H        27.4777   45.5728   -2.0881  H     
58   H        25.7795   45.8007   -1.6861  H     
59   H        26.4110   44.1703   -1.8927  H     
60   H        27.8854   47.7027    1.4580  H     
61   H        26.2691   48.3058    1.8608  H     
62   H        26.7828   48.2171    0.1633  H     
63   H        29.5342   40.1886    2.1716  H     
64   H        29.1603   38.0212    0.3394  H     
65   H        29.8403   38.1746    3.2932  H     
66   H        29.6596   36.6745    2.3927  H     
67   H        31.4605   39.2284    0.4735  H     
68   H        31.8160   36.1318    3.3304  H     
69   H        34.1602   35.9827    2.8479  H     
70   H        35.1875   37.4971    1.2780  H     
71   H        33.8246   39.1155    0.0726  H     
72   H        26.8400   38.9618    1.7262  H     
73   H        26.9907   37.5442    0.7372  H     
74   H        27.7255   37.4955    3.5735  H     
75   H        26.1576   37.5444    3.1418  H     
76   H        27.1723   35.4123    3.7971  H     
77   H        28.7341   33.9454    3.3230  H     
78   H        29.9132   33.7850    0.6334  H     
79   H        30.8554   34.1397    2.0896  H     
80   H        30.1953   31.9350    3.0647  H     
81   H        31.0057   31.7358    1.4970  H     
82   H        29.2428   31.5821    1.6041  H     
83   H        24.8376   35.7365    3.1264  H     
84   H        25.4624   34.1885    2.5268  H     
85   H        25.2751   35.5686    1.4163  H     
@<TRIPOS>BOND
     1    1    2 2
     2    1    6 1
     3    2    3 1
     4    2    8 1
     5    3    4 2
     6    4    5 1
     7    5    6 2
     8    5    7 1
     9    7    9 1
    10    7   10 1
    11   10   11 am
    12   11   12 2
    13   11   13 1
    14   13   15 2
    15   13   16 1
    16   14   15 1
    17   14   18 2
    18   14   19 1
    19   16   17 2
    20   17   18 1
    21   17   25 1
    22   19   20 1
    23   19   22 1
    24   21   22 1
    25   22   23 2
    26   22   24 2
    27   25   26 2
    28   25   27 am
    29   27   28 1
    30   28   29 1
    31   28   36 1
    32   29   30 1
    33   30   31 1
    34   30   32 2
    35   31   35 2
    36   32   33 1
    37   33   34 2
    38   34   35 1
    39   36   37 1
    40   37   38 1
    41   38   39 1
    42   38   44 1
    43   39   40 2
    44   39   41 am
    45   41   42 1
    46   42   43 1
    47    1   45 1
    48    3   46 1
    49    4   47 1
    50    6   48 1
    51    7   49 1
    52    9   50 1
    53    9   51 1
    54    9   52 1
    55   10   53 1
    56   15   54 1
    57   16   55 1
    58   18   56 1
    59   20   57 1
    60   20   58 1
    61   20   59 1
    62   21   60 1
    63   21   61 1
    64   21   62 1
    65   27   63 1
    66   28   64 1
    67   29   65 1
    68   29   66 1
    69   31   67 1
    70   32   68 1
    71   33   69 1
    72   34   70 1
    73   35   71 1
    74   36   72 1
    75   36   73 1
    76   37   74 1
    77   37   75 1
    78   38   76 1
    79   41   77 1
    80   42   78 1
    81   42   79 1
    82   43   80 1
    83   43   81 1
    84   43   82 1
    85   44   83 1
    86   44   84 1
    87   44   85 1
@<TRIPOS>PROPERTY_DATA
  Total_Score	| 13.6426
  Crash		| -4.1559
  Polar		| 5.0748
  FragIndex	| 1
  FragRMSD	| 0.424

