@<TRIPOS>MOLECULE
BindingDB_50383205
 63 67 0 0 0
SMALL
NO_CHARGES


@<TRIPOS>ATOM
1    N        24.8564   -1.5466   11.4581  N     
2    N        24.8388   -0.2936   11.7753  N     
3    C        24.4526   -0.1964   13.0388  C     
4    C        24.0925   -1.4136   13.4951  C     
5    C        24.3016   -2.2204   12.4412  C     
6    C        23.5400   -1.7028   14.7432  C     
7    O        22.9945   -0.7803   15.3406  O     
8    N        23.4998   -2.9270   15.3100  N     
9    C        25.1022    0.7854   10.9500  C     
10   C        26.0830    1.7439   11.2968  C     
11   C        26.4726    2.7430   10.3875  C     
12   C        25.8567    2.8262    9.1289  C     
13   C        24.7913    1.9666    8.8183  C     
14   C        24.4198    0.9480    9.7184  C     
15   O        24.3266    0.8550   13.6584  O     
16   C        23.8147   -3.5808   12.3493  C     
17   C        23.0246   -3.3488   16.5409  C     
18   C        22.7051   -2.5459   17.6712  C     
19   C        22.2309   -3.1316   18.8696  C     
20   C        22.1255   -4.5358   18.9836  C     
21   C        22.4080   -5.3361   17.8607  C     
22   C        22.8634   -4.7500   16.6664  C     
23   O        21.7296   -5.1745   20.1382  O     
24   N        24.0431   -5.4046   23.5404  N     
25   C        24.5867   -4.9845   22.4064  C     
26   C        23.8436   -4.9117   21.2673  C     
27   C        22.5241   -5.2392   21.2488  C     
28   C        21.9362   -5.7225   22.4448  C     
29   C        20.5996   -6.1773   22.5262  C     
30   C        20.0740   -6.6646   23.7377  C     
31   C        20.8673   -6.6984   24.9010  C     
32   C        22.2109   -6.2672   24.8372  C     
33   C        22.7386   -5.7866   23.6196  C     
34   O        20.3783   -7.2522   26.0578  O     
35   C        19.7499   -6.3182   26.9511  C     
36   F        21.8266   -2.3818   19.8638  F     
37   C        25.5285   -2.1166   10.3324  C     
38   C        27.0282   -1.7364   10.2077  C     
39   H        23.7442   -3.7036   14.7043  H     
40   H        26.5398    1.6989   12.2074  H     
41   H        27.2102    3.4048   10.6375  H     
42   H        26.1685    3.5237    8.4511  H     
43   H        24.2857    2.0724    7.9346  H     
44   H        23.6477    0.3231    9.4754  H     
45   H        23.1910   -3.7100   11.4668  H     
46   H        23.1871   -3.7779   13.2251  H     
47   H        24.6627   -4.2715   12.3462  H     
48   H        22.7933   -1.5300   17.6299  H     
49   H        22.2581   -6.3480   17.9079  H     
50   H        23.0674   -5.3691   15.8756  H     
51   H        25.5484   -4.7361   22.3809  H     
52   H        24.3022   -4.6107   20.4362  H     
53   H        19.9997   -6.1755   21.6989  H     
54   H        19.1098   -7.0019   23.7702  H     
55   H        22.8043   -6.3110   25.6751  H     
56   H        20.4324   -5.5154   27.2343  H     
57   H        19.4619   -6.8505   27.8576  H     
58   H        18.8490   -5.8912   26.5066  H     
59   H        25.4926   -3.2069   10.3531  H     
60   H        25.0320   -1.8310    9.4033  H     
61   H        27.1412   -0.6772    9.9618  H     
62   H        27.4976   -2.3172    9.4044  H     
63   H        27.5610   -1.9456   11.1418  H     
@<TRIPOS>BOND
     1    1    2 1
     2    1    5 1
     3    1   37 1
     4    2    3 1
     5    2    9 1
     6    3    4 1
     7    3   15 2
     8    4    5 2
     9    4    6 1
    10    5   16 1
    11    6    7 2
    12    6    8 am
    13    8   17 1
    14    9   10 1
    15    9   14 2
    16   10   11 2
    17   11   12 1
    18   12   13 2
    19   13   14 1
    20   17   18 1
    21   17   22 2
    22   18   19 2
    23   19   20 1
    24   19   36 1
    25   20   21 2
    26   20   23 1
    27   21   22 1
    28   23   27 1
    29   24   25 2
    30   24   33 1
    31   25   26 1
    32   26   27 2
    33   27   28 1
    34   28   29 2
    35   28   33 1
    36   29   30 1
    37   30   31 2
    38   31   32 1
    39   31   34 1
    40   32   33 2
    41   34   35 1
    42   37   38 1
    43    8   39 1
    44   10   40 1
    45   11   41 1
    46   12   42 1
    47   13   43 1
    48   14   44 1
    49   16   45 1
    50   16   46 1
    51   16   47 1
    52   18   48 1
    53   21   49 1
    54   22   50 1
    55   25   51 1
    56   26   52 1
    57   29   53 1
    58   30   54 1
    59   32   55 1
    60   35   56 1
    61   35   57 1
    62   35   58 1
    63   37   59 1
    64   37   60 1
    65   38   61 1
    66   38   62 1
    67   38   63 1
@<TRIPOS>PROPERTY_DATA
  Total_Score	| 9.6056
  Crash		| -2.1838
  Polar		| 2.2587
  FragIndex	| 1
  FragRMSD	| 0.403

