@<TRIPOS>MOLECULE
BindingDB_50383197
 70 74 0 0 0
SMALL
NO_CHARGES


@<TRIPOS>ATOM
1    N        24.9720   -0.5851   11.8210  N     
2    N        25.3200   -1.8236   11.7852  N     
3    C        24.7704   -2.4509   12.8060  C     
4    C        24.1687   -1.5607   13.6015  C     
5    C        24.3575   -0.3755   12.9723  C     
6    C        23.5124   -1.8048   14.7976  C     
7    O        22.8249   -0.9180   15.2851  O     
8    N        23.5620   -3.0064   15.3810  N     
9    C        26.2308   -2.4137   10.9523  C     
10   C        27.5024   -2.7738   11.4542  C     
11   C        28.4393   -3.4270   10.6334  C     
12   C        28.1068   -3.7467    9.3053  C     
13   C        26.8334   -3.4228    8.8056  C     
14   C        25.8928   -2.7711    9.6283  C     
15   O        24.8622   -3.6604   12.9987  O     
16   C        24.1030    0.9552   13.5276  C     
17   C        24.6988    0.1498   10.6276  C     
18   C        25.8949    0.9486   10.0179  C     
19   C        25.9993    2.4211   10.5275  C     
20   C        26.8463    3.3794    9.6527  C     
21   O        25.7403    0.9530    8.5926  O     
22   C        23.0157   -3.4762   16.5474  C     
23   C        22.7622   -2.6947   17.7024  C     
24   C        22.2770   -3.2982   18.8852  C     
25   C        22.0643   -4.6973   18.9411  C     
26   C        22.2992   -5.4731   17.7911  C     
27   C        22.7808   -4.8652   16.6159  C     
28   O        21.6777   -5.3433   20.0897  O     
29   N        23.8906   -5.2808   23.5390  N     
30   C        24.4662   -4.9448   22.3895  C     
31   C        23.7549   -4.9669   21.2206  C     
32   C        22.4322   -5.2780   21.2128  C     
33   C        21.8048   -5.6574   22.4232  C     
34   C        20.4608   -6.0961   22.5310  C     
35   C        19.9395   -6.5241   23.7677  C     
36   C        20.7299   -6.5062   24.9348  C     
37   C        22.0583   -6.0403   24.8574  C     
38   C        22.5899   -5.6468   23.6121  C     
39   O        20.1182   -6.8887   26.1055  O     
40   C        20.8777   -7.7499   26.9853  C     
41   F        22.0873   -2.5530   19.9462  F     
42   H        24.0242   -3.6944   14.8756  H     
43   H        27.7470   -2.5720   12.4264  H     
44   H        29.3572   -3.6758   11.0056  H     
45   H        28.7898   -4.2135    8.7033  H     
46   H        26.5799   -3.6748    7.8466  H     
47   H        24.9601   -2.5734    9.2598  H     
48   H        24.8320    1.6800   13.1450  H     
49   H        24.1732    0.9582   14.6195  H     
50   H        23.1055    1.2887   13.2189  H     
51   H        24.3489   -0.5613    9.8744  H     
52   H        23.8545    0.8337   10.7535  H     
53   H        26.8372    0.4325   10.2254  H     
54   H        24.9966    2.8550   10.6056  H     
55   H        26.4425    2.4060   11.5257  H     
56   H        27.8643    3.0046    9.5486  H     
57   H        26.8831    4.3619   10.1186  H     
58   H        26.4055    3.4895    8.6623  H     
59   H        26.6037    1.2778    8.2415  H     
60   H        22.9727   -1.6989   17.7154  H     
61   H        22.1719   -6.4839   17.8196  H     
62   H        22.9910   -5.4616   15.8065  H     
63   H        25.4306   -4.7033   22.3867  H     
64   H        24.2333   -4.7631   20.3694  H     
65   H        19.8448   -6.1296   21.7028  H     
66   H        18.9787   -6.8553   23.8161  H     
67   H        22.6299   -6.0164   25.7073  H     
68   H        21.2691   -8.6278   26.4600  H     
69   H        20.2236   -8.0999   27.7782  H     
70   H        21.7194   -7.1851   27.4186  H     
@<TRIPOS>BOND
     1    1    2 1
     2    1    5 1
     3    1   17 1
     4    2    3 1
     5    2    9 1
     6    3    4 1
     7    3   15 2
     8    4    5 2
     9    4    6 1
    10    5   16 1
    11    6    7 2
    12    6    8 am
    13    8   22 1
    14    9   10 1
    15    9   14 2
    16   10   11 2
    17   11   12 1
    18   12   13 2
    19   13   14 1
    20   17   18 1
    21   18   19 1
    22   18   21 1
    23   19   20 1
    24   22   23 1
    25   22   27 2
    26   23   24 2
    27   24   25 1
    28   24   41 1
    29   25   26 2
    30   25   28 1
    31   26   27 1
    32   28   32 1
    33   29   30 2
    34   29   38 1
    35   30   31 1
    36   31   32 2
    37   32   33 1
    38   33   34 2
    39   33   38 1
    40   34   35 1
    41   35   36 2
    42   36   37 1
    43   36   39 1
    44   37   38 2
    45   39   40 1
    46    8   42 1
    47   10   43 1
    48   11   44 1
    49   12   45 1
    50   13   46 1
    51   14   47 1
    52   16   48 1
    53   16   49 1
    54   16   50 1
    55   17   51 1
    56   17   52 1
    57   18   53 1
    58   19   54 1
    59   19   55 1
    60   20   56 1
    61   20   57 1
    62   20   58 1
    63   21   59 1
    64   23   60 1
    65   26   61 1
    66   27   62 1
    67   30   63 1
    68   31   64 1
    69   34   65 1
    70   35   66 1
    71   37   67 1
    72   40   68 1
    73   40   69 1
    74   40   70 1
@<TRIPOS>PROPERTY_DATA
  Total_Score	| 15.0002
  Crash		| -1.7200
  Polar		| 2.2532
  FragIndex	| 1
  FragRMSD	| 1.243

