@<TRIPOS>MOLECULE
BindingDB_50383196
 73 77 0 0 0
SMALL
NO_CHARGES


@<TRIPOS>ATOM
1    N        24.9699   -0.6763   11.8370  N     
2    N        25.3740   -1.9053   11.8789  N     
3    C        24.8405   -2.5004   12.9301  C     
4    C        24.1344   -1.5904   13.6458  C     
5    C        24.2941   -0.4363   12.9500  C     
6    C        23.4854   -1.8340   14.8521  C     
7    O        22.8312   -0.9298   15.3492  O     
8    N        23.4218   -3.0495   15.4312  N     
9    C        26.2662   -2.5543   11.0478  C     
10   C        27.5627   -2.8986   11.5101  C     
11   C        28.4726   -3.5869   10.6841  C     
12   C        28.1083   -3.9417    9.3724  C     
13   C        26.8166   -3.6256    8.9061  C     
14   C        25.9020   -2.9631    9.7431  C     
15   O        24.9550   -3.6949   13.1763  O     
16   C        23.9196    0.9302   13.3823  C     
17   C        24.8782    0.0834   10.6319  C     
18   C        25.7736    1.3588   10.5221  C     
19   C        25.9953    1.8739    9.0527  C     
20   C        24.6841    2.0854    8.2410  C     
21   C        26.8591    3.1692    9.0307  C     
22   O        25.2552    2.4356   11.2973  O     
23   C        22.8805   -3.4309   16.6339  C     
24   C        22.5825   -4.8083   16.7847  C     
25   C        22.0910   -5.3188   18.0125  C     
26   C        21.9185   -4.4717   19.1227  C     
27   C        22.1773   -3.0939   18.9774  C     
28   C        22.6841   -2.5949   17.7607  C     
29   O        21.5643   -4.9749   20.3612  O     
30   N        24.1966   -5.3474   23.5039  N     
31   C        24.6289   -4.8732   22.3406  C     
32   C        23.7843   -4.7612   21.2803  C     
33   C        22.4715   -5.1120   21.3581  C     
34   C        21.9893   -5.6168   22.5934  C     
35   C        20.6545   -6.0134   22.8269  C     
36   C        20.2497   -6.5303   24.0748  C     
37   C        21.1778   -6.6586   25.1341  C     
38   C        22.5112   -6.2562   24.9232  C     
39   C        22.9084   -5.7353   23.6795  C     
40   O        20.7673   -7.2539   26.2985  O     
41   C        20.9522   -6.4781   27.4967  C     
42   F        21.8672   -6.6010   18.1343  F     
43   H        23.8041   -3.7889   14.9340  H     
44   H        27.8524   -2.6491   12.4579  H     
45   H        29.4129   -3.8146   11.0268  H     
46   H        28.7770   -4.4144    8.7567  H     
47   H        26.5538   -3.8670    7.9457  H     
48   H        24.9609   -2.7669    9.3901  H     
49   H        24.8379    1.5279   13.4876  H     
50   H        23.4015    0.9976   14.3363  H     
51   H        23.2653    1.3909   12.6243  H     
52   H        25.1258   -0.5373    9.7727  H     
53   H        23.8337    0.3623   10.4787  H     
54   H        26.7564    1.1025   10.9319  H     
55   H        26.5803    1.1204    8.5239  H     
56   H        24.2125    1.1215    8.0280  H     
57   H        24.8969    2.5673    7.2829  H     
58   H        23.9745    2.7046    8.7945  H     
59   H        26.3297    4.0077    9.5008  H     
60   H        27.0954    3.4503    7.9995  H     
61   H        27.8023    3.0084    9.5675  H     
62   H        24.3266    2.5360   11.0057  H     
63   H        22.7399   -5.4493   16.0022  H     
64   H        22.0949   -2.4629   19.7874  H     
65   H        22.9534   -1.6034   17.7402  H     
66   H        25.5893   -4.6233   22.2517  H     
67   H        24.1737   -4.3964   20.4422  H     
68   H        19.9476   -5.9339   22.0895  H     
69   H        19.2872   -6.8365   24.2168  H     
70   H        23.2010   -6.3587   25.6732  H     
71   H        22.0159   -6.3864   27.7378  H     
72   H        20.4691   -7.0007   28.3234  H     
73   H        20.5082   -5.4821   27.4076  H     
@<TRIPOS>BOND
     1    1    2 1
     2    1    5 1
     3    1   17 1
     4    2    3 1
     5    2    9 1
     6    3    4 1
     7    3   15 2
     8    4    5 2
     9    4    6 1
    10    5   16 1
    11    6    7 2
    12    6    8 am
    13    8   23 1
    14    9   10 1
    15    9   14 2
    16   10   11 2
    17   11   12 1
    18   12   13 2
    19   13   14 1
    20   17   18 1
    21   18   19 1
    22   18   22 1
    23   19   20 1
    24   19   21 1
    25   23   24 1
    26   23   28 2
    27   24   25 2
    28   25   26 1
    29   25   42 1
    30   26   27 2
    31   26   29 1
    32   27   28 1
    33   29   33 1
    34   30   31 2
    35   30   39 1
    36   31   32 1
    37   32   33 2
    38   33   34 1
    39   34   35 2
    40   34   39 1
    41   35   36 1
    42   36   37 2
    43   37   38 1
    44   37   40 1
    45   38   39 2
    46   40   41 1
    47    8   43 1
    48   10   44 1
    49   11   45 1
    50   12   46 1
    51   13   47 1
    52   14   48 1
    53   16   49 1
    54   16   50 1
    55   16   51 1
    56   17   52 1
    57   17   53 1
    58   18   54 1
    59   19   55 1
    60   20   56 1
    61   20   57 1
    62   20   58 1
    63   21   59 1
    64   21   60 1
    65   21   61 1
    66   22   62 1
    67   24   63 1
    68   27   64 1
    69   28   65 1
    70   31   66 1
    71   32   67 1
    72   35   68 1
    73   36   69 1
    74   38   70 1
    75   41   71 1
    76   41   72 1
    77   41   73 1
@<TRIPOS>PROPERTY_DATA
  Total_Score	| 16.1575
  Crash		| -2.1336
  Polar		| 3.1567
  FragIndex	| 1
  FragRMSD	| 0.680

