@<TRIPOS>MOLECULE
BindingDB_24460
 66 70 0 0 0
SMALL
NO_CHARGES


@<TRIPOS>ATOM
1    C        26.7617   -3.3029    8.8272  C     
2    C        25.9223   -2.6464    9.7492  C     
3    C        27.6665   -2.7994   11.4432  C     
4    C        28.5069   -3.4525   10.5220  C     
5    C        28.0532   -3.7048    9.2126  C     
6    C        26.3715   -2.3805   11.0628  C     
7    C        25.0138   -2.3063   12.9959  C     
8    C        24.3946   -0.2709   12.9741  C     
9    N        25.5620   -1.7211   11.9567  N     
10   N        25.1854   -0.4919   11.9339  N     
11   O        25.1273   -3.5091   13.2253  O     
12   C        23.7604    1.0267   13.2471  C     
13   C        24.2847   -1.4157   13.6914  C     
14   C        23.6176   -1.6917   14.8752  C     
15   O        22.9254   -0.8427   15.4114  O     
16   N        23.6150   -2.9076   15.4314  N     
17   C        23.0512   -3.3841   16.5850  C     
18   C        22.2928   -3.2110   18.9189  C     
19   C        22.0519   -4.6037   18.9699  C     
20   C        22.2727   -5.3753   17.8134  C     
21   C        22.7735   -4.7720   16.6407  C     
22   C        22.7941   -2.6158   17.7427  C     
23   F        22.0862   -2.4700   19.9766  F     
24   O        21.6567   -5.2228   20.1370  O     
25   C        22.5078   -5.2706   21.2331  C     
26   C        23.8832   -4.9138   21.1824  C     
27   C        24.6752   -4.9680   22.3389  C     
28   N        24.1412   -5.4061   23.5053  N     
29   C        21.9826   -5.7295   22.4741  C     
30   C        22.8473   -5.8022   23.6085  C     
31   C        20.6584   -6.1468   22.6575  C     
32   C        20.2401   -6.6293   23.8472  C     
33   C        21.0842   -6.7125   24.9267  C     
34   C        22.3725   -6.3127   24.8150  C     
35   O        20.6463   -7.3377   26.0345  O     
36   C        20.9114   -6.6848   27.2942  C     
37   C        25.7020    0.4869   11.0352  C     
38   C        24.7918    0.7172    9.7963  C     
39   C        25.1863    1.9614    8.9638  C     
40   H        26.4332   -3.4833    7.8739  H     
41   H        24.9841   -2.3675    9.4592  H     
42   H        28.0093   -2.6156   12.3889  H     
43   H        29.4521   -3.7343   10.7999  H     
44   H        28.6677   -4.1755    8.5399  H     
45   H        24.5039    1.8269   13.2821  H     
46   H        23.2182    1.0969   14.1701  H     
47   H        23.0554    1.2604   12.4488  H     
48   H        24.0579   -3.5945   14.9278  H     
49   H        22.1015   -6.3838   17.8345  H     
50   H        22.9629   -5.3719   15.8347  H     
51   H        23.0217   -1.6208   17.7495  H     
52   H        24.3140   -4.6031   20.3077  H     
53   H        25.6629   -4.7052   22.3073  H     
54   H        20.0117   -6.0932   21.9051  H     
55   H        19.3011   -6.9410   23.9367  H     
56   H        22.9929   -6.4218   25.5842  H     
57   H        21.9824   -6.7067   27.5309  H     
58   H        20.3786   -7.2222   28.0715  H     
59   H        20.5622   -5.6477   27.2915  H     
60   H        25.8733    1.4310   11.5573  H     
61   H        26.6877    0.1980   10.6615  H     
62   H        24.8492   -0.1556    9.1386  H     
63   H        23.7503    0.8278   10.1039  H     
64   H        25.0863    2.8702    9.5652  H     
65   H        24.5306    2.0491    8.0927  H     
66   H        26.2193    1.8774    8.6135  H     
@<TRIPOS>BOND
     1    1    2 2
     2    1    5 1
     3    2    6 1
     4    3    4 1
     5    3    6 2
     6    4    5 2
     7    6    9 1
     8    7    9 1
     9    7   11 2
    10    7   13 1
    11    8   10 1
    12    8   12 1
    13    8   13 2
    14    9   10 1
    15   10   37 1
    16   13   14 1
    17   14   15 2
    18   14   16 am
    19   16   17 1
    20   17   21 2
    21   17   22 1
    22   18   19 1
    23   18   22 2
    24   18   23 1
    25   19   20 2
    26   19   24 1
    27   20   21 1
    28   24   25 1
    29   25   26 1
    30   25   29 2
    31   26   27 2
    32   27   28 1
    33   28   30 2
    34   29   30 1
    35   29   31 1
    36   30   34 1
    37   31   32 2
    38   32   33 1
    39   33   34 2
    40   33   35 1
    41   35   36 1
    42   37   38 1
    43   38   39 1
    44    1   40 1
    45    2   41 1
    46    3   42 1
    47    4   43 1
    48    5   44 1
    49   12   45 1
    50   12   46 1
    51   12   47 1
    52   16   48 1
    53   20   49 1
    54   21   50 1
    55   22   51 1
    56   26   52 1
    57   27   53 1
    58   31   54 1
    59   32   55 1
    60   34   56 1
    61   36   57 1
    62   36   58 1
    63   36   59 1
    64   37   60 1
    65   37   61 1
    66   38   62 1
    67   38   63 1
    68   39   64 1
    69   39   65 1
    70   39   66 1
@<TRIPOS>PROPERTY_DATA
  Total_Score	| 13.1686
  Crash		| -1.6363
  Polar		| 2.2351
  FragIndex	| 1
  FragRMSD	| 1.201

