@<TRIPOS>MOLECULE
BindingDB_50383202
 67 71 0 0 0
SMALL
NO_CHARGES


@<TRIPOS>ATOM
1    N        25.2507   -0.4557   12.0863  N     
2    N        25.4690   -1.7183   11.9720  N     
3    C        24.8543   -2.3479   12.9527  C     
4    C        24.3261   -1.4460   13.7921  C     
5    C        24.6325   -0.2486   13.2350  C     
6    C        23.6373   -1.7285   14.9478  C     
7    O        22.9046   -0.8678   15.4327  O     
8    N        23.6868   -2.9317   15.5132  N     
9    C        26.2819   -2.3432   11.0588  C     
10   C        25.8439   -2.5907    9.7391  C     
11   C        26.6785   -3.2528    8.8178  C     
12   C        27.9694   -3.6631    9.1998  C     
13   C        28.4213   -3.4109   10.5070  C     
14   C        27.5823   -2.7535   11.4296  C     
15   O        24.8317   -3.5681   13.1027  O     
16   C        25.3982    0.4956   11.0314  C     
17   C        24.3129    0.5942   10.0380  C     
18   C        23.2035   -0.1645   10.0998  C     
19   C        24.4560    1.5861    8.9698  C     
20   C        24.3945    1.0695   13.8278  C     
21   C        23.0786   -3.4275   16.6358  C     
22   C        22.7912   -2.6847   17.8098  C     
23   C        22.3400   -3.3250   18.9815  C     
24   C        22.1502   -4.7272   19.0022  C     
25   C        22.3518   -5.4574   17.8171  C     
26   C        22.8196   -4.8165   16.6535  C     
27   O        21.7785   -5.3978   20.1496  O     
28   N        24.0066   -5.4718   23.6037  N     
29   C        24.5816   -5.1232   22.4664  C     
30   C        23.8676   -5.1108   21.3007  C     
31   C        22.5390   -5.3936   21.2816  C     
32   C        21.9030   -5.7758   22.4904  C     
33   C        20.5427   -6.1593   22.5811  C     
34   C        19.9977   -6.5766   23.8065  C     
35   C        20.7808   -6.6205   24.9723  C     
36   C        22.1392   -6.2320   24.9050  C     
37   C        22.6915   -5.8131   23.6747  C     
38   O        20.1892   -7.1601   26.0904  O     
39   C        20.5650   -6.5807   27.3578  C     
40   F        22.1117   -2.6296   20.0620  F     
41   H        24.2141   -3.5865   15.0258  H     
42   H        24.9084   -2.3104    9.4424  H     
43   H        26.3513   -3.4343    7.8640  H     
44   H        28.5808   -4.1364    8.5248  H     
45   H        29.3642   -3.7014   10.7841  H     
46   H        27.9228   -2.5863   12.3764  H     
47   H        25.5708    1.4950   11.4380  H     
48   H        26.3218    0.2608   10.4971  H     
49   H        22.4879   -0.0798    9.4227  H     
50   H        23.0607   -0.8333   10.8197  H     
51   H        24.5619    2.5843    9.4010  H     
52   H        23.6006    1.6127    8.2865  H     
53   H        25.3446    1.3609    8.3766  H     
54   H        25.3074    1.6788   13.7596  H     
55   H        24.1306    1.0328   14.8914  H     
56   H        23.5855    1.5756   13.2745  H     
57   H        22.9566   -1.6789   17.8365  H     
58   H        22.1798   -6.4683   17.8103  H     
59   H        22.9929   -5.3875   15.8223  H     
60   H        25.5517   -4.9163   22.4683  H     
61   H        24.3528   -4.8868   20.4591  H     
62   H        19.9413   -6.1474   21.7537  H     
63   H        19.0160   -6.8559   23.8428  H     
64   H        22.7170   -6.2744   25.7460  H     
65   H        21.6082   -6.8213   27.5937  H     
66   H        19.9329   -7.0106   28.1302  H     
67   H        20.4292   -5.4926   27.3719  H     
@<TRIPOS>BOND
     1    1    2 1
     2    1    5 1
     3    1   16 1
     4    2    3 1
     5    2    9 1
     6    3    4 1
     7    3   15 2
     8    4    5 2
     9    4    6 1
    10    5   20 1
    11    6    7 2
    12    6    8 am
    13    8   21 1
    14    9   10 1
    15    9   14 2
    16   10   11 2
    17   11   12 1
    18   12   13 2
    19   13   14 1
    20   16   17 1
    21   17   18 2
    22   17   19 1
    23   21   22 1
    24   21   26 2
    25   22   23 2
    26   23   24 1
    27   23   40 1
    28   24   25 2
    29   24   27 1
    30   25   26 1
    31   27   31 1
    32   28   29 2
    33   28   37 1
    34   29   30 1
    35   30   31 2
    36   31   32 1
    37   32   33 2
    38   32   37 1
    39   33   34 1
    40   34   35 2
    41   35   36 1
    42   35   38 1
    43   36   37 2
    44   38   39 1
    45    8   41 1
    46   10   42 1
    47   11   43 1
    48   12   44 1
    49   13   45 1
    50   14   46 1
    51   16   47 1
    52   16   48 1
    53   18   49 1
    54   18   50 1
    55   19   51 1
    56   19   52 1
    57   19   53 1
    58   20   54 1
    59   20   55 1
    60   20   56 1
    61   22   57 1
    62   25   58 1
    63   26   59 1
    64   29   60 1
    65   30   61 1
    66   33   62 1
    67   34   63 1
    68   36   64 1
    69   39   65 1
    70   39   66 1
    71   39   67 1
@<TRIPOS>PROPERTY_DATA
  Total_Score	| 13.2002
  Crash		| -1.3361
  Polar		| 2.2733
  FragIndex	| 1
  FragRMSD	| 1.150

