@<TRIPOS>MOLECULE
BindingDB_24464
 65 69 0 0 0
SMALL
NO_CHARGES


@<TRIPOS>ATOM
1    C        26.7185   -3.3053    8.8133  C     
2    C        25.8734   -2.6701    9.7452  C     
3    C        27.6218   -2.8283   11.4341  C     
4    C        28.4687   -3.4579   10.5025  C     
5    C        28.0164   -3.6964    9.1923  C     
6    C        26.3215   -2.4205   11.0610  C     
7    C        24.9180   -2.3410   12.9710  C     
8    C        24.5558   -0.2385   13.0973  C     
9    N        25.5284   -1.7560   11.9615  N     
10   N        25.2879   -0.4895   12.0231  N     
11   O        24.8895   -3.5580   13.1484  O     
12   C        24.1459    1.1121   13.5016  C     
13   C        24.3156   -1.4091   13.7309  C     
14   C        23.6380   -1.6565   14.9079  C     
15   O        22.9416   -0.7763   15.4025  O     
16   N        23.6670   -2.8643   15.4786  N     
17   C        23.0637   -3.3183   16.6209  C     
18   C        22.3007   -3.0804   18.9453  C     
19   C        22.0455   -4.4690   19.0225  C     
20   C        22.2602   -5.2663   17.8813  C     
21   C        22.7720   -4.6960   16.7002  C     
22   C        22.8045   -2.5141   17.7543  C     
23   F        22.1139   -2.3168   19.9927  F     
24   O        21.6084   -5.0698   20.1773  O     
25   C        22.4511   -5.1758   21.2728  C     
26   C        23.8507   -4.9543   21.2182  C     
27   C        24.6320   -5.0821   22.3772  C     
28   N        24.0530   -5.4184   23.5533  N     
29   C        21.8779   -5.5614   22.5176  C     
30   C        22.7230   -5.6590   23.6647  C     
31   C        20.5190   -5.8578   22.7011  C     
32   C        20.0445   -6.2075   23.9155  C     
33   C        20.8615   -6.2830   25.0142  C     
34   C        22.1796   -6.0009   24.9037  C     
35   O        20.3171   -6.5557   26.2104  O     
36   C        21.1141   -7.4165   27.0570  C     
37   C        25.6401    0.4482   11.0082  C     
38   C        24.6330    0.6072    9.9659  C     
39   C        24.7735    1.6233    8.9399  C     
40   O        23.6608   -0.1408    9.9164  O     
41   H        26.3924   -3.4753    7.8627  H     
42   H        24.9337   -2.3848    9.4586  H     
43   H        27.9646   -2.6496   12.3817  H     
44   H        29.4132   -3.7306   10.7757  H     
45   H        28.6358   -4.1380    8.5100  H     
46   H        25.0344    1.7538   13.6027  H     
47   H        23.6067    1.1622   14.4328  H     
48   H        23.5048    1.5369   12.7170  H     
49   H        24.1547   -3.5488   14.9955  H     
50   H        22.0759   -6.2698   17.9185  H     
51   H        22.9545   -5.3052   15.8969  H     
52   H        23.0358   -1.5175   17.7393  H     
53   H        24.3074   -4.6946   20.3422  H     
54   H        25.6435   -4.9274   22.3337  H     
55   H        19.8870   -5.8252   21.9324  H     
56   H        19.0771   -6.4235   24.0146  H     
57   H        22.7640   -6.0425   25.7084  H     
58   H        21.3562   -8.3583   26.5574  H     
59   H        20.5479   -7.6429   27.9502  H     
60   H        22.0411   -6.9097   27.3519  H     
61   H        25.8548    1.4253   11.4442  H     
62   H        26.5745    0.1439   10.5258  H     
63   H        24.8045    2.6123    9.4008  H     
64   H        23.9384    1.6009    8.2321  H     
65   H        25.7034    1.4636    8.3806  H     
@<TRIPOS>BOND
     1    1    2 2
     2    1    5 1
     3    2    6 1
     4    3    4 1
     5    3    6 2
     6    4    5 2
     7    6    9 1
     8    7    9 1
     9    7   11 2
    10    7   13 1
    11    8   10 1
    12    8   12 1
    13    8   13 2
    14    9   10 1
    15   10   37 1
    16   13   14 1
    17   14   15 2
    18   14   16 am
    19   16   17 1
    20   17   21 2
    21   17   22 1
    22   18   19 1
    23   18   22 2
    24   18   23 1
    25   19   20 2
    26   19   24 1
    27   20   21 1
    28   24   25 1
    29   25   26 1
    30   25   29 2
    31   26   27 2
    32   27   28 1
    33   28   30 2
    34   29   30 1
    35   29   31 1
    36   30   34 1
    37   31   32 2
    38   32   33 1
    39   33   34 2
    40   33   35 1
    41   35   36 1
    42   37   38 1
    43   38   39 1
    44   38   40 2
    45    1   41 1
    46    2   42 1
    47    3   43 1
    48    4   44 1
    49    5   45 1
    50   12   46 1
    51   12   47 1
    52   12   48 1
    53   16   49 1
    54   20   50 1
    55   21   51 1
    56   22   52 1
    57   26   53 1
    58   27   54 1
    59   31   55 1
    60   32   56 1
    61   34   57 1
    62   36   58 1
    63   36   59 1
    64   36   60 1
    65   37   61 1
    66   37   62 1
    67   39   63 1
    68   39   64 1
    69   39   65 1
@<TRIPOS>PROPERTY_DATA
  Total_Score	| 12.8550
  Crash		| -1.6726
  Polar		| 2.2779
  FragIndex	| 1
  FragRMSD	| 0.227

