@<TRIPOS>MOLECULE
BindingDB_24463
 67 71 0 0 0
SMALL
NO_CHARGES


@<TRIPOS>ATOM
1    C        28.4516   -3.4822   10.5433  C     
2    C        27.5444   -2.8080   11.3826  C     
3    C        25.8953   -2.7754    9.5910  C     
4    C        26.8001   -3.4581    8.7515  C     
5    C        28.0759   -3.8225    9.2297  C     
6    C        26.2546   -2.4544   10.9192  C     
7    C        24.7953   -2.4018   12.7898  C     
8    C        24.5699   -0.2946   12.9998  C     
9    N        25.3860   -1.8084   11.7708  N     
10   N        25.1945   -0.5397   11.8631  N     
11   O        24.7435   -3.6140   12.9596  O     
12   C        24.3239    1.0512   13.5241  C     
13   C        24.2877   -1.4648   13.6041  C     
14   C        23.6527   -1.7002   14.8004  C     
15   O        22.9317   -0.8229   15.2609  O     
16   N        23.7441   -2.8767   15.4232  N     
17   C        23.1379   -3.3072   16.5768  C     
18   C        22.3164   -3.0309   18.8816  C     
19   C        22.0776   -4.4200   18.9764  C     
20   C        22.2968   -5.2330   17.8480  C     
21   C        22.8355   -4.6832   16.6688  C     
22   C        22.8467   -2.4840   17.6925  C     
23   F        22.0628   -2.2461   19.8959  F     
24   O        21.6252   -5.0071   20.1311  O     
25   C        22.4679   -5.1376   21.2286  C     
26   C        23.8783   -4.9444   21.1937  C     
27   C        24.6416   -5.0940   22.3676  C     
28   N        24.0449   -5.4202   23.5368  N     
29   C        21.8779   -5.5334   22.4615  C     
30   C        22.7095   -5.6424   23.6203  C     
31   C        20.5158   -5.8550   22.6172  C     
32   C        20.0419   -6.2724   23.8127  C     
33   C        20.8430   -6.3514   24.9335  C     
34   C        22.1458   -6.0074   24.8478  C     
35   O        20.2373   -6.6353   26.1097  O     
36   C        21.0069   -7.3813   27.0820  C     
37   C        25.4687    0.3936   10.8196  C     
38   C        24.3761    0.4337    9.7091  C     
39   C        24.5490    1.6461    8.7607  C     
40   O        23.0727    0.4724   10.2864  O     
41   H        29.3881   -3.7262   10.8872  H     
42   H        27.8262   -2.5842   12.3395  H     
43   H        24.9724   -2.5163    9.2301  H     
44   H        26.5336   -3.6961    7.7912  H     
45   H        28.7269   -4.3321    8.6234  H     
46   H        25.2522    1.6227   13.5318  H     
47   H        23.9442    1.0602   14.5407  H     
48   H        23.6066    1.5721   12.8883  H     
49   H        24.2568   -3.5656   14.9628  H     
50   H        22.0795   -6.2338   17.8910  H     
51   H        23.0111   -5.3051   15.8737  H     
52   H        23.0573   -1.4849   17.6636  H     
53   H        24.3624   -4.6961   20.3225  H     
54   H        25.6497   -4.9713   22.3498  H     
55   H        19.8955   -5.7989   21.8337  H     
56   H        19.0739   -6.5193   23.8784  H     
57   H        22.6949   -6.0173   25.6765  H     
58   H        21.4244   -8.3041   26.6593  H     
59   H        20.3423   -7.6388   27.8887  H     
60   H        21.8367   -6.7764   27.4859  H     
61   H        25.6043    1.3980   11.2288  H     
62   H        26.4271    0.1535   10.3483  H     
63   H        24.4430   -0.4728    9.1074  H     
64   H        24.4685    2.5857    9.3141  H     
65   H        23.7737    1.6353    7.9906  H     
66   H        25.5234    1.6082    8.2691  H     
67   H        22.4664    0.7739    9.5770  H     
@<TRIPOS>BOND
     1    1    2 2
     2    1    5 1
     3    2    6 1
     4    3    4 1
     5    3    6 2
     6    4    5 2
     7    6    9 1
     8    7    9 1
     9    7   11 2
    10    7   13 1
    11    8   10 1
    12    8   12 1
    13    8   13 2
    14    9   10 1
    15   10   37 1
    16   13   14 1
    17   14   15 2
    18   14   16 am
    19   16   17 1
    20   17   21 2
    21   17   22 1
    22   18   19 1
    23   18   22 2
    24   18   23 1
    25   19   20 2
    26   19   24 1
    27   20   21 1
    28   24   25 1
    29   25   26 1
    30   25   29 2
    31   26   27 2
    32   27   28 1
    33   28   30 2
    34   29   30 1
    35   29   31 1
    36   30   34 1
    37   31   32 2
    38   32   33 1
    39   33   34 2
    40   33   35 1
    41   35   36 1
    42   37   38 1
    43   38   39 1
    44   38   40 1
    45    1   41 1
    46    2   42 1
    47    3   43 1
    48    4   44 1
    49    5   45 1
    50   12   46 1
    51   12   47 1
    52   12   48 1
    53   16   49 1
    54   20   50 1
    55   21   51 1
    56   22   52 1
    57   26   53 1
    58   27   54 1
    59   31   55 1
    60   32   56 1
    61   34   57 1
    62   36   58 1
    63   36   59 1
    64   36   60 1
    65   37   61 1
    66   37   62 1
    67   38   63 1
    68   39   64 1
    69   39   65 1
    70   39   66 1
    71   40   67 1
@<TRIPOS>PROPERTY_DATA
  Total_Score	| 14.2224
  Crash		| -1.3061
  Polar		| 3.3887
  FragIndex	| 1
  FragRMSD	| 0.276

