@<TRIPOS>MOLECULE
BindingDB_24465
 70 74 0 0 0
SMALL
NO_CHARGES


@<TRIPOS>ATOM
1    C        26.9009   -3.5019    8.8419  C     
2    C        25.9496   -2.9018    9.6905  C     
3    C        27.6178   -2.7867   11.4636  C     
4    C        28.5554   -3.4322   10.6334  C     
5    C        28.2047   -3.7637    9.3106  C     
6    C        26.3101   -2.5108   10.9966  C     
7    C        24.7743   -2.5074   12.8035  C     
8    C        24.5701   -0.4038   13.0845  C     
9    N        25.4058   -1.8849   11.8264  N     
10   N        25.1959   -0.6180   11.9432  N     
11   O        24.7956   -3.7219   12.9859  O     
12   C        24.4513    0.8940   13.7525  C     
13   C        24.2331   -1.5944   13.6209  C     
14   C        23.5610   -1.8326   14.7960  C     
15   O        22.8435   -0.9378   15.2367  O     
16   N        23.6084   -3.0292   15.3846  N     
17   C        23.0083   -3.4837   16.5331  C     
18   C        22.2167   -3.2402   18.8479  C     
19   C        21.9800   -4.6277   18.9320  C     
20   C        22.2053   -5.4317   17.7990  C     
21   C        22.7265   -4.8655   16.6200  C     
22   C        22.7411   -2.6753   17.6669  C     
23   F        22.0400   -2.4839   19.8947  F     
24   O        21.5857   -5.2015   20.1143  O     
25   C        22.4722   -5.2335   21.1801  C     
26   C        23.8308   -4.8264   21.0959  C     
27   C        24.6648   -4.8867   22.2229  C     
28   N        24.1807   -5.3455   23.3982  N     
29   C        21.9978   -5.7106   22.4338  C     
30   C        22.8981   -5.7622   23.5415  C     
31   C        20.6852   -6.1553   22.6584  C     
32   C        20.3119   -6.6249   23.8688  C     
33   C        21.1906   -6.6804   24.9236  C     
34   C        22.4680   -6.2630   24.7652  C     
35   O        20.7771   -7.2738   26.0585  O     
36   C        21.0648   -6.5698   27.2814  C     
37   C        25.3947    0.3362   10.9014  C     
38   O        23.0037    0.9009   10.7970  O     
39   C        24.4029    1.8586    9.0788  C     
40   C        24.1484    0.6179    9.9861  C     
41   C        23.7712   -0.6039    9.0982  C     
42   H        26.6505   -3.7503    7.8815  H     
43   H        24.9982   -2.7311    9.3488  H     
44   H        27.8883   -2.5308   12.4226  H     
45   H        29.4925   -3.6398   10.9882  H     
46   H        28.8950   -4.2029    8.6971  H     
47   H        25.3565    1.4920   13.6157  H     
48   H        24.2987    0.7828   14.8342  H     
49   H        23.6105    1.4472   13.3307  H     
50   H        24.1122   -3.7077   14.9026  H     
51   H        22.0424   -6.4400   17.8461  H     
52   H        22.9210   -5.4760   15.8198  H     
53   H        22.9722   -1.6805   17.6612  H     
54   H        24.2262   -4.4779   20.2200  H     
55   H        25.6402   -4.5935   22.1568  H     
56   H        20.0099   -6.1316   21.9255  H     
57   H        19.3787   -6.9413   23.9980  H     
58   H        23.1097   -6.3329   25.5231  H     
59   H        22.1347   -6.5993   27.4976  H     
60   H        20.5384   -7.0659   28.0977  H     
61   H        20.7257   -5.5309   27.2426  H     
62   H        25.7359    1.2730   11.3431  H     
63   H        26.2183    0.0215   10.2544  H     
64   H        22.2891    1.1633   10.1741  H     
65   H        24.5890    2.7436    9.6915  H     
66   H        23.5339    2.0598    8.4493  H     
67   H        25.2674    1.6921    8.4324  H     
68   H        24.5963   -0.8747    8.4403  H     
69   H        22.8998   -0.3755    8.4755  H     
70   H        23.5335   -1.4690    9.7197  H     
@<TRIPOS>BOND
     1    1    2 2
     2    1    5 1
     3    2    6 1
     4    3    4 1
     5    3    6 2
     6    4    5 2
     7    6    9 1
     8    7    9 1
     9    7   11 2
    10    7   13 1
    11    8   10 1
    12    8   12 1
    13    8   13 2
    14    9   10 1
    15   10   37 1
    16   13   14 1
    17   14   15 2
    18   14   16 am
    19   16   17 1
    20   17   21 2
    21   17   22 1
    22   18   19 1
    23   18   22 2
    24   18   23 1
    25   19   20 2
    26   19   24 1
    27   20   21 1
    28   24   25 1
    29   25   26 1
    30   25   29 2
    31   26   27 2
    32   27   28 1
    33   28   30 2
    34   29   30 1
    35   29   31 1
    36   30   34 1
    37   31   32 2
    38   32   33 1
    39   33   34 2
    40   33   35 1
    41   35   36 1
    42   37   40 1
    43   38   40 1
    44   39   40 1
    45   40   41 1
    46    1   42 1
    47    2   43 1
    48    3   44 1
    49    4   45 1
    50    5   46 1
    51   12   47 1
    52   12   48 1
    53   12   49 1
    54   16   50 1
    55   20   51 1
    56   21   52 1
    57   22   53 1
    58   26   54 1
    59   27   55 1
    60   31   56 1
    61   32   57 1
    62   34   58 1
    63   36   59 1
    64   36   60 1
    65   36   61 1
    66   37   62 1
    67   37   63 1
    68   38   64 1
    69   39   65 1
    70   39   66 1
    71   39   67 1
    72   41   68 1
    73   41   69 1
    74   41   70 1
@<TRIPOS>PROPERTY_DATA
  Total_Score	| 13.5208
  Crash		| -2.2736
  Polar		| 3.0297
  FragIndex	| 1
  FragRMSD	| 1.146

