@<TRIPOS>MOLECULE
BindingDB_24461
 69 73 0 0 0
SMALL
NO_CHARGES


@<TRIPOS>ATOM
1    C        28.5580   -3.4306   10.6962  C     
2    C        27.6207   -2.7591   11.5073  C     
3    C        26.0223   -2.7623    9.6801  C     
4    C        26.9629   -3.4228    8.8604  C     
5    C        28.2333   -3.7512    9.3664  C     
6    C        26.3444   -2.3979   11.0096  C     
7    C        25.0204   -2.3407   12.9797  C     
8    C        24.2574   -0.3600   12.8968  C     
9    N        25.4214   -1.7918   11.8463  N     
10   N        24.9001   -0.6114   11.7655  N     
11   O        25.3566   -3.4547   13.3571  O     
12   C        23.7245    0.9613   13.2433  C     
13   C        24.2571   -1.4695   13.6618  C     
14   C        23.6606   -1.7121   14.8872  C     
15   O        23.0126   -0.8172   15.4184  O     
16   N        23.6378   -2.9209   15.4531  N     
17   C        23.0575   -3.3566   16.6224  C     
18   C        22.2551   -3.1036   18.9354  C     
19   C        21.9737   -4.4852   19.0056  C     
20   C        22.1790   -5.2874   17.8652  C     
21   C        22.7281   -4.7293   16.6964  C     
22   C        22.8061   -2.5527   17.7625  C     
23   F        22.0590   -2.3304   19.9703  F     
24   O        21.5452   -5.0841   20.1647  O     
25   C        22.4001   -5.1154   21.2557  C     
26   C        23.7921   -4.8621   21.1662  C     
27   C        24.5864   -4.8677   22.3275  C     
28   N        24.0315   -5.1610   23.5280  N     
29   C        21.8603   -5.4538   22.5247  C     
30   C        22.7156   -5.4640   23.6658  C     
31   C        20.5161   -5.8016   22.7222  C     
32   C        20.0735   -6.1759   23.9400  C     
33   C        20.9033   -6.1985   25.0323  C     
34   C        22.1925   -5.8089   24.9132  C     
35   O        20.3660   -6.5247   26.2226  O     
36   C        21.1859   -7.3578   27.0662  C     
37   C        24.8188    0.1875   10.5821  C     
38   C        25.8065    1.4108   10.5370  C     
39   C        26.8304    1.2943    9.3751  C     
40   C        25.0829    2.7817   10.4440  C     
41   H        29.4760   -3.6852   11.0743  H     
42   H        27.8734   -2.5471   12.4754  H     
43   H        25.0934   -2.5617    9.3026  H     
44   H        26.7200   -3.6723    7.8968  H     
45   H        28.9195   -4.2206    8.7693  H     
46   H        24.5312    1.6937   13.2113  H     
47   H        23.2908    1.0295   14.2334  H     
48   H        22.9486    1.2460   12.5327  H     
49   H        24.0431   -3.6351   14.9355  H     
50   H        21.9574   -6.2859   17.8943  H     
51   H        22.8877   -5.3405   15.8904  H     
52   H        23.0516   -1.5628   17.7640  H     
53   H        24.2344   -4.6624   20.2664  H     
54   H        25.5858   -4.6611   22.2691  H     
55   H        19.8752   -5.7901   21.9608  H     
56   H        19.1201   -6.4338   24.0447  H     
57   H        22.7790   -5.7884   25.7153  H     
58   H        21.5176   -8.2640   26.5528  H     
59   H        20.6030   -7.6568   27.9380  H     
60   H        22.0553   -6.8014   27.4190  H     
61   H        24.9866   -0.4314    9.7026  H     
62   H        23.7861    0.5225   10.4475  H     
63   H        26.3872    1.4244   11.4643  H     
64   H        27.3728    0.3517    9.4586  H     
65   H        27.5563    2.1103    9.4115  H     
66   H        26.3230    1.3281    8.4088  H     
67   H        24.4706    2.8374    9.5424  H     
68   H        25.8070    3.5994   10.4269  H     
69   H        24.4410    2.9242   11.3111  H     
@<TRIPOS>BOND
     1    1    2 2
     2    1    5 1
     3    2    6 1
     4    3    4 1
     5    3    6 2
     6    4    5 2
     7    6    9 1
     8    7    9 1
     9    7   11 2
    10    7   13 1
    11    8   10 1
    12    8   12 1
    13    8   13 2
    14    9   10 1
    15   10   37 1
    16   13   14 1
    17   14   15 2
    18   14   16 am
    19   16   17 1
    20   17   21 2
    21   17   22 1
    22   18   19 1
    23   18   22 2
    24   18   23 1
    25   19   20 2
    26   19   24 1
    27   20   21 1
    28   24   25 1
    29   25   26 1
    30   25   29 2
    31   26   27 2
    32   27   28 1
    33   28   30 2
    34   29   30 1
    35   29   31 1
    36   30   34 1
    37   31   32 2
    38   32   33 1
    39   33   34 2
    40   33   35 1
    41   35   36 1
    42   37   38 1
    43   38   39 1
    44   38   40 1
    45    1   41 1
    46    2   42 1
    47    3   43 1
    48    4   44 1
    49    5   45 1
    50   12   46 1
    51   12   47 1
    52   12   48 1
    53   16   49 1
    54   20   50 1
    55   21   51 1
    56   22   52 1
    57   26   53 1
    58   27   54 1
    59   31   55 1
    60   32   56 1
    61   34   57 1
    62   36   58 1
    63   36   59 1
    64   36   60 1
    65   37   61 1
    66   37   62 1
    67   38   63 1
    68   39   64 1
    69   39   65 1
    70   39   66 1
    71   40   67 1
    72   40   68 1
    73   40   69 1
@<TRIPOS>PROPERTY_DATA
  Total_Score	| 13.6645
  Crash		| -3.2272
  Polar		| 2.2538
  FragIndex	| 1
  FragRMSD	| 0.415

