@<TRIPOS>MOLECULE
BindingDB_50383201
 64 68 0 0 0
SMALL
NO_CHARGES


@<TRIPOS>ATOM
1    N        25.1647   -0.5123   12.0207  N     
2    N        25.4270   -1.7754   11.9394  N     
3    C        24.8550   -2.3813   12.9564  C     
4    C        24.2711   -1.4590   13.7490  C     
5    C        24.5142   -0.2729   13.1482  C     
6    C        23.6028   -1.7146   14.9271  C     
7    O        22.9428   -0.8210   15.4409  O     
8    N        23.5953   -2.9280   15.4837  N     
9    C        26.2825   -2.4117   11.0731  C     
10   C        25.9046   -2.6703    9.7401  C     
11   C        26.8031   -3.3112    8.8687  C     
12   C        28.0722   -3.6991    9.3260  C     
13   C        28.4487   -3.4550   10.6551  C     
14   C        27.5535   -2.8208   11.5341  C     
15   O        24.8501   -3.5960   13.1284  O     
16   C        24.2375    1.0640   13.6747  C     
17   C        25.2815    0.3982   10.9347  C     
18   C        24.0118    0.4014   10.0375  C     
19   O        23.9231    1.6019    9.2653  O     
20   C        23.0039   -3.3751   16.6343  C     
21   C        22.7184   -4.7577   16.7125  C     
22   C        22.2139   -5.3246   17.8980  C     
23   C        22.0005   -4.5261   19.0340  C     
24   C        22.2336   -3.1343   18.9488  C     
25   C        22.7464   -2.5652   17.7666  C     
26   O        21.6192   -5.0780   20.2332  O     
27   N        24.1531   -5.4385   23.4542  N     
28   C        24.6254   -5.0068   22.2936  C     
29   C        23.8138   -4.8918   21.2110  C     
30   C        22.4922   -5.2168   21.2620  C     
31   C        21.9726   -5.7004   22.4915  C     
32   C        20.6266   -6.0992   22.6756  C     
33   C        20.1874   -6.6040   23.9196  C     
34   C        21.0729   -6.6960   25.0122  C     
35   C        22.4110   -6.2939   24.8493  C     
36   C        22.8545   -5.8020   23.6096  C     
37   O        20.6500   -7.2781   26.1765  O     
38   C        21.0093   -6.5610   27.3702  C     
39   F        22.0087   -6.6132   17.9542  F     
40   H        24.0539   -3.6195   14.9925  H     
41   H        24.9807   -2.3865    9.4062  H     
42   H        26.5269   -3.4949    7.9046  H     
43   H        28.7170   -4.1718    8.6948  H     
44   H        29.3666   -3.7402   10.9937  H     
45   H        27.8319   -2.6459   12.5033  H     
46   H        25.1412    1.6732   13.6151  H     
47   H        23.9388    1.0726   14.7198  H     
48   H        23.4457    1.5337   13.0854  H     
49   H        25.4652    1.4130   11.3002  H     
50   H        26.1434    0.1477   10.3074  H     
51   H        24.0518   -0.4461    9.3430  H     
52   H        23.1022    0.3134   10.6473  H     
53   H        23.0130    1.5843    8.8902  H     
54   H        22.9081   -5.3657   15.9134  H     
55   H        22.1018   -2.5391   19.7818  H     
56   H        22.9879   -1.5690   17.7645  H     
57   H        25.5850   -4.7613   22.2212  H     
58   H        24.2256   -4.5494   20.3800  H     
59   H        19.9541   -6.0481   21.9055  H     
60   H        19.2148   -6.9192   24.0231  H     
61   H        23.0687   -6.3802   25.6303  H     
62   H        22.0929   -6.5632   27.5250  H     
63   H        20.5443   -7.0684   28.2190  H     
64   H        20.6426   -5.5292   27.3422  H     
@<TRIPOS>BOND
     1    1    2 1
     2    1    5 1
     3    1   17 1
     4    2    3 1
     5    2    9 1
     6    3    4 1
     7    3   15 2
     8    4    5 2
     9    4    6 1
    10    5   16 1
    11    6    7 2
    12    6    8 am
    13    8   20 1
    14    9   10 1
    15    9   14 2
    16   10   11 2
    17   11   12 1
    18   12   13 2
    19   13   14 1
    20   17   18 1
    21   18   19 1
    22   20   21 1
    23   20   25 2
    24   21   22 2
    25   22   23 1
    26   22   39 1
    27   23   24 2
    28   23   26 1
    29   24   25 1
    30   26   30 1
    31   27   28 2
    32   27   36 1
    33   28   29 1
    34   29   30 2
    35   30   31 1
    36   31   32 2
    37   31   36 1
    38   32   33 1
    39   33   34 2
    40   34   35 1
    41   34   37 1
    42   35   36 2
    43   37   38 1
    44    8   40 1
    45   10   41 1
    46   11   42 1
    47   12   43 1
    48   13   44 1
    49   14   45 1
    50   16   46 1
    51   16   47 1
    52   16   48 1
    53   17   49 1
    54   17   50 1
    55   18   51 1
    56   18   52 1
    57   19   53 1
    58   21   54 1
    59   24   55 1
    60   25   56 1
    61   28   57 1
    62   29   58 1
    63   32   59 1
    64   33   60 1
    65   35   61 1
    66   38   62 1
    67   38   63 1
    68   38   64 1
@<TRIPOS>PROPERTY_DATA
  Total_Score	| 13.5316
  Crash		| -1.4121
  Polar		| 3.3492
  FragIndex	| 1
  FragRMSD	| 0.404

