@<TRIPOS>MOLECULE
BindingDB_50383195
 70 74 0 0 0
SMALL
NO_CHARGES


@<TRIPOS>ATOM
1    N        24.9364   -0.6333   11.8262  N     
2    N        25.3182   -1.8669   11.8281  N     
3    C        24.7967   -2.4745   12.8717  C     
4    C        24.1519   -1.5714   13.6264  C     
5    C        24.3196   -0.4022   12.9698  C     
6    C        23.5204   -1.8086   14.8260  C     
7    O        22.8656   -0.9151   15.3512  O     
8    N        23.5139   -3.0132   15.4031  N     
9    C        26.2372   -2.4612   10.9904  C     
10   C        25.9193   -2.8023    9.6538  C     
11   C        26.8688   -3.4269    8.8194  C     
12   C        28.1466   -3.7444    9.3190  C     
13   C        28.4646   -3.4546   10.6607  C     
14   C        27.5153   -2.8190   11.4861  C     
15   O        24.9336   -3.6713   13.1108  O     
16   C        24.0790    0.9477   13.5000  C     
17   C        22.9678   -3.4097   16.5997  C     
18   C        22.7563   -2.5496   17.7029  C     
19   C        22.2719   -3.0403   18.9312  C     
20   C        22.0044   -4.4195   19.0914  C     
21   C        22.1733   -5.2821   17.9900  C     
22   C        22.6548   -4.7818   16.7627  C     
23   O        21.6490   -4.9287   20.3242  O     
24   N        24.3163   -5.4007   23.4174  N     
25   C        24.7383   -4.9064   22.2632  C     
26   C        23.8798   -4.7561   21.2218  C     
27   C        22.5625   -5.0991   21.3178  C     
28   C        22.1010   -5.6443   22.5398  C     
29   C        20.7669   -6.0602   22.7676  C     
30   C        20.3834   -6.6171   24.0041  C     
31   C        21.3174   -6.7654   25.0486  C     
32   C        22.6461   -6.3467   24.8425  C     
33   C        23.0324   -5.7904   23.6070  C     
34   O        20.9220   -7.3866   26.2062  O     
35   C        21.1633   -6.6447   27.4148  C     
36   F        22.1467   -2.2093   19.9386  F     
37   C        24.7311    0.1227   10.6308  C     
38   C        25.6784    1.3401   10.4263  C     
39   C        25.5882    1.9539    8.9999  C     
40   O        25.3929    2.3841   11.3467  O     
41   N        24.2175    2.0122    8.4641  N     
42   H        23.9366   -3.7327   14.9155  H     
43   H        24.9902   -2.5937    9.2766  H     
44   H        26.6319   -3.6533    7.8487  H     
45   H        28.8397   -4.1913    8.7100  H     
46   H        29.3896   -3.7041   11.0309  H     
47   H        27.7637   -2.6242   12.4581  H     
48   H        25.0276    1.4850   13.5228  H     
49   H        23.6961    0.9754   14.5159  H     
50   H        23.3683    1.4874   12.8687  H     
51   H        23.0070   -1.5625   17.6382  H     
52   H        21.9869   -6.2803   18.0913  H     
53   H        22.8078   -5.4367   15.9841  H     
54   H        25.6940   -4.6605   22.1679  H     
55   H        24.2457   -4.3700   20.3804  H     
56   H        20.0590   -5.9710   22.0337  H     
57   H        19.4190   -6.9341   24.1395  H     
58   H        23.3379   -6.4605   25.5889  H     
59   H        22.2339   -6.5763   27.6202  H     
60   H        20.6958   -7.1786   28.2433  H     
61   H        20.7333   -5.6396   27.3664  H     
62   H        24.8424   -0.5183    9.7525  H     
63   H        23.6942    0.4717   10.5962  H     
64   H        26.7083    1.0187   10.5913  H     
65   H        25.9885    2.9720    9.0246  H     
66   H        26.2107    1.3797    8.2999  H     
67   H        24.4271    2.5617   11.2430  H     
68   H        23.9268    1.0827    8.1538  H     
69   H        24.1997    2.6488    7.6668  H     
70   H        23.5719    2.3390    9.1838  H     
@<TRIPOS>BOND
     1    1    2 1
     2    1    5 1
     3    1   37 1
     4    2    3 1
     5    2    9 1
     6    3    4 1
     7    3   15 2
     8    4    5 2
     9    4    6 1
    10    5   16 1
    11    6    7 2
    12    6    8 am
    13    8   17 1
    14    9   10 1
    15    9   14 2
    16   10   11 2
    17   11   12 1
    18   12   13 2
    19   13   14 1
    20   17   18 1
    21   17   22 2
    22   18   19 2
    23   19   20 1
    24   19   36 1
    25   20   21 2
    26   20   23 1
    27   21   22 1
    28   23   27 1
    29   24   25 2
    30   24   33 1
    31   25   26 1
    32   26   27 2
    33   27   28 1
    34   28   29 2
    35   28   33 1
    36   29   30 1
    37   30   31 2
    38   31   32 1
    39   31   34 1
    40   32   33 2
    41   34   35 1
    42   37   38 1
    43   38   39 1
    44   38   40 1
    45   39   41 1
    46    8   42 1
    47   10   43 1
    48   11   44 1
    49   12   45 1
    50   13   46 1
    51   14   47 1
    52   16   48 1
    53   16   49 1
    54   16   50 1
    55   18   51 1
    56   21   52 1
    57   22   53 1
    58   25   54 1
    59   26   55 1
    60   29   56 1
    61   30   57 1
    62   32   58 1
    63   35   59 1
    64   35   60 1
    65   35   61 1
    66   37   62 1
    67   37   63 1
    68   38   64 1
    69   39   65 1
    70   39   66 1
    71   40   67 1
    72   41   68 1
    73   41   69 1
    74   41   70 1
@<TRIPOS>PROPERTY_DATA
  Total_Score	| 15.5479
  Crash		| -1.8152
  Polar		| 4.3701
  FragIndex	| 1
  FragRMSD	| 0.192

