@<TRIPOS>MOLECULE
BindingDB_50383193
 66 70 0 0 0
SMALL
NO_CHARGES


@<TRIPOS>ATOM
1    N        25.1394   -0.5366   11.9121  N     
2    N        25.4188   -1.7914   11.8686  N     
3    C        24.8761   -2.3799   12.9098  C     
4    C        24.2920   -1.4513   13.6981  C     
5    C        24.5015   -0.2868   13.0401  C     
6    C        23.6279   -1.6980   14.8904  C     
7    O        22.9460   -0.8058   15.3795  O     
8    N        23.6539   -2.9116   15.4693  N     
9    C        26.3097   -2.4268   11.0368  C     
10   C        25.9921   -2.7142    9.6953  C     
11   C        26.9377   -3.3363    8.8523  C     
12   C        28.2010   -3.6952    9.3602  C     
13   C        28.5150   -3.4408   10.7085  C     
14   C        27.5731   -2.8203   11.5444  C     
15   O        24.9298   -3.5900   13.1103  O     
16   C        24.1788    1.0845   13.4823  C     
17   C        23.0942   -3.3509   16.6304  C     
18   C        22.8289   -4.7429   16.7017  C     
19   C        22.3437   -5.3286   17.8912  C     
20   C        22.1425   -4.5380   19.0404  C     
21   C        22.3709   -3.1486   18.9754  C     
22   C        22.8586   -2.5675   17.7895  C     
23   O        21.7581   -5.1310   20.2145  O     
24   N        24.0939   -5.4307   23.5825  N     
25   C        24.6314   -4.9710   22.4597  C     
26   C        23.8891   -4.8760   21.3198  C     
27   C        22.5753   -5.2369   21.2923  C     
28   C        21.9943   -5.7469   22.4767  C     
29   C        20.6604   -6.2103   22.5621  C     
30   C        20.1465   -6.7216   23.7720  C     
31   C        20.9512   -6.7681   24.9269  C     
32   C        22.2887   -6.3342   24.8605  C     
33   C        22.8021   -5.8280   23.6471  C     
34   O        20.4682   -7.3231   26.0793  O     
35   C        19.8095   -6.3789   26.9435  C     
36   F        22.1253   -6.6224   17.9372  F     
37   C        25.2362    0.3433   10.7962  C     
38   C        23.9649    0.3087    9.8999  C     
39   N        23.8167    1.4864    9.0339  N     
40   H        24.1110   -3.6080   14.9789  H     
41   H        25.0733   -2.4720    9.3197  H     
42   H        26.7023   -3.5282    7.8778  H     
43   H        28.8888   -4.1338    8.7454  H     
44   H        29.4357   -3.7035   11.0770  H     
45   H        27.8134   -2.6379   12.5229  H     
46   H        25.1030    1.6853   13.5274  H     
47   H        23.7058    1.1554   14.4626  H     
48   H        23.4986    1.5437   12.7480  H     
49   H        23.0029   -5.3355   15.8861  H     
50   H        22.2571   -2.5679   19.8133  H     
51   H        23.0722   -1.5696   17.8090  H     
52   H        25.5910   -4.7049   22.4471  H     
53   H        24.3494   -4.5423   20.5119  H     
54   H        20.0414   -6.1908   21.7436  H     
55   H        19.1808   -7.0702   23.8084  H     
56   H        22.8841   -6.3882   25.6904  H     
57   H        20.4870   -5.5715   27.2447  H     
58   H        19.4901   -6.9097   27.8436  H     
59   H        18.9235   -5.9552   26.4621  H     
60   H        25.4138    1.3658   11.1362  H     
61   H        26.1029    0.0959   10.1749  H     
62   H        23.9796   -0.5720    9.2588  H     
63   H        23.0665    0.2570   10.5190  H     
64   H        23.6967    2.3121    9.6253  H     
65   H        22.9631    1.3817    8.4774  H     
66   H        24.6290    1.6004    8.4251  H     
@<TRIPOS>BOND
     1    1    2 1
     2    1    5 1
     3    1   37 1
     4    2    3 1
     5    2    9 1
     6    3    4 1
     7    3   15 2
     8    4    5 2
     9    4    6 1
    10    5   16 1
    11    6    7 2
    12    6    8 am
    13    8   17 1
    14    9   10 1
    15    9   14 2
    16   10   11 2
    17   11   12 1
    18   12   13 2
    19   13   14 1
    20   17   18 1
    21   17   22 2
    22   18   19 2
    23   19   20 1
    24   19   36 1
    25   20   21 2
    26   20   23 1
    27   21   22 1
    28   23   27 1
    29   24   25 2
    30   24   33 1
    31   25   26 1
    32   26   27 2
    33   27   28 1
    34   28   29 2
    35   28   33 1
    36   29   30 1
    37   30   31 2
    38   31   32 1
    39   31   34 1
    40   32   33 2
    41   34   35 1
    42   37   38 1
    43   38   39 1
    44    8   40 1
    45   10   41 1
    46   11   42 1
    47   12   43 1
    48   13   44 1
    49   14   45 1
    50   16   46 1
    51   16   47 1
    52   16   48 1
    53   18   49 1
    54   21   50 1
    55   22   51 1
    56   25   52 1
    57   26   53 1
    58   29   54 1
    59   30   55 1
    60   32   56 1
    61   35   57 1
    62   35   58 1
    63   35   59 1
    64   37   60 1
    65   37   61 1
    66   38   62 1
    67   38   63 1
    68   39   64 1
    69   39   65 1
    70   39   66 1
@<TRIPOS>PROPERTY_DATA
  Total_Score	| 14.7540
  Crash		| -1.4183
  Polar		| 4.1277
  FragIndex	| 1
  FragRMSD	| 0.291

