@<TRIPOS>MOLECULE
BindingDB_50383192
 69 74 0 0 0
SMALL
NO_CHARGES


@<TRIPOS>ATOM
1    N        25.2805   -0.5504   12.0020  N     
2    N        25.4994   -1.8154   11.9148  N     
3    C        24.8869   -2.4104   12.9158  C     
4    C        24.3708   -1.4846   13.7387  C     
5    C        24.6575   -0.3065   13.1410  C     
6    C        23.7007   -1.7304   14.9163  C     
7    O        22.9681   -0.8605   15.3798  O     
8    N        23.7598   -2.9251   15.5105  N     
9    C        26.3251   -2.4734   11.0369  C     
10   C        25.9058   -2.7868    9.7264  C     
11   C        26.7880   -3.4181    8.8293  C     
12   C        28.0893   -3.7627    9.2408  C     
13   C        28.5020   -3.4823   10.5549  C     
14   C        27.6254   -2.8461   11.4495  C     
15   C        25.4099    0.3613   10.9172  C     
16   O        23.3929   -0.6154    9.8740  O     
17   C        23.0900   -0.6920    8.5654  C     
18   N        23.5170    0.4001    7.9241  N     
19   C        24.1815    1.2997    8.7883  C     
20   C        24.0666    0.6053   10.1771  C     
21   O        22.4371   -1.7220    7.9890  O     
22   O        24.8375   -3.6324   13.0697  O     
23   C        24.4642    1.0258   13.7108  C     
24   C        23.1291   -3.3984   16.6244  C     
25   C        22.8745   -4.7876   16.6621  C     
26   C        22.3485   -5.3994   17.8157  C     
27   C        22.0877   -4.6299   18.9632  C     
28   C        22.2878   -3.2331   18.9238  C     
29   C        22.8106   -2.6267   17.7661  C     
30   O        21.7039   -5.2601   20.1245  O     
31   N        24.0325   -5.3262   23.5108  N     
32   C        24.5938   -5.0583   22.3451  C     
33   C        23.8566   -5.0701   21.1927  C     
34   C        22.5205   -5.3184   21.2112  C     
35   C        21.9175   -5.6759   22.4407  C     
36   C        20.5643   -6.0698   22.5691  C     
37   C        20.0290   -6.4093   23.8247  C     
38   C        20.8220   -6.3493   24.9869  C     
39   C        22.1692   -5.9517   24.8777  C     
40   C        22.7186   -5.6458   23.6181  C     
41   O        20.2300   -6.5956   26.1981  O     
42   C        21.0258   -7.3323   27.1430  C     
43   F        22.1578   -6.6972   17.8272  F     
44   H        24.2979   -3.5836   15.0458  H     
45   H        24.9594   -2.5481    9.4183  H     
46   H        26.4835   -3.6325    7.8757  H     
47   H        28.7289   -4.2153    8.5892  H     
48   H        29.4433   -3.7423   10.8614  H     
49   H        27.9382   -2.6458   12.4017  H     
50   H        25.8072    1.3143   11.2655  H     
51   H        26.1340   -0.0111   10.1924  H     
52   H        23.3866    0.5512    6.9742  H     
53   H        25.2125    1.4328    8.4532  H     
54   H        23.6704    2.2653    8.7782  H     
55   H        23.4060    1.1861   10.8208  H     
56   H        25.3567    1.6426   13.5561  H     
57   H        24.2856    1.0141   14.7848  H     
58   H        23.6089    1.5056   13.2243  H     
59   H        23.0919   -5.3786   15.8514  H     
60   H        22.0944   -2.6692   19.7531  H     
61   H        23.0091   -1.6256   17.7821  H     
62   H        25.5638   -4.8446   22.3132  H     
63   H        24.3262   -4.8700   20.3404  H     
64   H        19.9546   -6.1120   21.7504  H     
65   H        19.0479   -6.6898   23.8945  H     
66   H        22.7553   -5.8930   25.7164  H     
67   H        21.4135   -8.2587   26.7133  H     
68   H        20.3943   -7.5854   27.9932  H     
69   H        21.8568   -6.7260   27.5069  H     
@<TRIPOS>BOND
     1    1    2 1
     2    1    5 1
     3    1   15 1
     4    2    3 1
     5    2    9 1
     6    3    4 1
     7    3   22 2
     8    4    5 2
     9    4    6 1
    10    5   23 1
    11    6    7 2
    12    6    8 am
    13    8   24 1
    14    9   10 1
    15    9   14 2
    16   10   11 2
    17   11   12 1
    18   12   13 2
    19   13   14 1
    20   15   20 1
    21   16   17 1
    22   16   20 1
    23   17   18 1
    24   17   21 2
    25   18   19 1
    26   19   20 1
    27   24   25 1
    28   24   29 2
    29   25   26 2
    30   26   27 1
    31   26   43 1
    32   27   28 2
    33   27   30 1
    34   28   29 1
    35   30   34 1
    36   31   32 2
    37   31   40 1
    38   32   33 1
    39   33   34 2
    40   34   35 1
    41   35   36 2
    42   35   40 1
    43   36   37 1
    44   37   38 2
    45   38   39 1
    46   38   41 1
    47   39   40 2
    48   41   42 1
    49    8   44 1
    50   10   45 1
    51   11   46 1
    52   12   47 1
    53   13   48 1
    54   14   49 1
    55   15   50 1
    56   15   51 1
    57   18   52 1
    58   19   53 1
    59   19   54 1
    60   20   55 1
    61   23   56 1
    62   23   57 1
    63   23   58 1
    64   25   59 1
    65   28   60 1
    66   29   61 1
    67   32   62 1
    68   33   63 1
    69   36   64 1
    70   37   65 1
    71   39   66 1
    72   42   67 1
    73   42   68 1
    74   42   69 1
@<TRIPOS>PROPERTY_DATA
  Total_Score	| 13.7550
  Crash		| -1.7847
  Polar		| 2.3059
  FragIndex	| 1
  FragRMSD	| 0.300

