@<TRIPOS>MOLECULE
BindingDB_24462
 67 71 0 0 0
SMALL
NO_CHARGES


@<TRIPOS>ATOM
1    C        26.6656   -3.3956    8.8906  C     
2    C        25.8267   -2.7155    9.7855  C     
3    C        27.5939   -2.7428   11.4605  C     
4    C        28.4320   -3.4356   10.5703  C     
5    C        27.9670   -3.7571    9.2788  C     
6    C        26.2914   -2.3661   11.0689  C     
7    C        24.8714   -2.3303   12.9478  C     
8    C        24.6365   -0.2147   13.2086  C     
9    N        25.4740   -1.7230   11.9483  N     
10   N        25.2577   -0.4542   12.0591  N     
11   O        24.7961   -3.5451   13.0810  O     
12   C        24.3858    1.1196   13.7611  C     
13   C        24.3609   -1.3994   13.7945  C     
14   C        23.7067   -1.6618   14.9827  C     
15   O        22.9612   -0.7967   15.4480  O     
16   N        23.7706   -2.8669   15.5541  N     
17   C        23.0718   -3.3673   16.6093  C     
18   C        22.2017   -5.3554   17.7613  C     
19   C        21.9728   -4.5964   18.9260  C     
20   C        22.1810   -3.2021   18.8875  C     
21   C        22.7530   -2.5929   17.7523  C     
22   C        22.7778   -4.7447   16.6230  C     
23   F        21.9175   -6.6315   17.7359  F     
24   O        21.5731   -5.2344   20.0854  O     
25   C        22.4220   -5.2535   21.1664  C     
26   C        23.8261   -5.0343   21.0845  C     
27   C        24.6188   -5.0226   22.2363  C     
28   N        24.0685   -5.2713   23.4490  N     
29   C        21.9025   -5.5707   22.4518  C     
30   C        22.7498   -5.5541   23.6012  C     
31   C        20.5550   -5.9413   22.6468  C     
32   C        20.1217   -6.3001   23.8773  C     
33   C        20.9388   -6.2628   24.9783  C     
34   C        22.2297   -5.8622   24.8490  C     
35   O        20.3746   -6.5077   26.1701  O     
36   C        21.1120   -7.3995   27.0402  C     
37   C        25.4536    0.4837   11.0008  C     
38   C        24.4791    0.3484    9.7839  C     
39   C        23.0556   -0.1760   10.0942  C     
40   O        24.3242    1.6238    9.1432  O     
41   H        26.3275   -3.6361    7.9573  H     
42   H        24.8823   -2.4829    9.5000  H     
43   H        27.9417   -2.5176   12.3921  H     
44   H        29.3779   -3.7061   10.8547  H     
45   H        28.5813   -4.2512    8.6214  H     
46   H        25.3023    1.7091   13.7151  H     
47   H        24.0650    1.0936   14.8067  H     
48   H        23.6214    1.6274   13.1699  H     
49   H        24.3245   -3.5102   15.0721  H     
50   H        21.9881   -2.6320   19.7191  H     
51   H        22.9649   -1.5943   17.7749  H     
52   H        22.9749   -5.3093   15.7957  H     
53   H        24.2581   -4.8848   20.1720  H     
54   H        25.6323   -4.8450   22.1414  H     
55   H        19.9171   -5.9847   21.8830  H     
56   H        19.1724   -6.5958   23.9806  H     
57   H        22.8121   -5.8058   25.6609  H     
58   H        21.5386   -8.2540   26.5135  H     
59   H        20.4257   -7.7943   27.7860  H     
60   H        21.9090   -6.8459   27.5432  H     
61   H        25.3806    1.5124   11.3763  H     
62   H        26.4852    0.4119   10.6276  H     
63   H        24.9367   -0.3160    9.0338  H     
64   H        23.1021   -1.1965   10.4724  H     
65   H        22.4632   -0.1671    9.1824  H     
66   H        22.5693    0.4603   10.8345  H     
67   H        23.8271    2.1698    9.8068  H     
@<TRIPOS>BOND
     1    1    2 2
     2    1    5 1
     3    2    6 1
     4    3    4 1
     5    3    6 2
     6    4    5 2
     7    6    9 1
     8    7    9 1
     9    7   11 2
    10    7   13 1
    11    8   10 1
    12    8   12 1
    13    8   13 2
    14    9   10 1
    15   10   37 1
    16   13   14 1
    17   14   15 2
    18   14   16 am
    19   16   17 1
    20   17   21 2
    21   17   22 1
    22   18   19 1
    23   18   22 2
    24   18   23 1
    25   19   20 2
    26   19   24 1
    27   20   21 1
    28   24   25 1
    29   25   26 1
    30   25   29 2
    31   26   27 2
    32   27   28 1
    33   28   30 2
    34   29   30 1
    35   29   31 1
    36   30   34 1
    37   31   32 2
    38   32   33 1
    39   33   34 2
    40   33   35 1
    41   35   36 1
    42   37   38 1
    43   38   39 1
    44   38   40 1
    45    1   41 1
    46    2   42 1
    47    3   43 1
    48    4   44 1
    49    5   45 1
    50   12   46 1
    51   12   47 1
    52   12   48 1
    53   16   49 1
    54   20   50 1
    55   21   51 1
    56   22   52 1
    57   26   53 1
    58   27   54 1
    59   31   55 1
    60   32   56 1
    61   34   57 1
    62   36   58 1
    63   36   59 1
    64   36   60 1
    65   37   61 1
    66   37   62 1
    67   38   63 1
    68   39   64 1
    69   39   65 1
    70   39   66 1
    71   40   67 1
@<TRIPOS>PROPERTY_DATA
  Total_Score	| 13.7481
  Crash		| -1.4657
  Polar		| 3.3249
  FragIndex	| 1
  FragRMSD	| 0.630

