@<TRIPOS>MOLECULE
BindingDB_50329766
 44 46 0 0 0
SMALL
NO_CHARGES


@<TRIPOS>ATOM
1    C        -6.2764   10.0636    9.5047  C     
2    C        -7.0531    8.9181    9.2186  C     
3    C        -8.1574    9.0030    8.3442  C     
4    C        -8.4810   10.2171    7.7045  C     
5    C        -7.6793   11.3496    7.9511  C     
6    C        -6.5851   11.2658    8.8285  C     
7    S        -9.9261   10.3414    6.7339  S     
8    O       -10.4004   11.8569    6.6350  O     
9    O        -9.7064    9.7486    5.2764  O     
10   N       -11.1684    9.4947    7.4838  N     
11   N        -5.1848   10.1287   10.3253  N     
12   N        -2.4265    8.0087   12.4426  N     
13   C        -2.2351    9.2577   11.9807  C     
14   N        -3.2461    9.8606   11.3265  N     
15   C        -4.4551    9.2839   11.1011  C     
16   C        -4.6985    7.9743   11.6255  C     
17   C        -3.6021    7.3397   12.2956  C     
18   N        -3.7023    6.1319   12.9130  N     
19   C        -3.1876    5.8077   14.2113  C     
20   C        -3.8658    4.6169   14.7841  C     
21   C        -5.2648    4.6216   14.9906  C     
22   C        -5.9183    3.4983   15.5309  C     
23   C        -5.1777    2.3631   15.9014  C     
24   C        -3.7846    2.3520   15.7234  C     
25   C        -3.1338    3.4673   15.1644  C     
26   N        -5.9412    7.4117   11.6427  N     
27   O        -6.1281    6.2221   11.6319  O     
28   O        -7.0020    8.1305   11.8877  O     
29   H        -6.9721    8.0819    9.7741  H     
30   H        -8.7554    8.1819    8.2164  H     
31   H        -7.8943   12.2496    7.5155  H     
32   H        -6.0303   12.1116    8.9954  H     
33   H       -12.0864    9.6216    7.1928  H     
34   H       -10.9544    8.7672    8.0895  H     
35   H        -4.7710   11.0058   10.2761  H     
36   H        -1.3429    9.7335   12.1137  H     
37   H        -4.2298    5.4462   12.4800  H     
38   H        -2.1087    5.6474   14.1333  H     
39   H        -3.3555    6.6516   14.8862  H     
40   H        -5.8207    5.4448   14.7407  H     
41   H        -6.9334    3.5107   15.6606  H     
42   H        -5.6517    1.5499   16.3003  H     
43   H        -3.2415    1.5317   16.0013  H     
44   H        -2.1186    3.4352   15.0438  H     
@<TRIPOS>BOND
     1    1    2 2
     2    1    6 1
     3    1   11 1
     4    2    3 1
     5    3    4 2
     6    4    5 1
     7    4    7 1
     8    5    6 2
     9    7    8 2
    10    7    9 2
    11    7   10 am
    12   11   15 1
    13   12   13 2
    14   12   17 1
    15   13   14 1
    16   14   15 2
    17   15   16 1
    18   16   17 2
    19   16   26 am
    20   17   18 1
    21   18   19 1
    22   19   20 1
    23   20   21 2
    24   20   25 1
    25   21   22 1
    26   22   23 2
    27   23   24 1
    28   24   25 2
    29   26   27 2
    30   26   28 1
    31    2   29 1
    32    3   30 1
    33    5   31 1
    34    6   32 1
    35   10   33 1
    36   10   34 1
    37   11   35 1
    38   13   36 1
    39   18   37 1
    40   19   38 1
    41   19   39 1
    42   21   40 1
    43   22   41 1
    44   23   42 1
    45   24   43 1
    46   25   44 1
@<TRIPOS>PROPERTY_DATA
  Total_Score	| 5.7420
  Crash		| -0.7201
  Polar		| 2.5559
  FragIndex	| 1
  FragRMSD	| 0.526

