@<TRIPOS>MOLECULE
BindingDB_50329772
 33 34 0 0 0
SMALL
NO_CHARGES


@<TRIPOS>ATOM
1    N        -3.6804    9.9316   11.2247  N     
2    C        -2.5558    9.4715   11.8307  C     
3    N        -2.5511    8.2109   12.3434  N     
4    C        -3.6476    7.4199   12.2475  C     
5    C        -4.7594    7.8699   11.5982  C     
6    C        -4.7563    9.1654   11.1075  C     
7    N        -3.6177    6.2377   12.8009  N     
8    C        -3.7987    4.7603   14.6606  C     
9    C        -3.0144    3.6225   14.9998  C     
10   C        -3.6047    2.4859   15.5630  C     
11   C        -4.9970    2.4301   15.7980  C     
12   C        -5.7846    3.5598   15.4686  C     
13   C        -5.1987    4.7028   14.9008  C     
14   S        -5.6936    1.0502   16.5901  S     
15   O        -5.5425   -0.1952   15.6158  O     
16   O        -4.8970    0.6237   17.9031  O     
17   N        -7.3471    1.0931   16.8777  N     
18   N        -5.8221    7.1247   11.4669  N     
19   O        -6.8303    7.3000   12.2241  O     
20   O        -5.8894    6.3267   10.6140  O     
21   O        -5.7503    9.6686   10.5882  O     
22   C        -3.1799    5.9880   14.1040  C     
23   H        -3.6927   10.8388   10.8691  H     
24   H        -1.7264   10.0538   11.9000  H     
25   H        -4.0859    5.5633   12.3772  H     
26   H        -2.0014    3.6383   14.8318  H     
27   H        -3.0060    1.6915   15.8153  H     
28   H        -6.7983    3.5513   15.6382  H     
29   H        -5.7961    5.5034   14.6835  H     
30   H        -7.9178    0.4441   16.4344  H     
31   H        -7.7324    1.8741   17.3003  H     
32   H        -2.0879    5.9053   14.0778  H     
33   H        -3.4338    6.8219   14.7730  H     
@<TRIPOS>BOND
     1    1    2 1
     2    1    6 1
     3    2    3 2
     4    3    4 1
     5    4    5 2
     6    4    7 1
     7    5    6 1
     8    5   18 am
     9    6   21 2
    10    7   22 1
    11    8    9 2
    12    8   13 1
    13    8   22 1
    14    9   10 1
    15   10   11 2
    16   11   12 1
    17   11   14 1
    18   12   13 2
    19   14   15 2
    20   14   16 2
    21   14   17 am
    22   18   19 1
    23   18   20 2
    24    1   23 1
    25    2   24 1
    26    7   25 1
    27    9   26 1
    28   10   27 1
    29   12   28 1
    30   13   29 1
    31   17   30 1
    32   17   31 1
    33   22   32 1
    34   22   33 1
@<TRIPOS>PROPERTY_DATA
  Total_Score	| 6.3669
  Crash		| -1.1199
  Polar		| 3.7245
  FragIndex	| 1
  FragRMSD	| 1.020

