@<TRIPOS>MOLECULE
BindingDB_50329771
 39 40 0 0 0
SMALL
NO_CHARGES


@<TRIPOS>ATOM
1    N        -3.4161   10.2501   11.0135  N     
2    C        -2.4562    9.6798   11.7642  C     
3    N        -2.5925    8.3823   12.1135  N     
4    C        -3.6517    7.6167   11.7405  C     
5    C        -4.7056    8.1978   10.9695  C     
6    C        -4.5268    9.5718   10.6287  C     
7    N        -3.6300    6.3042   12.1059  N     
8    C        -3.7180    4.6009   14.9325  C     
9    C        -5.1183    4.6135   15.1147  C     
10   C        -5.7850    3.4828   15.6349  C     
11   C        -5.0415    2.3320   15.9819  C     
12   C        -3.6518    2.3042   15.7810  C     
13   C        -2.9956    3.4266   15.2548  C     
14   S        -5.7891    0.9487   16.7196  S     
15   O        -5.5399   -0.2498   15.7152  O     
16   O        -5.0294    0.5233   18.0490  O     
17   N        -7.4493    1.0069   16.9230  N     
18   N        -5.8224    7.5151   10.5614  N     
19   O        -6.7739    8.0456    9.8401  O     
20   O        -6.0360    6.3663   10.8384  O     
21   O        -5.4127   10.2744    9.8544  O     
22   C        -6.1488   11.2724   10.5797  C     
23   C        -2.6295    5.6758   12.9183  C     
24   C        -2.9828    5.7926   14.4248  C     
25   H        -1.6277   10.2033   12.0430  H     
26   H        -4.3588    5.7422   11.8236  H     
27   H        -5.6690    5.4450   14.8772  H     
28   H        -6.7988    3.5154   15.7692  H     
29   H        -3.0970    1.4796   16.0326  H     
30   H        -1.9810    3.3915   15.1324  H     
31   H        -7.9961    0.3317   16.4894  H     
32   H        -7.8606    1.8443   17.1924  H     
33   H        -6.7060   10.8284   11.4130  H     
34   H        -6.8611   11.7356    9.8987  H     
35   H        -5.4894   12.0554   10.9647  H     
36   H        -2.5532    4.6273   12.6014  H     
37   H        -1.6447    6.1174   12.7371  H     
38   H        -3.5484    6.7095   14.6252  H     
39   H        -2.0524    5.8977   14.9942  H     
@<TRIPOS>BOND
     1    1    2 2
     2    1    6 1
     3    2    3 1
     4    3    4 2
     5    4    5 1
     6    4    7 1
     7    5    6 2
     8    5   18 am
     9    6   21 1
    10    7   23 1
    11    8    9 2
    12    8   13 1
    13    8   24 1
    14    9   10 1
    15   10   11 2
    16   11   12 1
    17   11   14 1
    18   12   13 2
    19   14   15 2
    20   14   16 2
    21   14   17 am
    22   18   19 1
    23   18   20 2
    24   21   22 1
    25   23   24 1
    26    2   25 1
    27    7   26 1
    28    9   27 1
    29   10   28 1
    30   12   29 1
    31   13   30 1
    32   17   31 1
    33   17   32 1
    34   22   33 1
    35   22   34 1
    36   22   35 1
    37   23   36 1
    38   23   37 1
    39   24   38 1
    40   24   39 1
@<TRIPOS>PROPERTY_DATA
  Total_Score	| 5.1871
  Crash		| -1.8739
  Polar		| 3.4390
  FragIndex	| 1
  FragRMSD	| 0.965

