@<TRIPOS>MOLECULE
BindingDB_50329767
 47 49 0 0 0
SMALL
NO_CHARGES


@<TRIPOS>ATOM
1    N        -3.2653    9.9131   11.0299  N     
2    C        -2.4198    9.4955   12.0001  C     
3    N        -2.6507    8.3045   12.5952  N     
4    C        -3.7245    7.5302   12.2884  C     
5    C        -4.6561    7.9711   11.2955  C     
6    C        -4.3378    9.1930   10.6229  C     
7    N        -3.9185    6.4011   13.0212  N     
8    C        -3.7815    4.7476   14.7431  C     
9    C        -5.1691    4.7095   15.0106  C     
10   C        -5.7715    3.5599   15.5497  C     
11   C        -4.9910    2.4284   15.8574  C     
12   C        -3.6040    2.4601   15.6110  C     
13   C        -3.0064    3.6056   15.0522  C     
14   S        -5.7025    1.0400   16.6238  S     
15   O        -5.5239   -0.1933   15.6406  O     
16   O        -4.9260    0.6570   17.9553  O     
17   N        -7.3568    1.1010   16.8855  N     
18   N        -5.8498    7.3359   11.0927  N     
19   O        -6.9101    7.9924   10.7087  O     
20   O        -6.0893    6.2077   11.4243  O     
21   N        -4.8985    9.7470    9.5111  N     
22   C        -5.4710    9.0930    8.3702  C     
23   C        -6.8873    9.4801    8.1201  C     
24   C        -7.9145    8.5056    8.0886  C     
25   C        -9.2578    8.8766    7.8613  C     
26   C        -9.5848   10.2240    7.6329  C     
27   C        -8.5727   11.1994    7.6322  C     
28   C        -7.2329   10.8295    7.8717  C     
29   C        -3.1634    5.9677   14.1542  C     
30   H        -1.6094   10.0557   12.2626  H     
31   H        -4.6809    5.8552   12.8019  H     
32   H        -5.7571    5.5216   14.8042  H     
33   H        -6.7789    3.5615   15.7258  H     
34   H        -3.0170    1.6520   15.8359  H     
35   H        -1.9964    3.6027   14.8813  H     
36   H        -7.9083    0.3524   16.6071  H     
37   H        -7.7790    1.9373   17.1328  H     
38   H        -4.6558   10.6762    9.3488  H     
39   H        -4.8907    9.4099    7.4972  H     
40   H        -5.3505    8.0093    8.4350  H     
41   H        -7.6999    7.5161    8.2541  H     
42   H        -9.9927    8.1642    7.8557  H     
43   H       -10.5573   10.4893    7.4697  H     
44   H        -8.8100   12.1792    7.4600  H     
45   H        -6.5132   11.5543    7.8613  H     
46   H        -2.1304    5.7801   13.8357  H     
47   H        -3.1501    6.7514   14.9152  H     
@<TRIPOS>BOND
     1    1    2 2
     2    1    6 1
     3    2    3 1
     4    3    4 2
     5    4    5 1
     6    4    7 1
     7    5    6 2
     8    5   18 am
     9    6   21 1
    10    7   29 1
    11    8    9 2
    12    8   13 1
    13    8   29 1
    14    9   10 1
    15   10   11 2
    16   11   12 1
    17   11   14 1
    18   12   13 2
    19   14   15 2
    20   14   16 2
    21   14   17 am
    22   18   19 1
    23   18   20 2
    24   21   22 1
    25   22   23 1
    26   23   24 2
    27   23   28 1
    28   24   25 1
    29   25   26 2
    30   26   27 1
    31   27   28 2
    32    2   30 1
    33    7   31 1
    34    9   32 1
    35   10   33 1
    36   12   34 1
    37   13   35 1
    38   17   36 1
    39   17   37 1
    40   21   38 1
    41   22   39 1
    42   22   40 1
    43   24   41 1
    44   25   42 1
    45   26   43 1
    46   27   44 1
    47   28   45 1
    48   29   46 1
    49   29   47 1
@<TRIPOS>PROPERTY_DATA
  Total_Score	| 7.1974
  Crash		| -1.1319
  Polar		| 3.5159
  FragIndex	| 1
  FragRMSD	| 0.842

