@<TRIPOS>MOLECULE
BindingDB_50329761
 35 36 0 0 0
SMALL
NO_CHARGES


@<TRIPOS>ATOM
1    C        -5.0028    2.3747   15.8791  C     
2    C        -3.6177    2.3781   15.6062  C     
3    C        -3.0050    3.5240   15.0665  C     
4    C        -3.7576    4.6906   14.7938  C     
5    C        -5.1498    4.6653   15.0415  C     
6    C        -5.7739    3.5197   15.5774  C     
7    S        -5.7050    0.9912   16.6749  S     
8    O        -5.5282   -0.2410   15.6931  O     
9    O        -4.9153    0.6496   18.0107  O     
10   N        -7.3684    1.0611   16.9089  N     
11   C        -3.1118    5.9180   14.2658  C     
12   N        -3.8001    6.3757   13.1040  N     
13   C        -2.2565    9.5094   12.1882  C     
14   N        -2.5204    8.3301   12.7996  N     
15   C        -3.5685    7.5386   12.4438  C     
16   C        -4.4219    7.9610   11.3940  C     
17   C        -4.1441    9.2078   10.7794  C     
18   N        -3.0746    9.9372   11.1960  N     
19   S        -0.8429   10.4092   12.6471  S     
20   C        -1.6702   11.8249   13.4096  C     
21   C        -5.4102    7.1994   10.9969  C     
22   N        -6.2526    6.4967   10.6589  N     
23   Cl       -5.0781    9.8763    9.5322  Cl    
24   H        -3.0467    1.5566   15.8280  H     
25   H        -1.9972    3.5017   14.8887  H     
26   H        -5.7171    5.4995   14.8648  H     
27   H        -6.7784    3.5413   15.7670  H     
28   H        -7.8941    0.2421   16.8478  H     
29   H        -7.8063    1.9217   17.0217  H     
30   H        -3.1569    6.6901   15.0426  H     
31   H        -2.0626    5.7442   14.0147  H     
32   H        -4.5429    5.8353   12.7929  H     
33   H        -2.2340   12.3786   12.6489  H     
34   H        -0.9177   12.4886   13.8399  H     
35   H        -2.3464   11.4895   14.1981  H     
@<TRIPOS>BOND
     1    1    2 1
     2    1    6 2
     3    1    7 1
     4    2    3 2
     5    3    4 1
     6    4    5 2
     7    4   11 1
     8    5    6 1
     9    7    8 2
    10    7    9 2
    11    7   10 am
    12   11   12 1
    13   12   15 1
    14   13   14 1
    15   13   18 2
    16   13   19 1
    17   14   15 2
    18   15   16 1
    19   16   17 2
    20   16   21 1
    21   17   18 1
    22   17   23 1
    23   19   20 1
    24   21   22 3
    25    2   24 1
    26    3   25 1
    27    5   26 1
    28    6   27 1
    29   10   28 1
    30   10   29 1
    31   11   30 1
    32   11   31 1
    33   12   32 1
    34   20   33 1
    35   20   34 1
    36   20   35 1
@<TRIPOS>PROPERTY_DATA
  Total_Score	| 5.9264
  Crash		| -1.0708
  Polar		| 3.1565
  FragIndex	| 1
  FragRMSD	| 0.888

