@<TRIPOS>MOLECULE
BindingDB_50329768
 50 52 0 0 0
SMALL
NO_CHARGES


@<TRIPOS>ATOM
1    C        -7.1371   12.7957    9.2106  C     
2    C        -6.7556   13.8501   10.0735  C     
3    C        -7.6762   14.8537   10.4486  C     
4    C        -8.9954   14.8310    9.9503  C     
5    C        -9.3907   13.7730    9.1081  C     
6    C        -8.4692   12.7778    8.7329  C     
7    S       -10.1387   16.0780   10.3701  S     
8    O        -9.3953   17.4829   10.4955  O     
9    O       -11.2844   16.2186    9.2739  O     
10   N       -10.8372   15.7519   11.8565  N     
11   C        -6.1231   11.8114    8.7192  C     
12   N        -5.3406   10.0379   10.3384  N     
13   N        -2.4597    8.1353   12.5643  N     
14   C        -2.2585    9.3582   12.0346  C     
15   N        -3.2518    9.9263   11.3222  N     
16   C        -4.4397    9.3148   11.0687  C     
17   C        -4.6577    7.9850   11.5626  C     
18   C        -3.6039    7.4315   12.3705  C     
19   N        -3.6911    6.2241   12.9984  N     
20   C        -3.1387    5.8713   14.2746  C     
21   C        -3.8170    4.6631   14.8228  C     
22   C        -5.2242    4.6655   15.0198  C     
23   C        -5.9008    3.5121   15.4588  C     
24   C        -5.1722    2.3519   15.7749  C     
25   C        -3.7736    2.3416   15.6395  C     
26   C        -3.1038    3.4887   15.1621  C     
27   N        -5.8117    7.2914   11.2928  N     
28   O        -5.9932    6.1428   11.6006  O     
29   O        -6.8128    7.7679   10.6042  O     
30   C        -5.0727   11.3270    9.7579  C     
31   H        -5.7976   13.9106   10.4318  H     
32   H        -7.3638   15.6130   11.0635  H     
33   H       -10.3437   13.7299    8.7437  H     
34   H        -8.7727   12.0482    8.0870  H     
35   H       -11.2723   16.4690   12.3444  H     
36   H       -11.0425   14.8305   12.0815  H     
37   H        -6.6053   10.9273    8.2871  H     
38   H        -5.5985   12.2993    7.8888  H     
39   H        -6.2056    9.6526   10.1595  H     
40   H        -1.3900    9.8736   12.1975  H     
41   H        -4.2206    5.5363   12.5667  H     
42   H        -2.0643    5.6981   14.1494  H     
43   H        -3.2848    6.6933   14.9871  H     
44   H        -5.7728    5.5016   14.8004  H     
45   H        -6.9190    3.5230   15.5487  H     
46   H        -5.6600    1.5167   16.1060  H     
47   H        -3.2404    1.5008   15.8793  H     
48   H        -2.0841    3.4568   15.0647  H     
49   H        -4.1097   11.2560    9.2401  H     
50   H        -4.9576   12.0617   10.5565  H     
@<TRIPOS>BOND
     1    1    2 2
     2    1    6 1
     3    1   11 1
     4    2    3 1
     5    3    4 2
     6    4    5 1
     7    4    7 1
     8    5    6 2
     9    7    8 2
    10    7    9 2
    11    7   10 am
    12   11   30 1
    13   12   16 1
    14   12   30 1
    15   13   14 2
    16   13   18 1
    17   14   15 1
    18   15   16 2
    19   16   17 1
    20   17   18 2
    21   17   27 am
    22   18   19 1
    23   19   20 1
    24   20   21 1
    25   21   22 2
    26   21   26 1
    27   22   23 1
    28   23   24 2
    29   24   25 1
    30   25   26 2
    31   27   28 2
    32   27   29 1
    33    2   31 1
    34    3   32 1
    35    5   33 1
    36    6   34 1
    37   10   35 1
    38   10   36 1
    39   11   37 1
    40   11   38 1
    41   12   39 1
    42   14   40 1
    43   19   41 1
    44   20   42 1
    45   20   43 1
    46   22   44 1
    47   23   45 1
    48   24   46 1
    49   25   47 1
    50   26   48 1
    51   30   49 1
    52   30   50 1
@<TRIPOS>PROPERTY_DATA
  Total_Score	| 4.8707
  Crash		| -0.8037
  Polar		| 1.4551
  FragIndex	| 1
  FragRMSD	| 0.247

