@<TRIPOS>MOLECULE
BindingDB_50329764
 36 37 0 0 0
SMALL
NO_CHARGES


@<TRIPOS>ATOM
1    N        -2.6415    9.9140   11.1908  N     
2    C        -1.7829    9.2546   11.9961  C     
3    N        -2.2201    8.1433   12.6441  N     
4    C        -3.4698    7.6385   12.4692  C     
5    C        -4.3815    8.3084   11.6151  C     
6    C        -3.9105    9.4929   10.9972  C     
7    N        -3.8548    6.5485   13.1744  N     
8    C        -3.7921    4.7761   14.8350  C     
9    C        -3.0555    3.5887   15.0636  C     
10   C        -3.6695    2.4447   15.6051  C     
11   C        -5.0445    2.4537   15.9094  C     
12   C        -5.7977    3.6224   15.6940  C     
13   C        -5.1773    4.7708   15.1742  C     
14   S        -5.7517    1.0295   16.6186  S     
15   O        -5.5816   -0.1548   15.5761  O     
16   O        -4.9588    0.6123   17.9305  O     
17   N        -7.4017    1.0894   16.9155  N     
18   C        -5.6962    7.9226   11.4666  C     
19   O        -6.0048    6.8970   10.8563  O     
20   Cl       -4.8306   10.4420    9.9363  Cl    
21   S        -0.1661    9.8719   12.1424  S     
22   C         0.2441    9.3523   13.8193  C     
23   C        -3.1330    5.9894   14.2817  C     
24   H        -4.7281    6.1624   12.9932  H     
25   H        -2.0587    3.5597   14.8589  H     
26   H        -3.0970    1.6113   15.7762  H     
27   H        -6.7933    3.6572   15.9286  H     
28   H        -5.7396    5.6200   15.0392  H     
29   H        -7.9283    0.2671   16.8439  H     
30   H        -7.8537    1.9466   16.9555  H     
31   H        -6.4138    8.3947   12.0028  H     
32   H        -0.4880    9.7450   14.5255  H     
33   H         1.2391    9.7516   14.0758  H     
34   H         0.2837    8.2676   13.8786  H     
35   H        -2.1136    5.7583   13.9676  H     
36   H        -3.0873    6.7318   15.0831  H     
@<TRIPOS>BOND
     1    1    2 2
     2    1    6 1
     3    2    3 1
     4    2   21 1
     5    3    4 2
     6    4    5 1
     7    4    7 1
     8    5    6 2
     9    5   18 1
    10    6   20 1
    11    7   23 1
    12    8    9 2
    13    8   13 1
    14    8   23 1
    15    9   10 1
    16   10   11 2
    17   11   12 1
    18   11   14 1
    19   12   13 2
    20   14   15 2
    21   14   16 2
    22   14   17 am
    23   18   19 2
    24   21   22 1
    25    7   24 1
    26    9   25 1
    27   10   26 1
    28   12   27 1
    29   13   28 1
    30   17   29 1
    31   17   30 1
    32   18   31 1
    33   22   32 1
    34   22   33 1
    35   22   34 1
    36   23   35 1
    37   23   36 1
@<TRIPOS>PROPERTY_DATA
  Total_Score	| 5.6475
  Crash		| -1.2373
  Polar		| 2.6628
  FragIndex	| 1
  FragRMSD	| 1.268

