@<TRIPOS>MOLECULE
BindingDB_50329770
 36 37 0 0 0
SMALL
NO_CHARGES


@<TRIPOS>ATOM
1    N        -3.1660    9.9641   11.1560  N     
2    C        -2.2919    9.4714   12.0575  C     
3    N        -2.5605    8.2928   12.6591  N     
4    C        -3.6725    7.5583   12.3800  C     
5    C        -4.6079    8.0344   11.4032  C     
6    C        -4.3062    9.3091   10.8335  C     
7    N        -3.8502    6.3975   13.0655  N     
8    C        -3.7323    4.7128   14.7806  C     
9    C        -2.9777    3.5485   15.0603  C     
10   C        -3.5890    2.4039   15.6101  C     
11   C        -4.9722    2.3910   15.8741  C     
12   C        -5.7393    3.5409   15.5846  C     
13   C        -5.1205    4.6907   15.0553  C     
14   S        -5.7030    1.0050   16.6364  S     
15   O        -5.5486   -0.2319   15.6531  O     
16   O        -4.9194    0.6318   17.9685  O     
17   N        -7.3606    1.0761   16.9101  N     
18   N        -5.7379    7.3458   11.0324  N     
19   O        -6.5674    7.7695   10.1189  O     
20   O        -6.0624    6.2870   11.4956  O     
21   O        -5.1045    9.9251    9.9056  O     
22   C        -5.9373   10.9547   10.4652  C     
23   C        -3.1097    5.9419   14.2095  C     
24   H        -1.4468    9.9921   12.2889  H     
25   H        -4.5990    5.8489   12.8146  H     
26   H        -1.9711    3.5335   14.8858  H     
27   H        -3.0163    1.5844   15.8147  H     
28   H        -6.7491    3.5521   15.7660  H     
29   H        -5.6933    5.5239   14.8824  H     
30   H        -7.8809    0.2469   16.8892  H     
31   H        -7.8109    1.9274   16.9753  H     
32   H        -6.6100   10.5556   11.2274  H     
33   H        -6.5471   11.3738    9.6627  H     
34   H        -5.3470   11.7676   10.9016  H     
35   H        -2.0727    5.7652   13.9196  H     
36   H        -3.1182    6.7116   14.9877  H     
@<TRIPOS>BOND
     1    1    2 2
     2    1    6 1
     3    2    3 1
     4    3    4 2
     5    4    5 1
     6    4    7 1
     7    5    6 2
     8    5   18 am
     9    6   21 1
    10    7   23 1
    11    8    9 2
    12    8   13 1
    13    8   23 1
    14    9   10 1
    15   10   11 2
    16   11   12 1
    17   11   14 1
    18   12   13 2
    19   14   15 2
    20   14   16 2
    21   14   17 am
    22   18   19 1
    23   18   20 2
    24   21   22 1
    25    2   24 1
    26    7   25 1
    27    9   26 1
    28   10   27 1
    29   12   28 1
    30   13   29 1
    31   17   30 1
    32   17   31 1
    33   22   32 1
    34   22   33 1
    35   22   34 1
    36   23   35 1
    37   23   36 1
@<TRIPOS>PROPERTY_DATA
  Total_Score	| 6.6708
  Crash		| -1.0302
  Polar		| 3.5547
  FragIndex	| 1
  FragRMSD	| 0.786

