@<TRIPOS>MOLECULE
BindingDB_24173
 46 48 0 0 0
SMALL
NO_CHARGES


@<TRIPOS>ATOM
1    C        27.9157   15.2893   13.0030  C     
2    C        28.9093   14.4299   12.4733  C     
3    S        28.5215   14.1227   10.8224  S     
4    O        26.9398   15.5161   14.9571  O     
5    N        30.0252   13.9129   13.0634  N     
6    O        29.1319   13.3301   15.0069  O     
7    C        30.1340   13.4734   14.3111  C     
8    C        31.3680   13.1594   14.8507  C     
9    C        31.6281   12.6658   16.1421  C     
10   C        32.9883   12.4692   16.4472  C     
11   C        33.8631   12.7879   15.4056  C     
12   S        32.9100   13.3521   14.0932  S     
13   C        27.9287   15.8037   14.2954  C     
14   N        28.9347   16.5182   14.8403  N     
15   C        29.8753   17.2653   14.0157  C     
16   C        29.3061   18.6340   13.5793  C     
17   C        29.0614   16.6506   16.2841  C     
18   C        28.7664   18.0821   16.7888  C     
19   C        26.8916   15.5762   12.0701  C     
20   C        27.0651   15.0268   10.8180  C     
21   C        26.0446   15.3904    9.8556  C     
22   C        25.0610   16.2514   10.7119  C     
23   C        25.6962   16.4133   12.1278  C     
24   C        24.7116   17.6127   10.0459  C     
25   H        30.8185   13.8498   12.5055  H     
26   H        30.8914   12.4709   16.8262  H     
27   H        33.3118   12.1247   17.3542  H     
28   H        34.8835   12.7174   15.4239  H     
29   H        30.8098   17.4598   14.5489  H     
30   H        30.1629   16.7014   13.1281  H     
31   H        28.4621   18.4984   12.9041  H     
32   H        30.0767   19.2073   13.0598  H     
33   H        28.9773   19.2129   14.4398  H     
34   H        28.3981   15.9692   16.8247  H     
35   H        30.0701   16.3675   16.5928  H     
36   H        29.5300   18.7815   16.4514  H     
37   H        28.7515   18.0956   17.8808  H     
38   H        27.7909   18.4167   16.4254  H     
39   H        26.5028   15.9565    9.0401  H     
40   H        25.5614   14.4951    9.4558  H     
41   H        24.1255   15.6905   10.8233  H     
42   H        25.0183   16.0525   12.9039  H     
43   H        25.9807   17.4461   12.3473  H     
44   H        25.6144   18.2173    9.9052  H     
45   H        24.0106   18.1730   10.6715  H     
46   H        24.2443   17.4443    9.0740  H     
@<TRIPOS>BOND
     1    1    2 2
     2    1   13 1
     3    1   19 1
     4    2    3 1
     5    2    5 1
     6    3   20 1
     7    4   13 2
     8    5    7 am
     9    6    7 2
    10    7    8 1
    11    8    9 2
    12    8   12 1
    13    9   10 1
    14   10   11 2
    15   11   12 1
    16   13   14 am
    17   14   15 1
    18   14   17 1
    19   15   16 1
    20   17   18 1
    21   19   20 2
    22   19   23 1
    23   20   21 1
    24   21   22 1
    25   22   23 1
    26   22   24 1
    27    5   25 1
    28    9   26 1
    29   10   27 1
    30   11   28 1
    31   15   29 1
    32   15   30 1
    33   16   31 1
    34   16   32 1
    35   16   33 1
    36   17   34 1
    37   17   35 1
    38   18   36 1
    39   18   37 1
    40   18   38 1
    41   21   39 1
    42   21   40 1
    43   22   41 1
    44   23   42 1
    45   23   43 1
    46   24   44 1
    47   24   45 1
    48   24   46 1
@<TRIPOS>PROPERTY_DATA
  Total_Score	| 5.2426
  Crash		| -1.1654
  Polar		| 0.0000
  FragIndex	| 1
  FragRMSD	| 1.066

