@<TRIPOS>MOLECULE
BindingDB_24163
 40 42 0 0 0
SMALL
NO_CHARGES


@<TRIPOS>ATOM
1    C        27.8136   15.3123   12.8543  C     
2    C        28.8502   14.4637   12.4046  C     
3    S        28.4903   14.0240   10.7838  S     
4    O        26.8726   15.5161   14.8265  O     
5    N        29.9838   14.0165   13.0173  N     
6    O        29.0957   13.3750   14.9424  O     
7    C        27.0007   14.8676   10.6738  C     
8    C        26.1191   14.9220    9.4907  C     
9    C        24.7455   15.5773    9.8043  C     
10   C        24.8911   16.8010   10.7457  C     
11   C        25.6055   16.4192   12.0746  C     
12   C        26.7955   15.5400   11.8892  C     
13   C        30.0932   13.5612   14.2580  C     
14   C        27.7966   15.8985   14.1163  C     
15   C        31.3270   13.2417   14.7957  C     
16   C        31.5783   12.5960   16.0189  C     
17   C        32.9355   12.4356   16.3464  C     
18   C        33.8173   12.9563   15.4005  C     
19   S        32.8710   13.6231   14.1309  S     
20   N        28.6771   16.8131   14.5720  N     
21   C        28.5930   17.2627   15.9482  C     
22   C        29.6623   17.4215   13.6991  C     
23   H        30.7804   13.9670   12.4646  H     
24   H        26.6314   15.4926    8.7138  H     
25   H        25.9535   13.9084    9.1189  H     
26   H        24.2664   15.8847    8.8709  H     
27   H        24.0953   14.8419   10.2861  H     
28   H        25.4699   17.5756   10.2338  H     
29   H        23.9022   17.2120   10.9680  H     
30   H        25.9077   17.3455   12.5706  H     
31   H        24.8985   15.9009   12.7274  H     
32   H        30.8347   12.2637   16.6377  H     
33   H        33.2508   11.9858   17.2086  H     
34   H        34.8356   12.9521   15.4541  H     
35   H        27.6238   17.7353   16.1262  H     
36   H        29.3627   17.9861   16.2233  H     
37   H        28.6985   16.4100   16.6230  H     
38   H        30.3590   16.6748   13.3190  H     
39   H        30.2624   18.1927   14.1864  H     
40   H        29.1569   17.8960   12.8556  H     
@<TRIPOS>BOND
     1    1    2 2
     2    1   12 1
     3    1   14 1
     4    2    3 1
     5    2    5 1
     6    3    7 1
     7    4   14 2
     8    5   13 am
     9    6   13 2
    10    7    8 1
    11    7   12 2
    12    8    9 1
    13    9   10 1
    14   10   11 1
    15   11   12 1
    16   13   15 1
    17   14   20 am
    18   15   16 2
    19   15   19 1
    20   16   17 1
    21   17   18 2
    22   18   19 1
    23   20   21 1
    24   20   22 1
    25    5   23 1
    26    8   24 1
    27    8   25 1
    28    9   26 1
    29    9   27 1
    30   10   28 1
    31   10   29 1
    32   11   30 1
    33   11   31 1
    34   16   32 1
    35   17   33 1
    36   18   34 1
    37   21   35 1
    38   21   36 1
    39   21   37 1
    40   22   38 1
    41   22   39 1
    42   22   40 1
@<TRIPOS>PROPERTY_DATA
  Total_Score	| 4.3266
  Crash		| -0.6080
  Polar		| 0.0000
  FragIndex	| 1
  FragRMSD	| 0.899

