@<TRIPOS>MOLECULE
BindingDB_24165
 47 50 0 0 0
SMALL
NO_CHARGES


@<TRIPOS>ATOM
1    C        27.8967   15.1409   12.9129  C     
2    C        28.9451   14.3324   12.4217  C     
3    S        28.6013   13.9790   10.7764  S     
4    O        26.9754   15.2713   14.8989  O     
5    N        30.0868   13.9050   13.0327  N     
6    O        29.1646   13.0650   14.8605  O     
7    C        27.1008   14.8091   10.7061  C     
8    C        26.2321   14.9318    9.5181  C     
9    C        24.8580   15.5769    9.8509  C     
10   C        24.9979   16.7441   10.8627  C     
11   C        25.6925   16.2829   12.1766  C     
12   C        26.8815   15.4114   11.9558  C     
13   C        30.1762   13.3722   14.2440  C     
14   C        27.8976   15.6724   14.1980  C     
15   C        31.4058   13.1049   14.8187  C     
16   C        31.6497   12.4117   16.0168  C     
17   C        33.0010   12.3194   16.3924  C     
18   C        33.8841   12.9408   15.5099  C     
19   S        32.9469   13.6135   14.2373  S     
20   C        29.7489   17.2748   13.8523  C     
21   C        28.8124   16.9527   16.0821  C     
22   C        28.4372   18.4513   16.2137  C     
23   C        29.3194   19.3483   15.3086  C     
24   C        29.4149   18.7896   13.8661  C     
25   N        28.7984   16.5512   14.6835  N     
26   H        30.9031   13.9503   12.5101  H     
27   H        26.7545   15.5419    8.7785  H     
28   H        26.0665   13.9410    9.0890  H     
29   H        24.3922   15.9400    8.9304  H     
30   H        24.1975   14.8191   10.2813  H     
31   H        25.5874   17.5434   10.4031  H     
32   H        24.0086   17.1480   11.0955  H     
33   H        25.9910   17.1778   12.7292  H     
34   H        24.9751   15.7308   12.7891  H     
35   H        30.9063   11.9955   16.5822  H     
36   H        33.3113   11.8399   17.2396  H     
37   H        34.8990   12.9944   15.6031  H     
38   H        29.7570   16.9575   12.8093  H     
39   H        30.7633   17.1182   14.2329  H     
40   H        29.8136   16.7919   16.4945  H     
41   H        28.1292   16.3751   16.7107  H     
42   H        27.3883   18.5763   15.9353  H     
43   H        28.5471   18.7660   17.2548  H     
44   H        28.9011   20.3577   15.2834  H     
45   H        30.3221   19.4168   15.7345  H     
46   H        30.1813   19.3403   13.3130  H     
47   H        28.4594   18.9458   13.3574  H     
@<TRIPOS>BOND
     1    1    2 2
     2    1   12 1
     3    1   14 1
     4    2    3 1
     5    2    5 1
     6    3    7 1
     7    4   14 2
     8    5   13 am
     9    6   13 2
    10    7    8 1
    11    7   12 2
    12    8    9 1
    13    9   10 1
    14   10   11 1
    15   11   12 1
    16   13   15 1
    17   14   25 am
    18   15   16 2
    19   15   19 1
    20   16   17 1
    21   17   18 2
    22   18   19 1
    23   20   24 1
    24   20   25 1
    25   21   22 1
    26   21   25 1
    27   22   23 1
    28   23   24 1
    29    5   26 1
    30    8   27 1
    31    8   28 1
    32    9   29 1
    33    9   30 1
    34   10   31 1
    35   10   32 1
    36   11   33 1
    37   11   34 1
    38   16   35 1
    39   17   36 1
    40   18   37 1
    41   20   38 1
    42   20   39 1
    43   21   40 1
    44   21   41 1
    45   22   42 1
    46   22   43 1
    47   23   44 1
    48   23   45 1
    49   24   46 1
    50   24   47 1
@<TRIPOS>PROPERTY_DATA
  Total_Score	| 6.4244
  Crash		| -0.9514
  Polar		| 0.0000
  FragIndex	| 1
  FragRMSD	| 1.028

