@<TRIPOS>MOLECULE
BindingDB_24152
 46 48 0 0 0
SMALL
NO_CHARGES


@<TRIPOS>ATOM
1    C        27.8253   15.3245   12.7674  C     
2    C        28.8533   14.4532   12.3408  C     
3    S        28.4943   13.9345   10.7451  S     
4    O        26.8304   15.7537   14.6801  O     
5    N        29.9765   14.0304   12.9832  N     
6    C        27.8433   15.9499   14.0202  C     
7    N        28.8609   16.6631   14.5599  N     
8    C        28.8141   17.0644   15.9672  C     
9    C        29.2583   15.9637   16.9533  C     
10   C        29.9740   17.1763   13.7645  C     
11   C        29.9658   18.7177   13.6208  C     
12   C        30.0390   13.5827   14.2279  C     
13   O        29.0078   13.3977   14.8620  O     
14   C        31.2535   13.2876   14.8201  C     
15   C        31.4682   12.6795   16.0704  C     
16   C        32.8146   12.5178   16.4368  C     
17   C        33.7252   12.9911   15.4920  C     
18   S        32.8175   13.6356   14.1806  S     
19   C        27.0088   14.7771   10.6067  C     
20   C        26.7768   15.4632   11.8116  C     
21   C        26.1314   14.7639    9.4202  C     
22   C        25.0751   15.8983    9.4639  C     
23   C        24.4648   16.0563   10.8792  C     
24   C        25.5557   16.3089   11.9608  C     
25   H        30.7946   14.0077   12.4633  H     
26   H        29.4633   17.9171   16.1725  H     
27   H        27.8016   17.3905   16.2231  H     
28   H        28.5908   15.1058   16.9095  H     
29   H        29.2417   16.3549   17.9743  H     
30   H        30.2746   15.6369   16.7244  H     
31   H        30.9137   16.8630   14.2239  H     
32   H        29.9906   16.7895   12.7465  H     
33   H        28.9981   19.0532   13.2477  H     
34   H        30.7390   19.0332   12.9160  H     
35   H        30.1666   19.2030   14.5729  H     
36   H        30.7052   12.3725   16.6805  H     
37   H        33.1031   12.0910   17.3194  H     
38   H        34.7413   12.9756   15.5707  H     
39   H        26.7395   14.8784    8.5217  H     
40   H        25.6328   13.7939    9.3707  H     
41   H        25.5444   16.8417    9.1730  H     
42   H        24.2810   15.6814    8.7445  H     
43   H        23.7483   16.8815   10.8819  H     
44   H        23.9185   15.1418   11.1271  H     
45   H        25.0911   16.1231   12.9310  H     
46   H        25.8628   17.3572   11.9286  H     
@<TRIPOS>BOND
     1    1    2 2
     2    1    6 1
     3    1   20 1
     4    2    3 1
     5    2    5 1
     6    3   19 1
     7    4    6 2
     8    5   12 am
     9    6    7 am
    10    7    8 1
    11    7   10 1
    12    8    9 1
    13   10   11 1
    14   12   13 2
    15   12   14 1
    16   14   15 2
    17   14   18 1
    18   15   16 1
    19   16   17 2
    20   17   18 1
    21   19   20 2
    22   19   21 1
    23   20   24 1
    24   21   22 1
    25   22   23 1
    26   23   24 1
    27    5   25 1
    28    8   26 1
    29    8   27 1
    30    9   28 1
    31    9   29 1
    32    9   30 1
    33   10   31 1
    34   10   32 1
    35   11   33 1
    36   11   34 1
    37   11   35 1
    38   15   36 1
    39   16   37 1
    40   17   38 1
    41   21   39 1
    42   21   40 1
    43   22   41 1
    44   22   42 1
    45   23   43 1
    46   23   44 1
    47   24   45 1
    48   24   46 1
@<TRIPOS>PROPERTY_DATA
  Total_Score	| 6.9839
  Crash		| -0.9441
  Polar		| 0.0000
  FragIndex	| 1
  FragRMSD	| 0.894

