@<TRIPOS>MOLECULE
BindingDB_24175
 52 54 0 0 0
SMALL
NO_CHARGES


@<TRIPOS>ATOM
1    C        27.7918   15.3171   12.9720  C     
2    C        28.7338   14.4119   12.4388  C     
3    S        28.4304   14.2850   10.7540  S     
4    O        26.9218   15.3823   14.9681  O     
5    N        29.8338   13.8481   13.0052  N     
6    O        28.9588   13.1951   14.9355  O     
7    C        29.9488   13.3746   14.2366  C     
8    C        31.1882   13.0419   14.7469  C     
9    C        32.4582   13.3063   14.2072  C     
10   C        33.5422   12.8728   14.9912  C     
11   C        33.1751   12.2485   16.1822  C     
12   S        31.4593   12.2512   16.2524  S     
13   C        27.8462   15.7925   14.2745  C     
14   N        28.7767   16.6375   14.7744  N     
15   C        29.8755   17.1830   13.9776  C     
16   C        29.7875   18.7118   13.7560  C     
17   C        28.7235   17.0170   16.1839  C     
18   C        27.5967   18.0282   16.5093  C     
19   C        27.0702   15.3316   10.7209  C     
20   C        26.8537   15.8014   12.0246  C     
21   C        26.4204   15.8327    9.4951  C     
22   C        25.7801   16.7932   12.2937  C     
23   C        25.4951   17.6895   11.0621  C     
24   C        25.2458   17.9082    8.5599  C     
25   C        25.2650   16.8786    9.7352  C     
26   C        23.8855   16.1439    9.7792  C     
27   H        30.6200   13.7877   12.4394  H     
28   H        32.5974   13.7905   13.3187  H     
29   H        34.5167   13.0106   14.7162  H     
30   H        33.8023   11.8715   16.8923  H     
31   H        30.8232   16.9508   14.4710  H     
32   H        29.9472   16.7433   12.9828  H     
33   H        28.8227   18.9729   13.3170  H     
34   H        30.5785   19.0368   13.0761  H     
35   H        29.9101   19.2494   14.6967  H     
36   H        28.5936   16.1242   16.8034  H     
37   H        29.6632   17.4677   16.5151  H     
38   H        27.7625   18.9640   15.9767  H     
39   H        27.5888   18.2382   17.5799  H     
40   H        26.6191   17.6383   16.2288  H     
41   H        27.2171   16.2988    8.9134  H     
42   H        26.0631   14.9787    8.9130  H     
43   H        24.8759   16.2549   12.5849  H     
44   H        26.0564   17.4456   13.1246  H     
45   H        24.6300   18.3242   11.2782  H     
46   H        26.3569   18.3536   10.9412  H     
47   H        26.1621   18.5032    8.5499  H     
48   H        24.4001   18.5936    8.6525  H     
49   H        25.1780   17.3949    7.6001  H     
50   H        23.6722   15.6644    8.8210  H     
51   H        23.0768   16.8473    9.9914  H     
52   H        23.8770   15.3697   10.5489  H     
@<TRIPOS>BOND
     1    1    2 2
     2    1   13 1
     3    1   20 1
     4    2    3 1
     5    2    5 1
     6    3   19 1
     7    4   13 2
     8    5    7 am
     9    6    7 2
    10    7    8 1
    11    8    9 2
    12    8   12 1
    13    9   10 1
    14   10   11 2
    15   11   12 1
    16   13   14 am
    17   14   15 1
    18   14   17 1
    19   15   16 1
    20   17   18 1
    21   19   20 2
    22   19   21 1
    23   20   22 1
    24   21   25 1
    25   22   23 1
    26   23   25 1
    27   24   25 1
    28   25   26 1
    29    5   27 1
    30    9   28 1
    31   10   29 1
    32   11   30 1
    33   15   31 1
    34   15   32 1
    35   16   33 1
    36   16   34 1
    37   16   35 1
    38   17   36 1
    39   17   37 1
    40   18   38 1
    41   18   39 1
    42   18   40 1
    43   21   41 1
    44   21   42 1
    45   22   43 1
    46   22   44 1
    47   23   45 1
    48   23   46 1
    49   24   47 1
    50   24   48 1
    51   24   49 1
    52   26   50 1
    53   26   51 1
    54   26   52 1
@<TRIPOS>PROPERTY_DATA
  Total_Score	| 6.0752
  Crash		| -2.9570
  Polar		| 0.0000
  FragIndex	| 1
  FragRMSD	| 0.723

