@<TRIPOS>MOLECULE
BindingDB_24168
 52 54 0 0 0
SMALL
NO_CHARGES


@<TRIPOS>ATOM
1    C        27.9370   15.8836   12.6586  C     
2    C        28.7681   14.7514   12.5346  C     
3    S        28.2437   13.8596   11.1577  S     
4    O        28.2714   17.9996   13.0055  O     
5    N        29.8667   14.4481   13.2761  N     
6    O        29.4732   12.2814   13.5368  O     
7    C        26.9459   14.8955   10.7308  C     
8    C        26.0438   14.7346    9.5687  C     
9    C        25.1253   15.9684    9.3499  C     
10   C        24.6291   16.5574   10.6955  C     
11   C        25.8222   16.9597   11.6095  C     
12   C        26.8987   15.9288   11.6815  C     
13   C        30.1910   13.2521   13.7446  C     
14   C        28.1455   16.9208   13.5734  C     
15   C        31.2521   13.1135   14.6194  C     
16   C        31.4728   12.0719   15.5361  C     
17   C        32.6446   12.1867   16.3047  C     
18   C        33.4057   13.3233   16.0251  C     
19   S        32.5848   14.1933   14.7925  S     
20   C        28.0305   15.6611   15.7188  C     
21   C        26.6336   14.9819   15.6034  C     
22   C        26.7109   14.1979   18.0014  C     
23   N        28.1959   16.8769   14.9255  N     
24   C        28.4266   18.0893   15.7020  C     
25   N        26.3211   13.8905   16.5926  N     
26   C        24.8872   13.4746   16.5100  C     
27   H        30.3455   15.1968   13.6575  H     
28   H        26.6425   14.5758    8.6686  H     
29   H        25.4274   13.8484    9.7271  H     
30   H        25.6798   16.7411    8.8095  H     
31   H        24.2671   15.6818    8.7346  H     
32   H        23.9984   17.4303   10.5086  H     
33   H        24.0184   15.8059   11.2054  H     
34   H        26.2571   17.8914   11.2399  H     
35   H        25.4302   17.1450   12.6128  H     
36   H        30.8266   11.2869   15.6511  H     
37   H        32.9204   11.4948   17.0041  H     
38   H        34.2895   13.5873   16.4641  H     
39   H        28.1781   15.8785   16.7806  H     
40   H        28.8201   14.9610   15.4750  H     
41   H        25.8719   15.7638   15.6680  H     
42   H        26.5633   14.5470   14.6080  H     
43   H        27.7963   14.2501   18.0918  H     
44   H        26.3835   13.4073   18.6811  H     
45   H        26.2797   15.1448   18.3355  H     
46   H        28.4990   19.0118   15.1231  H     
47   H        29.3609   17.9872   16.2548  H     
48   H        27.6121   18.2334   16.4148  H     
49   H        26.8514   13.0575   16.3298  H     
50   H        24.2186   14.3003   16.7638  H     
51   H        24.6848   12.6414   17.1859  H     
52   H        24.6478   13.1285   15.5021  H     
@<TRIPOS>BOND
     1    1    2 2
     2    1   12 1
     3    1   14 1
     4    2    3 1
     5    2    5 1
     6    3    7 1
     7    4   14 2
     8    5   13 am
     9    6   13 2
    10    7    8 1
    11    7   12 2
    12    8    9 1
    13    9   10 1
    14   10   11 1
    15   11   12 1
    16   13   15 1
    17   14   23 am
    18   15   16 2
    19   15   19 1
    20   16   17 1
    21   17   18 2
    22   18   19 1
    23   20   21 1
    24   20   23 1
    25   21   25 1
    26   22   25 1
    27   23   24 1
    28   25   26 1
    29    5   27 1
    30    8   28 1
    31    8   29 1
    32    9   30 1
    33    9   31 1
    34   10   32 1
    35   10   33 1
    36   11   34 1
    37   11   35 1
    38   16   36 1
    39   17   37 1
    40   18   38 1
    41   20   39 1
    42   20   40 1
    43   21   41 1
    44   21   42 1
    45   22   43 1
    46   22   44 1
    47   22   45 1
    48   24   46 1
    49   24   47 1
    50   24   48 1
    51   25   49 1
    52   26   50 1
    53   26   51 1
    54   26   52 1
@<TRIPOS>PROPERTY_DATA
  Total_Score	| 5.4520
  Crash		| -1.8309
  Polar		| 1.4120
  FragIndex	| 1
  FragRMSD	| 1.409

