@<TRIPOS>MOLECULE
BindingDB_24169
 49 51 0 0 0
SMALL
NO_CHARGES


@<TRIPOS>ATOM
1    C        27.7689   15.4958   12.8821  C     
2    C        28.7577   14.6445   12.3455  C     
3    S        28.2866   14.2317   10.7488  S     
4    O        27.4422   15.2976   15.0320  O     
5    N        29.9332   14.2253   12.8853  N     
6    O        29.0972   13.1646   14.6372  O     
7    C        26.8178   15.1204   10.7560  C     
8    C        25.8971   15.2297    9.6099  C     
9    C        24.6000   16.0005    9.9696  C     
10   C        24.8969   17.2123   10.8935  C     
11   C        25.5952   16.7798   12.2269  C     
12   C        26.7021   15.7917   11.9889  C     
13   C        30.0773   13.5844   14.0357  C     
14   C        31.3302   13.3188   14.5557  C     
15   C        32.5828   13.7387   14.0800  C     
16   C        33.6817   13.3258   14.8538  C     
17   C        33.3479   12.5806   15.9826  C     
18   S        31.6399   12.4209   15.9937  S     
19   C        27.8936   16.0261   14.1568  C     
20   N        28.5508   17.1628   14.4711  N     
21   C        28.8550   17.4731   15.8636  C     
22   C        29.7392   16.3998   16.5432  C     
23   C        28.9178   18.1529   13.4709  C     
24   C        30.4324   18.4412   13.4244  C     
25   C        24.5582   16.2653   13.2634  C     
26   H        30.7320   14.3630   12.3518  H     
27   H        26.4177   15.7485    8.8040  H     
28   H        25.6364   14.2288    9.2594  H     
29   H        24.1147   16.3452    9.0537  H     
30   H        23.9076   15.3226   10.4761  H     
31   H        25.5522   17.9033   10.3552  H     
32   H        23.9675   17.7503   11.1001  H     
33   H        26.0401   17.6879   12.6451  H     
34   H        32.7017   14.2995   13.2329  H     
35   H        34.6493   13.5485   14.6081  H     
36   H        33.9929   12.1896   16.6697  H     
37   H        29.3832   18.4268   15.9597  H     
38   H        27.9294   17.5874   16.4297  H     
39   H        29.1903   15.4652   16.6749  H     
40   H        30.0600   16.7510   17.5264  H     
41   H        30.6281   16.2027   15.9426  H     
42   H        28.6075   17.8741   12.4616  H     
43   H        28.3998   19.0898   13.6849  H     
44   H        30.7965   18.7500   14.4010  H     
45   H        30.6268   19.2533   12.7224  H     
46   H        30.9783   17.5537   13.1038  H     
47   H        23.7561   16.9940   13.3957  H     
48   H        25.0180   16.1092   14.2376  H     
49   H        24.1203   15.3248   12.9326  H     
@<TRIPOS>BOND
     1    1    2 2
     2    1   12 1
     3    1   19 1
     4    2    3 1
     5    2    5 1
     6    3    7 1
     7    4   19 2
     8    5   13 am
     9    6   13 2
    10    7    8 1
    11    7   12 2
    12    8    9 1
    13    9   10 1
    14   10   11 1
    15   11   12 1
    16   11   25 1
    17   13   14 1
    18   14   15 2
    19   14   18 1
    20   15   16 1
    21   16   17 2
    22   17   18 1
    23   19   20 am
    24   20   21 1
    25   20   23 1
    26   21   22 1
    27   23   24 1
    28    5   26 1
    29    8   27 1
    30    8   28 1
    31    9   29 1
    32    9   30 1
    33   10   31 1
    34   10   32 1
    35   11   33 1
    36   15   34 1
    37   16   35 1
    38   17   36 1
    39   21   37 1
    40   21   38 1
    41   22   39 1
    42   22   40 1
    43   22   41 1
    44   23   42 1
    45   23   43 1
    46   24   44 1
    47   24   45 1
    48   24   46 1
    49   25   47 1
    50   25   48 1
    51   25   49 1
@<TRIPOS>PROPERTY_DATA
  Total_Score	| 5.8739
  Crash		| -1.5144
  Polar		| 0.0000
  FragIndex	| 1
  FragRMSD	| 1.231

