@<TRIPOS>MOLECULE
BindingDB_24167
 49 51 0 0 0
SMALL
NO_CHARGES


@<TRIPOS>ATOM
1    C        27.8012   15.3675   12.8493  C     
2    C        28.8384   14.5000   12.4417  C     
3    S        28.5265   14.0146   10.8257  S     
4    O        27.1219   15.3274   14.9914  O     
5    N        29.9779   14.1383   13.0891  N     
6    O        29.0420   12.8017   14.5806  O     
7    C        27.0574   14.8804   10.6498  C     
8    C        26.1996   14.8730    9.4479  C     
9    C        24.7812   15.4287    9.7411  C     
10   C        24.8438   16.6998   10.6240  C     
11   C        25.6000   16.4456   11.9612  C     
12   C        26.8261   15.6004   11.8354  C     
13   C        30.0493   13.3512   14.1526  C     
14   C        27.7488   15.9182   14.1236  C     
15   C        31.2575   13.1286   14.7906  C     
16   C        31.4708   12.4154   15.9817  C     
17   C        32.8054   12.3669   16.4231  C     
18   C        33.7071   13.0430   15.6029  C     
19   S        32.8059   13.7067   14.2999  S     
20   C        28.1031   17.8819   15.5624  C     
21   C        28.1907   19.4557   18.1560  C     
22   C        28.9965   17.5182   16.7754  C     
23   N        28.3083   17.0908   14.3868  N     
24   N        29.3603   18.6621   17.6737  N     
25   C        30.2117   18.1945   18.8050  C     
26   H        30.8144   14.4467   12.7058  H     
27   H        26.6826   15.4788    8.6797  H     
28   H        26.1092   13.8514    9.0728  H     
29   H        24.2756   15.6578    8.7991  H     
30   H        24.1933   14.6667   10.2586  H     
31   H        25.3548   17.4895   10.0650  H     
32   H        23.8292   17.0465   10.8388  H     
33   H        25.8595   17.4251   12.3639  H     
34   H        24.9254   15.9592   12.6695  H     
35   H        30.7167   11.9594   16.5004  H     
36   H        33.0926   11.8769   17.2723  H     
37   H        34.7146   13.1291   15.7471  H     
38   H        27.0533   17.8082   15.8588  H     
39   H        28.2776   18.9241   15.2996  H     
40   H        27.6657   19.9145   17.3180  H     
41   H        28.5184   20.2686   18.8057  H     
42   H        27.4883   18.8291   18.7098  H     
43   H        28.4864   16.7412   17.3536  H     
44   H        29.9076   17.0633   16.3753  H     
45   H        28.8309   17.4949   13.6771  H     
46   H        29.9387   19.3003   17.1226  H     
47   H        30.4999   19.0182   19.4569  H     
48   H        31.1329   17.7592   18.4105  H     
49   H        29.6940   17.4445   19.4099  H     
@<TRIPOS>BOND
     1    1    2 2
     2    1   12 1
     3    1   14 1
     4    2    3 1
     5    2    5 1
     6    3    7 1
     7    4   14 2
     8    5   13 am
     9    6   13 2
    10    7    8 1
    11    7   12 2
    12    8    9 1
    13    9   10 1
    14   10   11 1
    15   11   12 1
    16   13   15 1
    17   14   23 am
    18   15   16 2
    19   15   19 1
    20   16   17 1
    21   17   18 2
    22   18   19 1
    23   20   22 1
    24   20   23 1
    25   21   24 1
    26   22   24 1
    27   24   25 1
    28    5   26 1
    29    8   27 1
    30    8   28 1
    31    9   29 1
    32    9   30 1
    33   10   31 1
    34   10   32 1
    35   11   33 1
    36   11   34 1
    37   16   35 1
    38   17   36 1
    39   18   37 1
    40   20   38 1
    41   20   39 1
    42   21   40 1
    43   21   41 1
    44   21   42 1
    45   22   43 1
    46   22   44 1
    47   23   45 1
    48   24   46 1
    49   25   47 1
    50   25   48 1
    51   25   49 1
@<TRIPOS>PROPERTY_DATA
  Total_Score	| 4.6885
  Crash		| -0.8787
  Polar		| 0.0000
  FragIndex	| 1
  FragRMSD	| 0.970

