@<TRIPOS>MOLECULE
BindingDB_24170
 49 51 0 0 0
SMALL
NO_CHARGES


@<TRIPOS>ATOM
1    C        27.8301   15.2904   12.8232  C     
2    C        28.8391   14.3957   12.4019  C     
3    S        28.4476   13.8710   10.8151  S     
4    O        26.8451   15.7311   14.7279  O     
5    N        29.9719   13.9694   13.0278  N     
6    O        29.0445   13.3380   14.9386  O     
7    C        26.9738   14.7362   10.6824  C     
8    C        26.0855   14.7438    9.5039  C     
9    C        24.7640   15.5193    9.7613  C     
10   C        24.9640   16.7891   10.6431  C     
11   C        25.6345   16.3980   12.0013  C     
12   C        26.8017   15.4817   11.8596  C     
13   C        30.0571   13.5089   14.2677  C     
14   C        31.2803   13.1982   14.8311  C     
15   C        31.5118   12.5190   16.0378  C     
16   C        32.8654   12.3730   16.3919  C     
17   C        33.7598   12.9421   15.4887  C     
18   S        32.8338   13.6267   14.2146  S     
19   C        27.8500   15.9379   14.0584  C     
20   N        28.8522   16.7005   14.5547  N     
21   C        29.9698   17.1723   13.7468  C     
22   C        30.0628   18.7151   13.6542  C     
23   C        28.8168   17.1438   15.9451  C     
24   C        29.6188   16.2194   16.8884  C     
25   C        25.7533   17.9049    9.9031  C     
26   H        30.7790   13.9283   12.4864  H     
27   H        26.6255   15.2013    8.6748  H     
28   H        25.8480   13.7156    9.2260  H     
29   H        24.3074   15.7891    8.8051  H     
30   H        24.0636   14.8537   10.2740  H     
31   H        23.9720   17.1970   10.8652  H     
32   H        25.9394   17.3107   12.5219  H     
33   H        24.8958   15.8942   12.6312  H     
34   H        30.7601   12.1494   16.6241  H     
35   H        33.1679   11.9027   17.2475  H     
36   H        34.7779   12.9557   15.5682  H     
37   H        30.9024   16.7840   14.1637  H     
38   H        29.9273   16.8180   12.7177  H     
39   H        29.0770   19.1369   13.4571  H     
40   H        30.7306   18.9995   12.8432  H     
41   H        30.4580   19.1546   14.5730  H     
42   H        29.2412   18.1421   16.0756  H     
43   H        27.7831   17.2153   16.2964  H     
44   H        29.1846   15.2185   16.9162  H     
45   H        29.6014   16.6251   17.9009  H     
46   H        30.6580   16.1505   16.5593  H     
47   H        26.7782   17.5950    9.6963  H     
48   H        25.7856   18.8071   10.5159  H     
49   H        25.2655   18.1516    8.9574  H     
@<TRIPOS>BOND
     1    1    2 2
     2    1   12 1
     3    1   19 1
     4    2    3 1
     5    2    5 1
     6    3    7 1
     7    4   19 2
     8    5   13 am
     9    6   13 2
    10    7    8 1
    11    7   12 2
    12    8    9 1
    13    9   10 1
    14   10   11 1
    15   10   25 1
    16   11   12 1
    17   13   14 1
    18   14   15 2
    19   14   18 1
    20   15   16 1
    21   16   17 2
    22   17   18 1
    23   19   20 am
    24   20   21 1
    25   20   23 1
    26   21   22 1
    27   23   24 1
    28    5   26 1
    29    8   27 1
    30    8   28 1
    31    9   29 1
    32    9   30 1
    33   10   31 1
    34   11   32 1
    35   11   33 1
    36   15   34 1
    37   16   35 1
    38   17   36 1
    39   21   37 1
    40   21   38 1
    41   22   39 1
    42   22   40 1
    43   22   41 1
    44   23   42 1
    45   23   43 1
    46   24   44 1
    47   24   45 1
    48   24   46 1
    49   25   47 1
    50   25   48 1
    51   25   49 1
@<TRIPOS>PROPERTY_DATA
  Total_Score	| 7.4251
  Crash		| -1.1248
  Polar		| 0.0000
  FragIndex	| 1
  FragRMSD	| 0.858

