@<TRIPOS>MOLECULE
BindingDB_24176
 52 54 0 0 0
SMALL
NO_CHARGES


@<TRIPOS>ATOM
1    C        28.0278   15.2808   12.8677  C     
2    C        28.9679   14.3059   12.4634  C     
3    S        28.5968   13.8169   10.8578  S     
4    O        27.0235   15.6198   14.7849  O     
5    N        30.0296   13.7862   13.1373  N     
6    O        29.0234   13.3969   15.0858  O     
7    C        30.0592   13.4544   14.4215  C     
8    C        31.2678   13.0908   14.9990  C     
9    C        31.4699   12.6215   16.3077  C     
10   C        32.8086   12.3412   16.6389  C     
11   C        33.7267   12.5628   15.6091  C     
12   S        32.8363   13.1408   14.2629  S     
13   C        28.0227   15.8826   14.1324  C     
14   N        28.9717   16.6833   14.6659  N     
15   C        28.9211   17.0353   16.0813  C     
16   C        29.3236   15.8758   17.0217  C     
17   C        30.0150   17.3093   13.8638  C     
18   C        29.8084   18.8369   13.6653  C     
19   C        27.2044   14.8044   10.6791  C     
20   C        27.0656   15.5587   11.8567  C     
21   C        26.3137   14.8625    9.5019  C     
22   C        25.9707   16.5512   11.9865  C     
23   C        25.2877   16.9377   10.6353  C     
24   C        25.0080   15.6495    9.7954  C     
25   C        24.0259   17.8018   10.9234  C     
26   C        23.2799   18.3449    9.6885  C     
27   H        30.8361   13.6246   12.6198  H     
28   H        30.7090   12.5089   16.9853  H     
29   H        33.1013   12.0221   17.5606  H     
30   H        34.7394   12.4357   15.6511  H     
31   H        29.5927   17.8588   16.3280  H     
32   H        27.9153   17.3841   16.3368  H     
33   H        28.6880   15.0079   16.8517  H     
34   H        29.2325   16.1839   18.0658  H     
35   H        30.3615   15.5980   16.8392  H     
36   H        30.9733   17.1337   14.3532  H     
37   H        30.1075   16.8801   12.8629  H     
38   H        28.8736   19.0174   13.1351  H     
39   H        30.6308   19.2432   13.0727  H     
40   H        29.7801   19.3788   14.6116  H     
41   H        26.8574   15.3359    8.6848  H     
42   H        26.0477   13.8491    9.1931  H     
43   H        25.2276   16.1293   12.6665  H     
44   H        26.3757   17.4596   12.4420  H     
45   H        25.9942   17.5625   10.0772  H     
46   H        24.5386   15.9049    8.8445  H     
47   H        24.3154   15.0056   10.3421  H     
48   H        23.3169   17.2214   11.5231  H     
49   H        24.3371   18.6572   11.5274  H     
50   H        23.9779   18.7313    8.9373  H     
51   H        22.6003   19.1529    9.9813  H     
52   H        22.6865   17.5373    9.2562  H     
@<TRIPOS>BOND
     1    1    2 2
     2    1   13 1
     3    1   20 1
     4    2    3 1
     5    2    5 1
     6    3   19 1
     7    4   13 2
     8    5    7 am
     9    6    7 2
    10    7    8 1
    11    8    9 2
    12    8   12 1
    13    9   10 1
    14   10   11 2
    15   11   12 1
    16   13   14 am
    17   14   15 1
    18   14   17 1
    19   15   16 1
    20   17   18 1
    21   19   20 2
    22   19   21 1
    23   20   22 1
    24   21   24 1
    25   22   23 1
    26   23   24 1
    27   23   25 1
    28   25   26 1
    29    5   27 1
    30    9   28 1
    31   10   29 1
    32   11   30 1
    33   15   31 1
    34   15   32 1
    35   16   33 1
    36   16   34 1
    37   16   35 1
    38   17   36 1
    39   17   37 1
    40   18   38 1
    41   18   39 1
    42   18   40 1
    43   21   41 1
    44   21   42 1
    45   22   43 1
    46   22   44 1
    47   23   45 1
    48   24   46 1
    49   24   47 1
    50   25   48 1
    51   25   49 1
    52   26   50 1
    53   26   51 1
    54   26   52 1
@<TRIPOS>PROPERTY_DATA
  Total_Score	| 6.3095
  Crash		| -2.8343
  Polar		| 0.0000
  FragIndex	| 1
  FragRMSD	| 0.797

