@<TRIPOS>MOLECULE
BindingDB_24177
 52 54 0 0 0
SMALL
NO_CHARGES


@<TRIPOS>ATOM
1    C        27.9912   15.0630   13.2523  C     
2    C        28.9798   14.3090   12.5909  C     
3    S        28.5573   14.2390   10.9249  S     
4    O        27.3010   14.9895   15.3231  O     
5    N        30.1241   13.7809   13.1048  N     
6    O        29.2117   12.9538   14.9408  O     
7    C        30.2231   13.2468   14.3147  C     
8    C        31.4600   12.9991   14.8788  C     
9    C        31.7139   12.3851   16.1183  C     
10   C        33.0709   12.3024   16.4766  C     
11   C        33.9458   12.8641   15.5461  C     
12   S        32.9925   13.4733   14.2532  S     
13   C        28.1093   15.5026   14.5641  C     
14   N        28.9605   16.4538   14.9987  N     
15   C        29.8296   17.2132   14.1048  C     
16   C        29.2295   18.5894   13.7462  C     
17   C        28.9279   16.8894   16.3897  C     
18   C        29.1826   15.7068   17.3456  C     
19   C        27.0810   15.1042   11.0749  C     
20   C        26.9009   15.4298   12.4286  C     
21   C        26.1988   15.5504    9.9810  C     
22   C        25.7060   16.1923   12.8931  C     
23   C        24.6370   16.4280   11.7949  C     
24   C        25.3320   16.7672   10.4399  C     
25   C        24.3508   17.2198    9.3302  C     
26   C        23.2666   18.2247    9.8121  C     
27   H        30.9175   13.8178   12.5535  H     
28   H        30.9697   12.0327   16.7220  H     
29   H        33.3908   11.8837   17.3558  H     
30   H        34.9659   12.9071   15.6188  H     
31   H        30.8017   17.3912   14.5663  H     
32   H        30.0603   16.6683   13.1903  H     
33   H        28.3181   18.4637   13.1578  H     
34   H        29.9487   19.1740   13.1653  H     
35   H        28.9803   19.1482   14.6504  H     
36   H        29.6754   17.6718   16.5722  H     
37   H        27.9723   17.3426   16.6826  H     
38   H        28.6173   14.8180   17.0407  H     
39   H        28.8874   15.9897   18.3561  H     
40   H        30.2472   15.4618   17.3541  H     
41   H        26.8111   15.8490    9.1252  H     
42   H        25.5659   14.7114    9.6797  H     
43   H        25.2261   15.6447   13.7092  H     
44   H        26.0418   17.1641   13.2737  H     
45   H        24.0254   15.5275   11.6812  H     
46   H        23.9764   17.2352   12.1221  H     
47   H        26.0182   17.6089   10.6147  H     
48   H        24.9401   17.7096    8.5484  H     
49   H        23.8716   16.3406    8.8867  H     
50   H        22.4236   17.6807   10.2406  H     
51   H        22.9062   18.8242    8.9793  H     
52   H        23.6602   18.9018   10.5670  H     
@<TRIPOS>BOND
     1    1    2 2
     2    1   13 1
     3    1   20 1
     4    2    3 1
     5    2    5 1
     6    3   19 1
     7    4   13 2
     8    5    7 am
     9    6    7 2
    10    7    8 1
    11    8    9 2
    12    8   12 1
    13    9   10 1
    14   10   11 2
    15   11   12 1
    16   13   14 am
    17   14   15 1
    18   14   17 1
    19   15   16 1
    20   17   18 1
    21   19   20 2
    22   19   21 1
    23   20   22 1
    24   21   24 1
    25   22   23 1
    26   23   24 1
    27   24   25 1
    28   25   26 1
    29    5   27 1
    30    9   28 1
    31   10   29 1
    32   11   30 1
    33   15   31 1
    34   15   32 1
    35   16   33 1
    36   16   34 1
    37   16   35 1
    38   17   36 1
    39   17   37 1
    40   18   38 1
    41   18   39 1
    42   18   40 1
    43   21   41 1
    44   21   42 1
    45   22   43 1
    46   22   44 1
    47   23   45 1
    48   23   46 1
    49   24   47 1
    50   25   48 1
    51   25   49 1
    52   26   50 1
    53   26   51 1
    54   26   52 1
@<TRIPOS>PROPERTY_DATA
  Total_Score	| 6.0309
  Crash		| -2.4085
  Polar		| 0.0000
  FragIndex	| 1
  FragRMSD	| 1.084

