@<TRIPOS>MOLECULE
BindingDB_24153
 49 51 0 0 0
SMALL
NO_CHARGES


@<TRIPOS>ATOM
1    C        27.7505   15.7398   12.8363  C     
2    C        28.5967   14.6436   12.5974  C     
3    S        28.2893   14.0916   10.9968  S     
4    O        26.6356   16.3583   14.6016  O     
5    N        29.4953   14.1260   13.4843  N     
6    C        27.7377   16.3939   14.0651  C     
7    N        28.7817   17.0006   14.6714  N     
8    C        28.6773   17.4549   16.0569  C     
9    C        29.2506   16.4858   17.1306  C     
10   C        30.0155   17.3236   13.9633  C     
11   C        30.1702   18.8393   13.6834  C     
12   C        30.7635   13.8117   13.2360  C     
13   O        31.2494   13.9925   12.1281  O     
14   C        31.6113   13.4009   14.2535  C     
15   C        31.2746   12.9764   15.5562  C     
16   C        32.3636   12.6054   16.3639  C     
17   C        33.6146   12.7210   15.7463  C     
18   S        33.3336   13.2965   14.1498  S     
19   C        26.9329   16.0978   11.7248  C     
20   C        27.0902   15.2577   10.6054  C     
21   C        26.4113   15.3734    9.2936  C     
22   C        24.8582   15.3299    9.3890  C     
23   C        24.2091   16.6358    9.9183  C     
24   C        24.5540   16.9855   11.3925  C     
25   C        26.0558   17.3064   11.6503  C     
26   H        29.2233   14.1279   14.4144  H     
27   H        29.2108   18.3998   16.1969  H     
28   H        27.6243   17.6553   16.2850  H     
29   H        28.5100   15.7162   17.3892  H     
30   H        29.4933   17.0390   18.0322  H     
31   H        30.1650   15.9953   16.7645  H     
32   H        30.8737   16.9767   14.5435  H     
33   H        30.0973   16.8310   12.9926  H     
34   H        29.3045   19.2060   13.1286  H     
35   H        31.0646   19.0226   13.0856  H     
36   H        30.2583   19.4160   14.6116  H     
37   H        30.3073   12.9250   15.8977  H     
38   H        32.2517   12.2677   17.3245  H     
39   H        34.5234   12.5075   16.1604  H     
40   H        26.7158   16.3099    8.8223  H     
41   H        26.7464   14.5615    8.6449  H     
42   H        24.4547   15.1526    8.3863  H     
43   H        24.5396   14.4897   10.0169  H     
44   H        24.4891   17.4730    9.2697  H     
45   H        23.1210   16.5226    9.8471  H     
46   H        23.9668   17.8758   11.6567  H     
47   H        24.2266   16.1698   12.0481  H     
48   H        26.1192   17.8882   12.5727  H     
49   H        26.4247   17.9598   10.8549  H     
@<TRIPOS>BOND
     1    1    2 2
     2    1    6 1
     3    1   19 1
     4    2    3 1
     5    2    5 1
     6    3   20 1
     7    4    6 2
     8    5   12 am
     9    6    7 am
    10    7    8 1
    11    7   10 1
    12    8    9 1
    13   10   11 1
    14   12   13 2
    15   12   14 1
    16   14   15 2
    17   14   18 1
    18   15   16 1
    19   16   17 2
    20   17   18 1
    21   19   20 2
    22   19   25 1
    23   20   21 1
    24   21   22 1
    25   22   23 1
    26   23   24 1
    27   24   25 1
    28    5   26 1
    29    8   27 1
    30    8   28 1
    31    9   29 1
    32    9   30 1
    33    9   31 1
    34   10   32 1
    35   10   33 1
    36   11   34 1
    37   11   35 1
    38   11   36 1
    39   15   37 1
    40   16   38 1
    41   17   39 1
    42   21   40 1
    43   21   41 1
    44   22   42 1
    45   22   43 1
    46   23   44 1
    47   23   45 1
    48   24   46 1
    49   24   47 1
    50   25   48 1
    51   25   49 1
@<TRIPOS>PROPERTY_DATA
  Total_Score	| 7.1362
  Crash		| -1.4314
  Polar		| 0.0000
  FragIndex	| 1
  FragRMSD	| 0.516

