@<TRIPOS>MOLECULE
BindingDB_24164
 44 47 0 0 0
SMALL
NO_CHARGES


@<TRIPOS>ATOM
1    C        27.6007   14.9977   12.7722  C     
2    C        28.6918   14.2175   12.3304  C     
3    S        28.3989   13.8153   10.6881  S     
4    O        26.8336   15.0177   14.8414  O     
5    N        29.8442   13.8583   12.9651  N     
6    O        28.9612   13.1021   14.8474  O     
7    C        26.8781   14.6013   10.5594  C     
8    C        26.0377   14.6814    9.3516  C     
9    C        25.0519   15.8784    9.4187  C     
10   C        24.3608   15.9682   10.8036  C     
11   C        25.3808   16.0512   11.9749  C     
12   C        26.5894   15.1964   11.7981  C     
13   C        29.9603   13.3993   14.2052  C     
14   C        27.5590   15.5787   14.0300  C     
15   C        31.2038   13.1910   14.7763  C     
16   C        31.4853   12.5369   15.9890  C     
17   C        32.8449   12.4942   16.3442  C     
18   C        33.6936   13.1314   15.4454  C     
19   S        32.7217   13.7456   14.1674  S     
20   C        28.3046   17.1574   15.7286  C     
21   C        29.0333   17.4690   13.4736  C     
22   C        29.8618   18.4021   14.3710  C     
23   C        29.0316   18.5091   15.6590  C     
24   N        28.2745   16.6548   14.3841  N     
25   H        30.6588   13.8999   12.4385  H     
26   H        26.6767   14.7880    8.4736  H     
27   H        25.4803   13.7466    9.2582  H     
28   H        25.5963   16.8070    9.2312  H     
29   H        24.2947   15.7686    8.6405  H     
30   H        23.6983   16.8386   10.8285  H     
31   H        23.7423   15.0791   10.9398  H     
32   H        25.7145   17.0873   12.0836  H     
33   H        24.8632   15.7652   12.8958  H     
34   H        30.7627   12.1002   16.5674  H     
35   H        33.1810   12.0325   17.1911  H     
36   H        34.7084   13.2165   15.5194  H     
37   H        28.8521   16.4582   16.3675  H     
38   H        27.3005   17.3045   16.1321  H     
39   H        28.3565   18.0532   12.8374  H     
40   H        29.7076   16.8819   12.8400  H     
41   H        30.8248   17.9268   14.5865  H     
42   H        30.0294   19.3816   13.9074  H     
43   H        28.3058   19.3284   15.5607  H     
44   H        29.6514   18.6828   16.5472  H     
@<TRIPOS>BOND
     1    1    2 2
     2    1   12 1
     3    1   14 1
     4    2    3 1
     5    2    5 1
     6    3    7 1
     7    4   14 2
     8    5   13 am
     9    6   13 2
    10    7    8 1
    11    7   12 2
    12    8    9 1
    13    9   10 1
    14   10   11 1
    15   11   12 1
    16   13   15 1
    17   14   24 1
    18   15   16 2
    19   15   19 1
    20   16   17 1
    21   17   18 2
    22   18   19 1
    23   20   23 1
    24   20   24 1
    25   21   22 1
    26   21   24 1
    27   22   23 1
    28    5   25 1
    29    8   26 1
    30    8   27 1
    31    9   28 1
    32    9   29 1
    33   10   30 1
    34   10   31 1
    35   11   32 1
    36   11   33 1
    37   16   34 1
    38   17   35 1
    39   18   36 1
    40   20   37 1
    41   20   38 1
    42   21   39 1
    43   21   40 1
    44   22   41 1
    45   22   42 1
    46   23   43 1
    47   23   44 1
@<TRIPOS>PROPERTY_DATA
  Total_Score	| 6.4024
  Crash		| -0.9458
  Polar		| 0.0000
  FragIndex	| 1
  FragRMSD	| 1.155

