@<TRIPOS>MOLECULE
BindingDB_24171
 49 51 0 0 0
SMALL
NO_CHARGES


@<TRIPOS>ATOM
1    C        27.9934   15.4161   12.8016  C     
2    C        28.9244   14.4364   12.3871  C     
3    S        28.6008   14.0699   10.7426  S     
4    O        26.9305   15.8272   14.6719  O     
5    N        29.9917   13.8854   13.0324  N     
6    O        28.9961   13.3267   14.9236  O     
7    C        27.2581   15.1218   10.5668  C     
8    C        26.5323   15.3713    9.3064  C     
9    C        25.3786   16.4202    9.4328  C     
10   C        25.7043   17.5009   10.5126  C     
11   C        26.0601   16.8790   11.8902  C     
12   C        27.0782   15.7987   11.7831  C     
13   C        30.0321   13.4585   14.2862  C     
14   C        31.2342   13.1115   14.8778  C     
15   C        31.4230   12.5500   16.1536  C     
16   C        32.7621   12.3352   16.5244  C     
17   C        33.6957   12.7178   15.5575  C     
18   S        32.8147   13.3536   14.2269  S     
19   C        27.9954   15.9581   14.0873  C     
20   N        29.0451   16.5666   14.6844  N     
21   C        30.0687   17.2302   13.8782  C     
22   C        29.6469   18.6677   13.4941  C     
23   C        29.1859   16.7440   16.1323  C     
24   C        28.2323   16.0584   17.1440  C     
25   C        23.9988   15.7528    9.6699  C     
26   H        30.8022   13.7810   12.5093  H     
27   H        27.2675   15.7402    8.5911  H     
28   H        26.1541   14.4213    8.9200  H     
29   H        25.3027   16.9423    8.4745  H     
30   H        26.5613   18.0872   10.1688  H     
31   H        24.8666   18.1925   10.6280  H     
32   H        26.4294   17.6824   12.5311  H     
33   H        25.1644   16.4653   12.3562  H     
34   H        30.6480   12.3192   16.7819  H     
35   H        33.0336   11.9381   17.4269  H     
36   H        34.7114   12.6579   15.6346  H     
37   H        31.0140   17.3031   14.4237  H     
38   H        30.3119   16.6867   12.9624  H     
39   H        28.7418   18.6470   12.8846  H     
40   H        30.4438   19.1493   12.9224  H     
41   H        29.4544   19.2666   14.3881  H     
42   H        30.1844   16.3844   16.4054  H     
43   H        29.1582   17.8145   16.3534  H     
44   H        27.2340   16.4957   17.0909  H     
45   H        28.6068   16.2022   18.1609  H     
46   H        28.1709   14.9864   16.9527  H     
47   H        23.7384   15.1213    8.8180  H     
48   H        23.2255   16.5160    9.7737  H     
49   H        24.0075   15.1365   10.5695  H     
@<TRIPOS>BOND
     1    1    2 2
     2    1   12 1
     3    1   19 1
     4    2    3 1
     5    2    5 1
     6    3    7 1
     7    4   19 2
     8    5   13 am
     9    6   13 2
    10    7    8 1
    11    7   12 2
    12    8    9 1
    13    9   10 1
    14    9   25 1
    15   10   11 1
    16   11   12 1
    17   13   14 1
    18   14   15 2
    19   14   18 1
    20   15   16 1
    21   16   17 2
    22   17   18 1
    23   19   20 am
    24   20   21 1
    25   20   23 1
    26   21   22 1
    27   23   24 1
    28    5   26 1
    29    8   27 1
    30    8   28 1
    31    9   29 1
    32   10   30 1
    33   10   31 1
    34   11   32 1
    35   11   33 1
    36   15   34 1
    37   16   35 1
    38   17   36 1
    39   21   37 1
    40   21   38 1
    41   22   39 1
    42   22   40 1
    43   22   41 1
    44   23   42 1
    45   23   43 1
    46   24   44 1
    47   24   45 1
    48   24   46 1
    49   25   47 1
    50   25   48 1
    51   25   49 1
@<TRIPOS>PROPERTY_DATA
  Total_Score	| 6.8174
  Crash		| -1.5486
  Polar		| 0.0000
  FragIndex	| 1
  FragRMSD	| 0.971

