@<TRIPOS>MOLECULE
BindingDB_24174
 52 54 0 0 0
SMALL
NO_CHARGES


@<TRIPOS>ATOM
1    C        27.8075   15.2714   12.7722  C     
2    C        28.8181   14.3726   12.3610  C     
3    S        28.4367   13.8573   10.7688  S     
4    O        26.7550   15.5884   14.6432  O     
5    N        29.9801   13.9592   12.9361  N     
6    O        29.3082   13.5974   15.0175  O     
7    C        30.2182   13.6740   14.2057  C     
8    C        31.5015   13.3830   14.6282  C     
9    C        32.7139   13.5924   13.9493  C     
10   C        33.8689   13.2234   14.6621  C     
11   C        33.6206   12.7110   15.9349  C     
12   S        31.9176   12.7209   16.1641  S     
13   C        27.7711   15.8850   14.0221  C     
14   N        28.7287   16.6706   14.5704  N     
15   C        28.6233   17.1133   15.9643  C     
16   C        29.2596   16.1331   16.9829  C     
17   C        29.8820   17.1503   13.8014  C     
18   C        29.9772   18.6918   13.6561  C     
19   C        26.9837   14.7496   10.6110  C     
20   C        26.8202   15.5124   11.7772  C     
21   C        26.1199   14.7763    9.4176  C     
22   C        24.8527   15.6522    9.6282  C     
23   C        25.7212   16.5171   11.8673  C     
24   C        23.7743   17.7092   10.6984  C     
25   C        25.1177   16.9459   10.4769  C     
26   C        26.0890   17.9161    9.7245  C     
27   H        30.7220   13.8218   12.3219  H     
28   H        32.7672   14.0030   13.0150  H     
29   H        34.8126   13.3291   14.2852  H     
30   H        34.3179   12.4005   16.6116  H     
31   H        29.0799   18.0972   16.0895  H     
32   H        27.5873   17.2569   16.2872  H     
33   H        28.7208   15.1833   16.9868  H     
34   H        29.1987   16.5647   17.9843  H     
35   H        30.3068   15.9411   16.7511  H     
36   H        30.8026   16.7807   14.2566  H     
37   H        29.8908   16.7685   12.7786  H     
38   H        29.0031   19.1096   13.3845  H     
39   H        30.6963   18.9557   12.8764  H     
40   H        30.3182   19.1491   14.5861  H     
41   H        26.7046   15.1643    8.5818  H     
42   H        25.8164   13.7557    9.1742  H     
43   H        24.4372   15.9123    8.6511  H     
44   H        24.1060   15.0404   10.1436  H     
45   H        24.9426   16.0792   12.4972  H     
46   H        26.0941   17.4109   12.3749  H     
47   H        23.3365   18.0152    9.7457  H     
48   H        23.9250   18.6025   11.3094  H     
49   H        23.0537   17.0697   11.2094  H     
50   H        27.0724   17.4652    9.5808  H     
51   H        26.2302   18.8382   10.2928  H     
52   H        25.6915   18.1790    8.7418  H     
@<TRIPOS>BOND
     1    1    2 2
     2    1   13 1
     3    1   20 1
     4    2    3 1
     5    2    5 1
     6    3   19 1
     7    4   13 2
     8    5    7 am
     9    6    7 2
    10    7    8 1
    11    8    9 2
    12    8   12 1
    13    9   10 1
    14   10   11 2
    15   11   12 1
    16   13   14 am
    17   14   15 1
    18   14   17 1
    19   15   16 1
    20   17   18 1
    21   19   20 2
    22   19   21 1
    23   20   23 1
    24   21   22 1
    25   22   25 1
    26   23   25 1
    27   24   25 1
    28   25   26 1
    29    5   27 1
    30    9   28 1
    31   10   29 1
    32   11   30 1
    33   15   31 1
    34   15   32 1
    35   16   33 1
    36   16   34 1
    37   16   35 1
    38   17   36 1
    39   17   37 1
    40   18   38 1
    41   18   39 1
    42   18   40 1
    43   21   41 1
    44   21   42 1
    45   22   43 1
    46   22   44 1
    47   23   45 1
    48   23   46 1
    49   24   47 1
    50   24   48 1
    51   24   49 1
    52   26   50 1
    53   26   51 1
    54   26   52 1
@<TRIPOS>PROPERTY_DATA
  Total_Score	| 7.4360
  Crash		| -1.6558
  Polar		| 0.0000
  FragIndex	| 1
  FragRMSD	| 0.378

