@<TRIPOS>MOLECULE
BindingDB_30337
 61 65 0 0 0
SMALL
NO_CHARGES


@<TRIPOS>ATOM
1    C       -13.1934   56.4163   -2.5171  C     
2    C       -12.5825   55.1638   -2.4702  C     
3    N       -11.6764   55.0737   -3.4625  N     
4    C       -11.7150   56.2285   -4.1644  C     
5    C       -12.6506   57.0972   -3.6111  C     
6    C       -12.9728   58.3792   -4.0982  C     
7    O       -13.6930   59.2574   -3.3615  O     
8    O       -12.4691   58.8225   -5.2651  O     
9    C       -10.8023   53.9727   -3.7148  C     
10   C       -14.5200   55.8517   -0.5605  C     
11   C       -13.8947   54.5787   -0.4896  C     
12   C       -12.9342   54.2306   -1.4673  C     
13   C       -14.1772   56.7707   -1.5770  C     
14   C       -14.1764   53.6989    0.5913  C     
15   C       -14.8046   51.5460    1.5704  C     
16   C       -14.5800   52.0424    2.8703  C     
17   C       -14.1210   53.3607    3.0181  C     
18   C       -13.9317   54.1832    1.8961  C     
19   C       -14.6158   52.3576    0.4230  C     
20   C       -14.8615   51.7444   -0.9190  C     
21   O       -14.8420   51.1681    3.9020  O     
22   C       -15.4574   51.6738    5.1095  C     
23   C       -16.2481   50.5969    5.7591  C     
24   O       -17.0308   48.9789    7.0420  O     
25   N       -17.8169   49.0342    6.0118  N     
26   C       -17.4024   50.0188    5.2132  C     
27   C       -16.0588   49.9436    6.9829  C     
28   C       -15.0251   50.0675    8.0543  C     
29   Cl      -15.7982   49.9677    9.6518  Cl    
30   C       -14.1970   51.3692    8.0559  C     
31   C       -18.0521   50.3253    4.0074  C     
32   C       -19.0437   51.3347    3.9566  C     
33   C       -19.6390   51.6665    2.7203  C     
34   N       -19.2783   51.0018    1.5830  N     
35   C       -18.3776   49.9825    1.6136  C     
36   C       -17.7398   49.6176    2.8193  C     
37   Cl      -19.5298   52.2279    5.3225  Cl    
38   Cl      -16.5515   48.3965    2.7501  Cl    
39   O       -19.7881   51.3498    0.4314  O     
40   H       -11.1373   56.4355   -4.9828  H     
41   H       -10.1301   53.8381   -2.8610  H     
42   H       -10.1865   54.1365   -4.5974  H     
43   H       -11.3696   53.0607   -3.8540  H     
44   H       -15.2294   56.1135    0.1376  H     
45   H       -12.4702   53.3177   -1.4475  H     
46   H       -14.6445   57.6751   -1.6019  H     
47   H       -15.1053   50.5733    1.4546  H     
48   H       -13.9348   53.7538    3.9371  H     
49   H       -13.6001   55.1372    2.0620  H     
50   H       -15.2170   52.4851   -1.6352  H     
51   H       -15.6147   50.9518   -0.8774  H     
52   H       -13.9286   51.3136   -1.2853  H     
53   H       -14.6524   52.0108    5.7315  H     
54   H       -16.1515   52.5006    4.9092  H     
55   H       -14.3417   49.2064    7.9750  H     
56   H       -13.5630   51.4623    7.1876  H     
57   H       -13.5418   51.3922    8.9384  H     
58   H       -14.8561   52.2490    8.1094  H     
59   H       -20.3253   52.4341    2.6590  H     
60   H       -18.1248   49.5086    0.7396  H     
61   H       -19.6753   52.3243    0.3845  H     
@<TRIPOS>BOND
     1    1    2 2
     2    1    5 1
     3    1   13 1
     4    2    3 1
     5    2   12 1
     6    3    4 1
     7    3    9 1
     8    4    5 2
     9    5    6 1
    10    6    7 1
    11    6    8 2
    12   10   11 1
    13   10   13 2
    14   11   12 2
    15   11   14 1
    16   14   18 1
    17   14   19 2
    18   15   16 2
    19   15   19 1
    20   16   17 1
    21   16   21 1
    22   17   18 2
    23   19   20 1
    24   21   22 1
    25   22   23 1
    26   23   26 1
    27   23   27 2
    28   24   25 1
    29   24   27 1
    30   25   26 2
    31   26   31 1
    32   27   28 1
    33   28   29 1
    34   28   30 1
    35   31   32 1
    36   31   36 2
    37   32   33 2
    38   32   37 1
    39   33   34 1
    40   34   35 2
    41   34   39 1
    42   35   36 1
    43   36   38 1
    44    4   40 1
    45    9   41 1
    46    9   42 1
    47    9   43 1
    48   10   44 1
    49   12   45 1
    50   13   46 1
    51   15   47 1
    52   17   48 1
    53   18   49 1
    54   20   50 1
    55   20   51 1
    56   20   52 1
    57   22   53 1
    58   22   54 1
    59   28   55 1
    60   30   56 1
    61   30   57 1
    62   30   58 1
    63   33   59 1
    64   35   60 1
    65   39   61 1
@<TRIPOS>PROPERTY_DATA
  Total_Score	| 10.2243
  Crash		| -2.3574
  Polar		| 2.6273
  FragIndex	| 1
  FragRMSD	| 0.770

