@<TRIPOS>MOLECULE
BindingDB_30343
 60 64 0 0 0
SMALL
NO_CHARGES


@<TRIPOS>ATOM
1    C       -12.7482   56.5388   -3.0825  C     
2    C       -12.2101   55.2738   -2.8229  C     
3    N       -11.1834   55.0516   -3.6698  N     
4    C       -11.0531   56.1376   -4.4620  C     
5    C       -12.0092   57.0960   -4.1266  C     
6    C       -12.1562   58.3473   -4.7569  C     
7    O       -11.3158   58.7531   -5.7349  O     
8    O       -13.1931   59.1538   -4.4706  O     
9    C       -10.3591   53.8816   -3.7204  C     
10   C       -14.3467   56.2217   -1.2816  C     
11   C       -13.8007   54.9448   -0.9956  C     
12   C       -12.7348   54.4656   -1.7968  C     
13   C       -13.8305   57.0199   -2.3199  C     
14   C       -14.2534   54.2130    0.1420  C     
15   C       -15.2965   52.2997    1.2542  C     
16   C       -15.2062   52.9494    2.5060  C     
17   C       -14.6347   54.2284    2.5656  C     
18   C       -14.1610   54.8503    1.4050  C     
19   C       -14.8217   52.9069    0.0677  C     
20   C       -15.0035   52.1924   -1.2248  C     
21   O       -15.8171   52.4898    3.6435  O     
22   C       -15.0993   51.5983    4.5099  C     
23   C       -16.0402   51.1534    5.5729  C     
24   O       -16.9596   50.5080    7.4909  O     
25   N       -17.7688   50.1330    6.5379  N     
26   C       -17.2683   50.5244    5.3566  C     
27   C       -15.8855   51.1392    6.9606  C     
28   C       -14.7577   51.6145    7.7849  C     
29   Cl      -14.0137   50.2107    8.5400  Cl    
30   C       -15.2111   52.6163    8.8624  C     
31   C       -17.7584   50.1271    4.1314  C     
32   C       -18.5407   50.9020    3.3300  C     
33   C       -18.5807   50.6211    1.9812  C     
34   C       -17.8509   49.6075    1.4607  C     
35   C       -17.1442   48.7909    2.3013  C     
36   N       -17.1253   49.0556    3.6059  N     
37   Cl      -19.3650   52.2447    3.9002  Cl    
38   O       -16.5619   47.7919    1.9015  O     
39   H       -10.3581   56.2464   -5.2082  H     
40   H        -9.8148   53.7671   -2.7820  H     
41   H        -9.6319   53.9396   -4.5326  H     
42   H       -10.9749   52.9971   -3.8783  H     
43   H       -15.1214   56.5855   -0.7197  H     
44   H       -12.3134   53.5558   -1.6115  H     
45   H       -14.2383   57.9368   -2.4963  H     
46   H       -15.7597   51.3944    1.2071  H     
47   H       -14.5961   54.7204    3.4572  H     
48   H       -13.7656   55.7928    1.4848  H     
49   H       -15.5902   52.8102   -1.9105  H     
50   H       -15.5240   51.2353   -1.1101  H     
51   H       -14.0356   51.9777   -1.6785  H     
52   H       -14.7439   50.7121    3.9596  H     
53   H       -14.2390   52.1199    4.9321  H     
54   H       -14.0092   52.1035    7.1554  H     
55   H       -15.7152   53.4666    8.3967  H     
56   H       -14.3482   52.9937    9.4165  H     
57   H       -15.9003   52.1437    9.5687  H     
58   H       -19.1058   51.1959    1.3622  H     
59   H       -17.8337   49.4686    0.4744  H     
60   H       -16.5936   48.4886    4.1893  H     
@<TRIPOS>BOND
     1    1    2 2
     2    1    5 1
     3    1   13 1
     4    2    3 1
     5    2   12 1
     6    3    4 1
     7    3    9 1
     8    4    5 2
     9    5    6 1
    10    6    7 1
    11    6    8 2
    12   10   11 1
    13   10   13 2
    14   11   12 2
    15   11   14 1
    16   14   18 1
    17   14   19 2
    18   15   16 2
    19   15   19 1
    20   16   17 1
    21   16   21 1
    22   17   18 2
    23   19   20 1
    24   21   22 1
    25   22   23 1
    26   23   26 1
    27   23   27 2
    28   24   25 1
    29   24   27 1
    30   25   26 2
    31   26   31 1
    32   27   28 1
    33   28   29 1
    34   28   30 1
    35   31   32 2
    36   31   36 1
    37   32   33 1
    38   32   37 1
    39   33   34 2
    40   34   35 1
    41   35   36 1
    42   35   38 2
    43    4   39 1
    44    9   40 1
    45    9   41 1
    46    9   42 1
    47   10   43 1
    48   12   44 1
    49   13   45 1
    50   15   46 1
    51   17   47 1
    52   18   48 1
    53   20   49 1
    54   20   50 1
    55   20   51 1
    56   22   52 1
    57   22   53 1
    58   28   54 1
    59   30   55 1
    60   30   56 1
    61   30   57 1
    62   33   58 1
    63   34   59 1
    64   36   60 1
@<TRIPOS>PROPERTY_DATA
  Total_Score	| 9.0961
  Crash		| -1.6723
  Polar		| 2.3099
  FragIndex	| 1
  FragRMSD	| 1.338

