@<TRIPOS>MOLECULE
BindingDB_30338
 60 64 0 0 0
SMALL
NO_CHARGES


@<TRIPOS>ATOM
1    C       -12.7457   56.5577   -2.9652  C     
2    C       -12.2538   55.2743   -2.7008  C     
3    N       -11.2716   54.9978   -3.5888  N     
4    C       -11.1092   56.0724   -4.3860  C     
5    C       -12.0177   57.0697   -4.0400  C     
6    C       -12.1461   58.3055   -4.6948  C     
7    O       -13.1593   59.1511   -4.4149  O     
8    O       -11.3451   58.6282   -5.7318  O     
9    C       -10.5006   53.7946   -3.6714  C     
10   C       -14.3076   56.3409   -1.1178  C     
11   C       -13.8229   55.0362   -0.8331  C     
12   C       -12.7835   54.5060   -1.6396  C     
13   C       -13.7801   57.1021   -2.1820  C     
14   C       -14.3576   54.2858    0.2655  C     
15   C       -15.4404   52.3210    1.2656  C     
16   C       -15.4184   52.9184    2.5410  C     
17   C       -14.8969   54.2155    2.6723  C     
18   C       -14.3762   54.8885    1.5498  C     
19   C       -14.9075   52.9731    0.1230  C     
20   C       -14.9643   52.2597   -1.1820  C     
21   O       -15.9865   52.2866    3.6151  O     
22   C       -15.0629   51.5472    4.4395  C     
23   C       -15.8294   50.7217    5.4011  C     
24   O       -16.6294   49.6810    7.1861  O     
25   N       -17.3636   49.3049    6.1744  N     
26   C       -16.9158   49.9098    5.0637  C     
27   C       -15.6656   50.5369    6.7749  C     
28   C       -14.6800   51.1177    7.7151  C     
29   Cl      -14.0054   49.8358    8.7183  Cl    
30   C       -15.3387   52.1958    8.6023  C     
31   C       -17.4432   49.7054    3.7976  C     
32   C       -16.7965   48.7885    2.9960  C     
33   C       -17.1237   48.7002    1.6918  C     
34   N       -18.0816   49.4908    1.1930  N     
35   C       -18.7675   50.3418    1.9551  C     
36   C       -18.4554   50.4675    3.2956  C     
37   Cl      -19.2701   51.6034    4.2198  Cl    
38   O       -19.6371   51.0022    1.4032  O     
39   H       -10.4205   56.1451   -5.1380  H     
40   H        -9.8257   53.7414   -2.8187  H     
41   H        -9.9020   53.7659   -4.5829  H     
42   H       -11.1504   52.9186   -3.6701  H     
43   H       -15.0537   56.7593   -0.5557  H     
44   H       -12.4098   53.5708   -1.4565  H     
45   H       -14.1376   58.0389   -2.3659  H     
46   H       -15.8581   51.3896    1.1795  H     
47   H       -14.9063   54.6684    3.5898  H     
48   H       -14.0068   55.8325    1.6911  H     
49   H       -15.4165   52.9095   -1.9386  H     
50   H       -15.5567   51.3352   -1.1331  H     
51   H       -13.9453   52.0088   -1.4922  H     
52   H       -14.4423   50.8623    3.8486  H     
53   H       -14.4087   52.2520    4.9541  H     
54   H       -13.8453   51.5715    7.1786  H     
55   H       -15.7324   53.0055    7.9837  H     
56   H       -14.6069   52.6189    9.2925  H     
57   H       -16.1600   51.7667    9.1831  H     
58   H       -16.0913   48.1857    3.3553  H     
59   H       -16.6587   48.0599    1.0993  H     
60   H       -18.2813   49.4359    0.2448  H     
@<TRIPOS>BOND
     1    1    2 2
     2    1    5 1
     3    1   13 1
     4    2    3 1
     5    2   12 1
     6    3    4 1
     7    3    9 1
     8    4    5 2
     9    5    6 1
    10    6    7 1
    11    6    8 2
    12   10   11 1
    13   10   13 2
    14   11   12 2
    15   11   14 1
    16   14   18 1
    17   14   19 2
    18   15   16 2
    19   15   19 1
    20   16   17 1
    21   16   21 1
    22   17   18 2
    23   19   20 1
    24   21   22 1
    25   22   23 1
    26   23   26 1
    27   23   27 2
    28   24   25 1
    29   24   27 1
    30   25   26 2
    31   26   31 1
    32   27   28 1
    33   28   29 1
    34   28   30 1
    35   31   32 1
    36   31   36 2
    37   32   33 2
    38   33   34 1
    39   34   35 1
    40   35   36 1
    41   35   38 2
    42   36   37 1
    43    4   39 1
    44    9   40 1
    45    9   41 1
    46    9   42 1
    47   10   43 1
    48   12   44 1
    49   13   45 1
    50   15   46 1
    51   17   47 1
    52   18   48 1
    53   20   49 1
    54   20   50 1
    55   20   51 1
    56   22   52 1
    57   22   53 1
    58   28   54 1
    59   30   55 1
    60   30   56 1
    61   30   57 1
    62   32   58 1
    63   33   59 1
    64   34   60 1
@<TRIPOS>PROPERTY_DATA
  Total_Score	| 9.8452
  Crash		| -2.0579
  Polar		| 3.7199
  FragIndex	| 1
  FragRMSD	| 1.069

