@<TRIPOS>MOLECULE
BindingDB_30340
 63 67 0 0 0
SMALL
NO_CHARGES


@<TRIPOS>ATOM
1    C       -12.8074   56.3452   -3.0584  C     
2    C       -12.2287   55.0962   -2.8117  C     
3    N       -11.1882   54.9286   -3.6528  N     
4    C       -11.0641   56.0466   -4.3920  C     
5    C       -12.0515   56.9673   -4.0539  C     
6    C       -12.1935   58.2393   -4.6355  C     
7    O       -13.2137   59.0638   -4.3325  O     
8    O       -11.3279   58.6724   -5.5819  O     
9    C       -10.3279   53.7926   -3.7489  C     
10   C       -14.4506   55.9168   -1.3171  C     
11   C       -13.8008   54.7061   -0.9668  C     
12   C       -12.7289   54.2675   -1.7852  C     
13   C       -13.9436   56.7495   -2.3317  C     
14   C       -14.1662   53.9895    0.2182  C     
15   C       -14.6853   53.8496    2.6143  C     
16   C       -14.7748   52.4407    2.5528  C     
17   C       -14.5647   51.8221    1.3064  C     
18   C       -14.2673   52.5799    0.1601  C     
19   C       -14.3806   54.6407    1.4775  C     
20   C       -14.1982   56.1076    1.6657  C     
21   O       -15.0525   51.5876    3.6041  O     
22   C       -15.2365   52.0352    4.9629  C     
23   C       -15.8093   50.9444    5.7810  C     
24   O       -16.2718   49.4602    7.3650  O     
25   N       -17.2012   49.3492    6.4641  N     
26   C       -16.9835   50.2455    5.4897  C     
27   C       -15.3981   50.4403    7.0229  C     
28   C       -14.3208   50.9277    7.9082  C     
29   Cl      -13.5994   49.6058    8.8247  Cl    
30   C       -14.8478   51.9954    8.8915  C     
31   C       -17.8365   50.4708    4.4276  C     
32   C       -17.7986   49.6171    3.3377  C     
33   C       -18.3772   50.0008    2.1829  C     
34   N       -19.0000   51.2065    2.0807  N     
35   C       -19.1382   51.9885    3.1674  C     
36   C       -18.5540   51.6250    4.3607  C     
37   Cl      -18.7262   52.6380    5.6864  Cl    
38   O       -19.7499   53.0489    3.1021  O     
39   C       -19.4544   51.6055    0.7723  C     
40   Cl      -17.0092   48.1376    3.3605  Cl    
41   H       -10.3516   56.1981   -5.1055  H     
42   H        -9.7813   53.6710   -2.8184  H     
43   H        -9.5930   53.9031   -4.5486  H     
44   H       -10.9094   52.8901   -3.9444  H     
45   H       -15.2605   56.2338   -0.7734  H     
46   H       -12.2730   53.3734   -1.5952  H     
47   H       -14.3906   57.6505   -2.5108  H     
48   H       -14.8170   54.3188    3.5108  H     
49   H       -14.6195   50.8028    1.2246  H     
50   H       -14.1158   52.0817   -0.7236  H     
51   H       -13.1478   56.3668    1.4961  H     
52   H       -14.4690   56.4425    2.6722  H     
53   H       -14.8141   56.6879    0.9719  H     
54   H       -14.2768   52.3660    5.3588  H     
55   H       -15.9344   52.8738    5.0070  H     
56   H       -13.5161   51.3567    7.3029  H     
57   H       -15.1554   52.8933    8.3512  H     
58   H       -14.0711   52.2813    9.6044  H     
59   H       -15.7114   51.6228    9.4507  H     
60   H       -18.3295   49.3939    1.3936  H     
61   H       -18.6222   51.5505    0.0697  H     
62   H       -19.8359   52.6251    0.7310  H     
63   H       -20.2494   50.9395    0.4380  H     
@<TRIPOS>BOND
     1    1    2 2
     2    1    5 1
     3    1   13 1
     4    2    3 1
     5    2   12 1
     6    3    4 1
     7    3    9 1
     8    4    5 2
     9    5    6 1
    10    6    7 1
    11    6    8 2
    12   10   11 1
    13   10   13 2
    14   11   12 2
    15   11   14 1
    16   14   18 1
    17   14   19 2
    18   15   16 2
    19   15   19 1
    20   16   17 1
    21   16   21 1
    22   17   18 2
    23   19   20 1
    24   21   22 1
    25   22   23 1
    26   23   26 1
    27   23   27 2
    28   24   25 1
    29   24   27 1
    30   25   26 2
    31   26   31 1
    32   27   28 1
    33   28   29 1
    34   28   30 1
    35   31   32 1
    36   31   36 2
    37   32   33 2
    38   32   40 1
    39   33   34 1
    40   34   35 1
    41   34   39 1
    42   35   36 1
    43   35   38 2
    44   36   37 1
    45    4   41 1
    46    9   42 1
    47    9   43 1
    48    9   44 1
    49   10   45 1
    50   12   46 1
    51   13   47 1
    52   15   48 1
    53   17   49 1
    54   18   50 1
    55   20   51 1
    56   20   52 1
    57   20   53 1
    58   22   54 1
    59   22   55 1
    60   28   56 1
    61   30   57 1
    62   30   58 1
    63   30   59 1
    64   33   60 1
    65   39   61 1
    66   39   62 1
    67   39   63 1
@<TRIPOS>PROPERTY_DATA
  Total_Score	| 6.8663
  Crash		| -4.6110
  Polar		| 2.1890
  FragIndex	| 1
  FragRMSD	| 0.854

