@<TRIPOS>MOLECULE
BindingDB_30335
 56 59 0 0 0
SMALL
NO_CHARGES


@<TRIPOS>ATOM
1    C       -14.1284   54.3825    1.6499  C     
2    C       -14.5515   53.5731    2.7232  C     
3    C       -14.5179   52.1593    2.6393  C     
4    C       -13.9693   51.5668    1.4846  C     
5    C       -13.4983   52.3662    0.4325  C     
6    C       -13.5722   53.7898    0.4673  C     
7    Cl      -14.3778   56.0524    1.8763  Cl    
8    C       -13.0975   54.6080   -0.5816  C     
9    C       -12.7171   54.2292   -1.8175  C     
10   C       -12.1677   55.0643   -2.7922  C     
11   C       -10.5014   55.3799   -4.5697  C     
12   C       -11.0929   54.5756   -3.5800  C     
13   C       -12.6464   56.3698   -3.0581  C     
14   C       -12.0656   57.1961   -4.0521  C     
15   C       -10.9721   56.6822   -4.7933  C     
16   C       -12.6104   58.4723   -4.3375  C     
17   O       -13.6254   58.9809   -3.5987  O     
18   O       -12.1093   59.2557   -5.3208  O     
19   O       -14.9837   51.2793    3.5973  O     
20   C       -15.5028   51.7904    4.8382  C     
21   C       -16.2222   50.7168    5.5422  C     
22   C       -17.3511   50.0518    5.0655  C     
23   N       -17.7363   49.1688    6.0027  N     
24   O       -16.9282   49.2342    7.0219  O     
25   C       -15.9704   50.1678    6.7985  C     
26   C       -14.9030   50.4899    7.7787  C     
27   C       -15.4373   51.5036    8.8278  C     
28   C       -14.3552   49.1987    8.4465  C     
29   C       -17.9862   50.2258    3.8159  C     
30   N       -19.2214   50.5278    1.3439  N     
31   C       -19.6324   51.2980    2.3809  C     
32   C       -19.0326   51.1730    3.6512  C     
33   C       -17.5792   49.4338    2.7099  C     
34   C       -18.2332   49.6109    1.4744  C     
35   Cl      -19.5899   52.1761    4.9052  Cl    
36   Cl      -16.3075   48.2985    2.7855  Cl    
37   H       -14.9290   54.0010    3.5776  H     
38   H       -13.9277   50.5468    1.3991  H     
39   H       -13.1072   51.8628   -0.3732  H     
40   H       -12.9639   55.5697   -0.3836  H     
41   H       -12.7539   53.2693   -2.0548  H     
42   H        -9.7176   55.0222   -5.1209  H     
43   H       -10.7134   53.6339   -3.4383  H     
44   H       -13.4472   56.7145   -2.5265  H     
45   H       -10.5410   57.2411   -5.5355  H     
46   H       -14.6658   52.1759    5.4264  H     
47   H       -16.2057   52.6184    4.6558  H     
48   H       -14.0636   50.9630    7.2686  H     
49   H       -15.7694   52.4253    8.3359  H     
50   H       -14.6426   51.7685    9.5351  H     
51   H       -16.2775   51.0852    9.3916  H     
52   H       -15.1390   48.7078    9.0233  H     
53   H       -13.5258   49.4446    9.1143  H     
54   H       -13.9930   48.5061    7.6839  H     
55   H       -20.3814   51.9752    2.2210  H     
56   H       -17.9625   49.0577    0.6606  H     
@<TRIPOS>BOND
     1    1    2 1
     2    1    6 2
     3    1    7 1
     4    2    3 2
     5    3    4 1
     6    3   19 1
     7    4    5 2
     8    5    6 1
     9    6    8 1
    10    8    9 2
    11    9   10 1
    12   10   12 1
    13   10   13 2
    14   11   12 2
    15   11   15 1
    16   13   14 1
    17   14   15 2
    18   14   16 1
    19   16   17 2
    20   16   18 1
    21   19   20 1
    22   20   21 1
    23   21   22 1
    24   21   25 2
    25   22   23 2
    26   22   29 1
    27   23   24 1
    28   24   25 1
    29   25   26 1
    30   26   27 1
    31   26   28 1
    32   29   32 1
    33   29   33 2
    34   30   31 1
    35   30   34 2
    36   31   32 2
    37   32   35 1
    38   33   34 1
    39   33   36 1
    40    2   37 1
    41    4   38 1
    42    5   39 1
    43    8   40 1
    44    9   41 1
    45   11   42 1
    46   12   43 1
    47   13   44 1
    48   15   45 1
    49   20   46 1
    50   20   47 1
    51   26   48 1
    52   27   49 1
    53   27   50 1
    54   27   51 1
    55   28   52 1
    56   28   53 1
    57   28   54 1
    58   31   55 1
    59   34   56 1
@<TRIPOS>PROPERTY_DATA
  Total_Score	| 10.8777
  Crash		| -1.5176
  Polar		| 3.3219
  FragIndex	| 1
  FragRMSD	| 0.804

