@<TRIPOS>MOLECULE
BindingDB_30339
 63 67 0 0 0
SMALL
NO_CHARGES


@<TRIPOS>ATOM
1    C       -13.2484   56.3858   -2.4862  C     
2    C       -12.5965   55.1565   -2.4037  C     
3    N       -11.7142   55.0444   -3.4207  N     
4    C       -11.7785   56.1795   -4.1374  C     
5    C       -12.6991   57.0631   -3.5642  C     
6    C       -12.9982   58.3443   -4.0508  C     
7    O       -12.3880   58.8459   -5.1504  O     
8    O       -13.8078   59.1792   -3.3591  O     
9    C       -10.8544   53.9411   -3.7104  C     
10   C       -14.6031   55.7997   -0.5354  C     
11   C       -13.9284   54.5491   -0.4301  C     
12   C       -12.9212   54.2438   -1.3765  C     
13   C       -14.2710   56.7126   -1.5595  C     
14   C       -14.1874   53.6221    0.6260  C     
15   C       -14.7569   51.4276    1.5569  C     
16   C       -14.6187   51.9174    2.8643  C     
17   C       -14.1983   53.2453    3.0499  C     
18   C       -14.0006   54.0901    1.9478  C     
19   C       -14.5363   52.2477    0.4237  C     
20   C       -14.7184   51.6479   -0.9388  C     
21   O       -14.8759   51.0613    3.9049  O     
22   C       -15.6984   51.5493    4.9800  C     
23   C       -16.2012   50.4068    5.7846  C     
24   O       -16.6351   48.8234    7.2691  O     
25   N       -17.5293   48.7011    6.3299  N     
26   C       -17.3150   49.6461    5.4076  C     
27   C       -15.8117   49.8748    7.0228  C     
28   C       -14.8394   50.2417    8.0850  C     
29   Cl      -15.5949   49.9069    9.6410  Cl    
30   C       -14.2630   51.6642    8.1304  C     
31   C       -18.1966   49.9268    4.3767  C     
32   C       -19.1769   50.8473    4.6613  C     
33   C       -19.6617   51.6057    3.6683  C     
34   N       -19.3109   51.3717    2.3827  N     
35   C       -18.5614   50.2918    2.0853  C     
36   C       -17.9453   49.5734    3.0842  C     
37   Cl      -16.7602   48.4561    2.7040  Cl    
38   O       -18.3992   49.9537    0.9135  O     
39   C       -19.7121   52.3065    1.3635  C     
40   H       -11.2247   56.3828   -4.9695  H     
41   H       -10.1154   53.8257   -2.9221  H     
42   H       -10.3272   54.0950   -4.6530  H     
43   H       -11.4351   53.0270   -3.7949  H     
44   H       -15.3553   56.0363    0.1151  H     
45   H       -12.4368   53.3452   -1.3161  H     
46   H       -14.7850   57.5929   -1.6260  H     
47   H       -15.0142   50.4566    1.4328  H     
48   H       -14.0209   53.6067    3.9888  H     
49   H       -13.6891   55.0479    2.1237  H     
50   H       -15.5413   52.1617   -1.4405  H     
51   H       -14.9504   50.5693   -0.8980  H     
52   H       -13.8330   51.7601   -1.5869  H     
53   H       -15.1400   52.2450    5.6021  H     
54   H       -16.5417   52.1200    4.5853  H     
55   H       -13.9870   49.5623    7.9921  H     
56   H       -13.7832   51.9030    7.1777  H     
57   H       -13.4998   51.7225    8.9021  H     
58   H       -15.0313   52.4102    8.3637  H     
59   H       -19.4615   51.0326    5.6010  H     
60   H       -20.2653   52.3545    3.8991  H     
61   H       -20.2113   53.1931    1.7638  H     
62   H       -20.3869   51.8235    0.6541  H     
63   H       -18.8254   52.6514    0.8382  H     
@<TRIPOS>BOND
     1    1    2 2
     2    1    5 1
     3    1   13 1
     4    2    3 1
     5    2   12 1
     6    3    4 1
     7    3    9 1
     8    4    5 2
     9    5    6 1
    10    6    7 1
    11    6    8 2
    12   10   11 1
    13   10   13 2
    14   11   12 2
    15   11   14 1
    16   14   18 1
    17   14   19 2
    18   15   16 2
    19   15   19 1
    20   16   17 1
    21   16   21 1
    22   17   18 2
    23   19   20 1
    24   21   22 1
    25   22   23 1
    26   23   26 1
    27   23   27 2
    28   24   25 1
    29   24   27 1
    30   25   26 2
    31   26   31 1
    32   27   28 1
    33   28   29 1
    34   28   30 1
    35   31   32 1
    36   31   36 2
    37   32   33 2
    38   33   34 1
    39   34   35 1
    40   34   39 1
    41   35   36 1
    42   35   38 2
    43   36   37 1
    44    4   40 1
    45    9   41 1
    46    9   42 1
    47    9   43 1
    48   10   44 1
    49   12   45 1
    50   13   46 1
    51   15   47 1
    52   17   48 1
    53   18   49 1
    54   20   50 1
    55   20   51 1
    56   20   52 1
    57   22   53 1
    58   22   54 1
    59   28   55 1
    60   30   56 1
    61   30   57 1
    62   30   58 1
    63   32   59 1
    64   33   60 1
    65   39   61 1
    66   39   62 1
    67   39   63 1
@<TRIPOS>PROPERTY_DATA
  Total_Score	| 8.7619
  Crash		| -3.2417
  Polar		| 1.9075
  FragIndex	| 1
  FragRMSD	| 1.242

