@<TRIPOS>MOLECULE
BindingDB_21724
 57 60 0 0 0
SMALL
NO_CHARGES


@<TRIPOS>ATOM
1    C       -16.6239   52.5179    5.9534  C     
2    C       -17.4032   51.3842    6.4778  C     
3    C       -18.3735   50.6730    5.7831  C     
4    C       -17.2548   50.7230    7.6911  C     
5    C       -16.3106   51.0216    8.7987  C     
6    C       -17.0888   51.4504   10.0657  C     
7    C       -15.3885   49.8026    9.0605  C     
8    O       -18.1152   49.6783    7.6800  O     
9    N       -18.7636   49.6442    6.5480  N     
10   C       -18.8107   50.9103    4.4579  C     
11   C       -18.4066   50.0354    3.4121  C     
12   C       -19.5645   52.0734    4.1392  C     
13   C       -19.8914   52.3590    2.7989  C     
14   C       -19.4860   51.4921    1.7708  C     
15   C       -18.7526   50.3313    2.0755  C     
16   Cl      -17.4637   48.6482    3.6830  Cl    
17   Cl      -20.1081   53.1709    5.3212  Cl    
18   O       -15.3956   51.9692    5.4175  O     
19   C       -14.9715   52.4253    4.1959  C     
20   C       -14.3271   51.5043    3.3463  C     
21   C       -15.1222   53.7558    3.7745  C     
22   C       -14.6927   54.1714    2.4976  C     
23   C       -13.8947   51.8962    2.0678  C     
24   Cl      -14.8619   55.8291    2.1386  Cl    
25   C       -14.0967   53.2193    1.6147  C     
26   C       -13.6400   53.5499    0.3429  C     
27   C       -14.2379   54.4711   -0.4333  C     
28   C       -13.6410   55.1187   -1.5138  C     
29   C       -13.9149   56.4910   -1.7395  C     
30   C       -12.7275   54.4761   -2.3869  C     
31   C       -12.1109   55.1791   -3.4379  C     
32   C       -12.3865   56.5373   -3.6317  C     
33   C       -13.2920   57.2208   -2.7870  C     
34   C       -13.5330   58.6077   -2.9751  C     
35   O       -14.2224   59.3445   -2.0781  O     
36   O       -13.1382   59.2490   -4.1058  O     
37   H       -17.2216   53.0654    5.2090  H     
38   H       -16.3955   53.2316    6.7546  H     
39   H       -15.6538   51.8503    8.5309  H     
40   H       -17.7039   52.3270    9.8483  H     
41   H       -16.3917   51.7145   10.8652  H     
42   H       -17.7442   50.6520   10.4229  H     
43   H       -15.9647   48.9289    9.3695  H     
44   H       -14.6679   50.0388    9.8487  H     
45   H       -14.8346   49.5426    8.1543  H     
46   H       -20.4292   53.2016    2.5601  H     
47   H       -19.7277   51.7083    0.7984  H     
48   H       -18.4640   49.7099    1.3145  H     
49   H       -14.1800   50.5346    3.6507  H     
50   H       -15.5529   54.4204    4.4106  H     
51   H       -13.4447   51.2021    1.4622  H     
52   H       -12.7929   53.1129    0.0365  H     
53   H       -15.1349   54.7996   -0.1293  H     
54   H       -14.5774   56.9718   -1.1226  H     
55   H       -12.5182   53.4755   -2.3068  H     
56   H       -11.4437   54.7050   -4.0624  H     
57   H       -11.9218   57.0323   -4.3986  H     
@<TRIPOS>BOND
     1    1    2 1
     2    1   18 1
     3    2    3 1
     4    2    4 2
     5    3    9 2
     6    3   10 1
     7    4    5 1
     8    4    8 1
     9    5    6 1
    10    5    7 1
    11    8    9 1
    12   10   11 2
    13   10   12 1
    14   11   15 1
    15   11   16 1
    16   12   13 2
    17   12   17 1
    18   13   14 1
    19   14   15 2
    20   18   19 1
    21   19   20 2
    22   19   21 1
    23   20   23 1
    24   21   22 2
    25   22   24 1
    26   22   25 1
    27   23   25 2
    28   25   26 1
    29   26   27 2
    30   27   28 1
    31   28   29 2
    32   28   30 1
    33   29   33 1
    34   30   31 2
    35   31   32 1
    36   32   33 2
    37   33   34 1
    38   34   35 2
    39   34   36 1
    40    1   37 1
    41    1   38 1
    42    5   39 1
    43    6   40 1
    44    6   41 1
    45    6   42 1
    46    7   43 1
    47    7   44 1
    48    7   45 1
    49   13   46 1
    50   14   47 1
    51   15   48 1
    52   20   49 1
    53   21   50 1
    54   23   51 1
    55   26   52 1
    56   27   53 1
    57   29   54 1
    58   30   55 1
    59   31   56 1
    60   32   57 1
@<TRIPOS>PROPERTY_DATA
  Total_Score	| 7.6476
  Crash		| -3.0725
  Polar		| 0.9883
  FragIndex	| 1
  FragRMSD	| 1.224

