@<TRIPOS>MOLECULE
BindingDB_30342
 63 67 0 0 0
SMALL
NO_CHARGES


@<TRIPOS>ATOM
1    C       -12.8080   56.3463   -3.1420  C     
2    C       -12.1979   55.1188   -2.8780  C     
3    N       -11.1524   54.9619   -3.7261  N     
4    C       -11.0599   56.0706   -4.4854  C     
5    C       -12.0685   56.9799   -4.1430  C     
6    C       -12.2602   58.2434   -4.7386  C     
7    O       -11.4720   58.6772   -5.7491  O     
8    O       -13.2310   59.0861   -4.3269  O     
9    C       -10.2630   53.8448   -3.7980  C     
10   C       -14.4771   55.8733   -1.4502  C     
11   C       -13.7957   54.6971   -1.0494  C     
12   C       -12.6891   54.2910   -1.8457  C     
13   C       -13.9779   56.7198   -2.4510  C     
14   C       -14.1845   53.9755    0.1370  C     
15   C       -14.8300   53.8228    2.5011  C     
16   C       -14.7545   52.4129    2.4800  C     
17   C       -14.4070   51.8006    1.2639  C     
18   C       -14.1274   52.5638    0.1195  C     
19   C       -14.5801   54.6143    1.3578  C     
20   C       -14.6657   56.0989    1.5322  C     
21   O       -14.9991   51.5634    3.5393  O     
22   C       -15.3191   52.0106    4.8744  C     
23   C       -15.8849   50.8598    5.6175  C     
24   O       -16.3057   49.2258    7.0549  O     
25   N       -17.1503   49.0868    6.0688  N     
26   C       -16.9489   50.0711    5.1784  C     
27   C       -15.5050   50.3038    6.8408  C     
28   C       -14.4971   50.8106    7.8075  C     
29   Cl      -13.7633   49.4862    8.7129  Cl    
30   C       -15.1356   51.8281    8.7849  C     
31   C       -17.7081   50.2851    4.0234  C     
32   C       -17.5409   49.5610    2.8211  C     
33   C       -18.2967   49.9591    1.6943  C     
34   C       -19.1932   51.0410    1.7873  C     
35   C       -19.3353   51.7321    3.0078  C     
36   N       -18.5764   51.3284    4.0596  N     
37   Cl      -16.4167   48.2976    2.6730  Cl    
38   O       -20.2264   52.7750    3.0576  O     
39   C       -20.3772   53.4759    4.3050  C     
40   H       -10.3513   56.2240   -5.2032  H     
41   H        -9.7069   53.7706   -2.8677  H     
42   H        -9.5449   53.9503   -4.6102  H     
43   H       -10.8272   52.9233   -3.9582  H     
44   H       -15.3212   56.1544   -0.9650  H     
45   H       -12.2186   53.4054   -1.6584  H     
46   H       -14.4579   57.5956   -2.6598  H     
47   H       -15.0754   54.2821    3.3781  H     
48   H       -14.3482   50.7757    1.2046  H     
49   H       -13.8808   52.0627   -0.7375  H     
50   H       -13.7012   56.5730    1.2776  H     
51   H       -14.8892   56.3892    2.5682  H     
52   H       -15.4772   56.5394    0.9281  H     
53   H       -14.4211   52.3933    5.3560  H     
54   H       -16.0735   52.7985    4.8470  H     
55   H       -13.6849   51.2982    7.2642  H     
56   H       -15.5341   52.6888    8.2420  H     
57   H       -14.3849   52.1895    9.4923  H     
58   H       -15.9480   51.3467    9.3377  H     
59   H       -18.1897   49.4727    0.7994  H     
60   H       -19.7291   51.3384    0.9669  H     
61   H       -20.6507   52.7971    5.1168  H     
62   H       -21.1722   54.2126    4.1933  H     
63   H       -19.4516   53.9924    4.5575  H     
@<TRIPOS>BOND
     1    1    2 2
     2    1    5 1
     3    1   13 1
     4    2    3 1
     5    2   12 1
     6    3    4 1
     7    3    9 1
     8    4    5 2
     9    5    6 1
    10    6    7 1
    11    6    8 2
    12   10   11 1
    13   10   13 2
    14   11   12 2
    15   11   14 1
    16   14   18 1
    17   14   19 2
    18   15   16 2
    19   15   19 1
    20   16   17 1
    21   16   21 1
    22   17   18 2
    23   19   20 1
    24   21   22 1
    25   22   23 1
    26   23   26 1
    27   23   27 2
    28   24   25 1
    29   24   27 1
    30   25   26 2
    31   26   31 1
    32   27   28 1
    33   28   29 1
    34   28   30 1
    35   31   32 2
    36   31   36 1
    37   32   33 1
    38   32   37 1
    39   33   34 2
    40   34   35 1
    41   35   36 2
    42   35   38 1
    43   38   39 1
    44    4   40 1
    45    9   41 1
    46    9   42 1
    47    9   43 1
    48   10   44 1
    49   12   45 1
    50   13   46 1
    51   15   47 1
    52   17   48 1
    53   18   49 1
    54   20   50 1
    55   20   51 1
    56   20   52 1
    57   22   53 1
    58   22   54 1
    59   28   55 1
    60   30   56 1
    61   30   57 1
    62   30   58 1
    63   33   59 1
    64   34   60 1
    65   39   61 1
    66   39   62 1
    67   39   63 1
@<TRIPOS>PROPERTY_DATA
  Total_Score	| 10.7205
  Crash		| -2.1671
  Polar		| 2.2000
  FragIndex	| 1
  FragRMSD	| 1.307

