@<TRIPOS>MOLECULE
BindingDB_30333
 61 64 0 0 0
SMALL
NO_CHARGES


@<TRIPOS>ATOM
1    C       -13.8598   54.2419    1.5695  C     
2    C       -14.1944   53.4516    2.6980  C     
3    C       -14.2025   52.0389    2.6236  C     
4    C       -13.7615   51.4352    1.4324  C     
5    C       -13.3169   52.2111    0.3459  C     
6    C       -13.3713   53.6318    0.3668  C     
7    Cl      -14.1432   55.9099    1.7388  Cl    
8    C       -12.9391   54.4093   -0.7376  C     
9    C       -12.4740   54.0212   -1.9471  C     
10   C       -11.9937   54.8922   -2.9494  C     
11   C       -10.4196   55.3630   -4.7898  C     
12   C       -10.9357   54.4900   -3.8095  C     
13   C       -12.5392   56.1877   -3.1512  C     
14   C       -12.0461   57.0787   -4.1369  C     
15   C       -10.9713   56.6493   -4.9481  C     
16   C       -12.6480   58.3515   -4.3389  C     
17   O       -12.2246   59.1912   -5.3142  O     
18   O       -13.6526   58.7801   -3.5413  O     
19   O       -14.6833   51.2172    3.6330  O     
20   C       -15.3304   51.8581    4.7613  C     
21   C       -16.1687   50.9280    5.5580  C     
22   C       -17.4225   50.4566    5.1814  C     
23   N       -17.9731   49.8098    6.2189  N     
24   O       -17.1197   49.7806    7.2025  O     
25   C       -15.9767   50.4162    6.8494  C     
26   C       -14.8126   50.5082    7.7683  C     
27   C       -15.1343   51.4489    8.9575  C     
28   C       -14.3777   49.1037    8.2752  C     
29   C       -18.0568   50.6549    3.9500  C     
30   C       -19.2211   51.2593    1.4549  C     
31   C       -19.7220   51.8545    2.6256  C     
32   C       -19.1541   51.5409    3.8738  C     
33   C       -17.5599   50.0417    2.7710  C     
34   C       -18.1499   50.3491    1.5276  C     
35   O       -16.4315   49.2626    2.7723  O     
36   C       -16.6125   47.9172    3.2353  C     
37   H       -14.5106   53.8657    3.6094  H     
38   H       -13.7545   50.4164    1.3619  H     
39   H       -12.9604   51.7015   -0.4645  H     
40   H       -12.8908   55.3841   -0.5879  H     
41   H       -12.3989   53.0495   -2.1405  H     
42   H        -9.6416   55.0686   -5.3955  H     
43   H       -10.5030   53.5626   -3.7158  H     
44   H       -13.3393   56.4796   -2.5855  H     
45   H       -10.5835   57.2605   -5.6771  H     
46   H       -14.5463   52.2600    5.4116  H     
47   H       -15.9256   52.7333    4.3603  H     
48   H       -13.9636   50.9357    7.2340  H     
49   H       -15.3903   52.4464    8.5933  H     
50   H       -14.2643   51.5416    9.6128  H     
51   H       -15.9709   51.0685    9.5479  H     
52   H       -15.1796   48.6332    8.8504  H     
53   H       -13.4970   49.1847    8.9188  H     
54   H       -14.1241   48.4522    7.4354  H     
55   H       -19.6255   51.5060    0.5492  H     
56   H       -20.4814   52.5373    2.5642  H     
57   H       -19.5138   52.0073    4.7120  H     
58   H       -17.7750   49.9359    0.6681  H     
59   H       -16.9055   47.8903    4.2862  H     
60   H       -15.6570   47.4036    3.1370  H     
61   H       -17.3501   47.3871    2.6319  H     
@<TRIPOS>BOND
     1    1    2 1
     2    1    6 2
     3    1    7 1
     4    2    3 2
     5    3    4 1
     6    3   19 1
     7    4    5 2
     8    5    6 1
     9    6    8 1
    10    8    9 2
    11    9   10 1
    12   10   12 1
    13   10   13 2
    14   11   12 2
    15   11   15 1
    16   13   14 1
    17   14   15 2
    18   14   16 1
    19   16   17 2
    20   16   18 1
    21   19   20 1
    22   20   21 1
    23   21   22 1
    24   21   25 2
    25   22   23 2
    26   22   29 1
    27   23   24 1
    28   24   25 1
    29   25   26 1
    30   26   27 1
    31   26   28 1
    32   29   32 1
    33   29   33 2
    34   30   31 1
    35   30   34 2
    36   31   32 2
    37   33   34 1
    38   33   35 1
    39   35   36 1
    40    2   37 1
    41    4   38 1
    42    5   39 1
    43    8   40 1
    44    9   41 1
    45   11   42 1
    46   12   43 1
    47   13   44 1
    48   15   45 1
    49   20   46 1
    50   20   47 1
    51   26   48 1
    52   27   49 1
    53   27   50 1
    54   27   51 1
    55   28   52 1
    56   28   53 1
    57   28   54 1
    58   30   55 1
    59   31   56 1
    60   32   57 1
    61   34   58 1
    62   36   59 1
    63   36   60 1
    64   36   61 1
@<TRIPOS>PROPERTY_DATA
  Total_Score	| 10.1090
  Crash		| -2.6930
  Polar		| 2.7433
  FragIndex	| 1
  FragRMSD	| 0.383

