@<TRIPOS>MOLECULE
BindingDB_30341
 63 67 0 0 0
SMALL
NO_CHARGES


@<TRIPOS>ATOM
1    C       -13.2100   56.4602   -2.6251  C     
2    C       -12.5853   55.2179   -2.5145  C     
3    N       -11.6555   55.1046   -3.4914  N     
4    C       -11.6723   56.2410   -4.2204  C     
5    C       -12.6155   57.1285   -3.6978  C     
6    C       -12.8746   58.4207   -4.1896  C     
7    O       -12.3404   58.8490   -5.3558  O     
8    O       -13.5356   59.3250   -3.4356  O     
9    C       -10.7908   53.9882   -3.7204  C     
10   C       -14.6236   55.9287   -0.7190  C     
11   C       -13.9720   54.6757   -0.5596  C     
12   C       -12.9420   54.3382   -1.4747  C     
13   C       -14.2319   56.8260   -1.7301  C     
14   C       -14.2539   53.8447    0.5724  C     
15   C       -14.7710   51.7207    1.6823  C     
16   C       -14.6919   52.3145    2.9594  C     
17   C       -14.4367   53.7041    3.0253  C     
18   C       -14.1933   54.4439    1.8607  C     
19   C       -14.5845   52.4558    0.4825  C     
20   C       -14.8229   51.7645   -0.8211  C     
21   O       -14.9615   51.4547    4.0031  O     
22   C       -15.5488   51.8081    5.2702  C     
23   C       -16.3616   50.6662    5.7547  C     
24   O       -17.3890   49.1675    7.0301  O     
25   N       -18.0063   49.1613    5.8821  N     
26   C       -17.4275   50.0657    5.0723  C     
27   C       -16.3818   50.0839    7.0270  C     
28   C       -15.6167   50.3732    8.2626  C     
29   Cl      -15.8574   52.0458    8.7753  Cl    
30   C       -14.1128   50.0394    8.1598  C     
31   C       -17.9577   50.4067    3.8318  C     
32   C       -17.5001   49.7817    2.7139  C     
33   C       -17.9114   50.2237    1.4896  C     
34   C       -18.7624   51.2580    1.3675  C     
35   C       -19.2813   51.8371    2.4863  C     
36   N       -18.9074   51.4178    3.7175  N     
37   O       -20.0925   52.7378    2.3032  O     
38   Cl      -16.3741   48.5375    2.7254  Cl    
39   C       -19.5216   52.0036    4.9034  C     
40   H       -11.0619   56.4389   -5.0215  H     
41   H       -10.1029   53.8860   -2.8807  H     
42   H       -10.2006   54.1234   -4.6283  H     
43   H       -11.3740   53.0721   -3.8227  H     
44   H       -15.3629   56.2155   -0.0716  H     
45   H       -12.4128   53.4716   -1.3736  H     
46   H       -14.6810   57.7376   -1.7919  H     
47   H       -14.9944   50.7203    1.6299  H     
48   H       -14.4426   54.2072    3.9062  H     
49   H       -13.9820   55.4415    1.9659  H     
50   H       -15.6013   52.3066   -1.3806  H     
51   H       -15.1587   50.7262   -0.6874  H     
52   H       -13.9067   51.7243   -1.4186  H     
53   H       -14.7576   52.0605    5.9764  H     
54   H       -16.2302   52.6530    5.2120  H     
55   H       -16.0339   49.7521    9.0593  H     
56   H       -13.9764   49.0280    7.7651  H     
57   H       -13.6500   50.0908    9.1475  H     
58   H       -13.6108   50.7509    7.5052  H     
59   H       -17.5463   49.8102    0.6602  H     
60   H       -19.0169   51.5888    0.4614  H     
61   H       -20.0130   51.2241    5.4895  H     
62   H       -20.2815   52.7601    4.6926  H     
63   H       -18.7639   52.4790    5.5262  H     
@<TRIPOS>BOND
     1    1    2 2
     2    1    5 1
     3    1   13 1
     4    2    3 1
     5    2   12 1
     6    3    4 1
     7    3    9 1
     8    4    5 2
     9    5    6 1
    10    6    7 1
    11    6    8 2
    12   10   11 1
    13   10   13 2
    14   11   12 2
    15   11   14 1
    16   14   18 1
    17   14   19 2
    18   15   16 2
    19   15   19 1
    20   16   17 1
    21   16   21 1
    22   17   18 2
    23   19   20 1
    24   21   22 1
    25   22   23 1
    26   23   26 1
    27   23   27 2
    28   24   25 1
    29   24   27 1
    30   25   26 2
    31   26   31 1
    32   27   28 1
    33   28   29 1
    34   28   30 1
    35   31   32 2
    36   31   36 1
    37   32   33 1
    38   32   38 1
    39   33   34 2
    40   34   35 1
    41   35   36 1
    42   35   37 2
    43   36   39 1
    44    4   40 1
    45    9   41 1
    46    9   42 1
    47    9   43 1
    48   10   44 1
    49   12   45 1
    50   13   46 1
    51   15   47 1
    52   17   48 1
    53   18   49 1
    54   20   50 1
    55   20   51 1
    56   20   52 1
    57   22   53 1
    58   22   54 1
    59   28   55 1
    60   30   56 1
    61   30   57 1
    62   30   58 1
    63   33   59 1
    64   34   60 1
    65   39   61 1
    66   39   62 1
    67   39   63 1
@<TRIPOS>PROPERTY_DATA
  Total_Score	| 9.9697
  Crash		| -1.4379
  Polar		| 1.6869
  FragIndex	| 1
  FragRMSD	| 0.562

