@<TRIPOS>MOLECULE
BindingDB_30336
 59 63 0 0 0
SMALL
NO_CHARGES


@<TRIPOS>ATOM
1    C       -12.7524   56.4450   -3.1797  C     
2    C       -12.1584   55.2088   -2.9038  C     
3    N       -11.0477   55.0792   -3.6617  N     
4    C       -10.9052   56.2034   -4.3947  C     
5    C       -11.9424   57.0928   -4.1158  C     
6    C       -12.0854   58.3718   -4.6895  C     
7    O       -11.1962   58.8403   -5.5915  O     
8    O       -13.1129   59.1787   -4.3661  O     
9    C       -10.1494   53.9646   -3.6825  C     
10   C       -14.5156   55.9516   -1.5790  C     
11   C       -13.8666   54.7462   -1.2091  C     
12   C       -12.7131   54.3504   -1.9329  C     
13   C       -13.9505   56.8155   -2.5389  C     
14   C       -14.2816   53.9846   -0.0752  C     
15   C       -14.7461   53.7251    2.3190  C     
16   C       -14.8511   52.3246    2.1847  C     
17   C       -14.6741   51.7655    0.9072  C     
18   C       -14.3862   52.5792   -0.2048  C     
19   C       -14.4829   54.5677    1.2118  C     
20   C       -14.3851   56.0182    1.5250  C     
21   O       -15.0517   51.4581    3.2392  O     
22   C       -15.4781   51.9964    4.5105  C     
23   C       -16.0555   50.9173    5.3372  C     
24   O       -16.6019   49.5141    6.9641  O     
25   N       -17.4194   49.2832    5.9728  N     
26   C       -17.1302   50.1150    4.9593  C     
27   C       -15.7362   50.5041    6.6339  C     
28   C       -14.7214   51.0491    7.5678  C     
29   Cl      -14.0677   49.7596    8.5766  Cl    
30   C       -15.3233   52.1691    8.4489  C     
31   C       -17.8468   50.1995    3.7472  C     
32   C       -18.9305   51.1077    3.6201  C     
33   C       -19.5494   51.2549    2.3627  C     
34   N       -19.1236   50.5255    1.3033  N     
35   C       -18.1006   49.6426    1.3920  C     
36   C       -17.4268   49.4579    2.6141  C     
37   Cl      -19.5154   52.0470    4.9085  Cl    
38   Cl      -16.1131   48.3849    2.6439  Cl    
39   H       -10.1383   56.3875   -5.0424  H     
40   H        -9.6738   53.8595   -2.7091  H     
41   H        -9.3607   54.0906   -4.4284  H     
42   H       -10.6973   53.0489   -3.9133  H     
43   H       -15.3859   56.2328   -1.1245  H     
44   H       -12.2495   53.4650   -1.7224  H     
45   H       -14.4020   57.7058   -2.7462  H     
46   H       -14.8448   54.1392    3.2496  H     
47   H       -14.7292   50.7526    0.7849  H     
48   H       -14.2409   52.1342   -1.1146  H     
49   H       -13.6426   56.1691    2.3046  H     
50   H       -15.3499   56.3735    1.8878  H     
51   H       -14.0876   56.6409    0.6905  H     
52   H       -14.6281   52.4541    5.0164  H     
53   H       -16.2458   52.7657    4.3699  H     
54   H       -13.8788   51.4617    7.0109  H     
55   H       -15.7301   52.9659    7.8252  H     
56   H       -14.5533   52.5965    9.0937  H     
57   H       -16.1232   51.7750    9.0779  H     
58   H       -20.3186   51.9129    2.2315  H     
59   H       -17.8183   49.1285    0.5551  H     
@<TRIPOS>BOND
     1    1    2 2
     2    1    5 1
     3    1   13 1
     4    2    3 1
     5    2   12 1
     6    3    4 1
     7    3    9 1
     8    4    5 2
     9    5    6 1
    10    6    7 1
    11    6    8 2
    12   10   11 1
    13   10   13 2
    14   11   12 2
    15   11   14 1
    16   14   18 1
    17   14   19 2
    18   15   16 2
    19   15   19 1
    20   16   17 1
    21   16   21 1
    22   17   18 2
    23   19   20 1
    24   21   22 1
    25   22   23 1
    26   23   26 1
    27   23   27 2
    28   24   25 1
    29   24   27 1
    30   25   26 2
    31   26   31 1
    32   27   28 1
    33   28   29 1
    34   28   30 1
    35   31   32 1
    36   31   36 2
    37   32   33 2
    38   32   37 1
    39   33   34 1
    40   34   35 2
    41   35   36 1
    42   36   38 1
    43    4   39 1
    44    9   40 1
    45    9   41 1
    46    9   42 1
    47   10   43 1
    48   12   44 1
    49   13   45 1
    50   15   46 1
    51   17   47 1
    52   18   48 1
    53   20   49 1
    54   20   50 1
    55   20   51 1
    56   22   52 1
    57   22   53 1
    58   28   54 1
    59   30   55 1
    60   30   56 1
    61   30   57 1
    62   33   58 1
    63   35   59 1
@<TRIPOS>PROPERTY_DATA
  Total_Score	| 10.8171
  Crash		| -1.4749
  Polar		| 3.0154
  FragIndex	| 1
  FragRMSD	| 0.503

