@<TRIPOS>MOLECULE
BindingDB_50292720
 42 44 0 0 0
SMALL
NO_CHARGES


@<TRIPOS>ATOM
1    C        35.3409   -4.0496   13.9491  C     
2    C        36.0811   -2.9209   13.9408  C     
3    N        36.0314   -2.0259   12.9066  N     
4    C        35.1992   -2.3004   11.8750  C     
5    N        34.4770   -3.4228   11.8789  N     
6    C        34.5211   -4.2912   12.8913  C     
7    O        33.8503   -5.3116   12.8551  O     
8    O        35.0800   -1.5880   10.8830  O     
9    C        36.8955   -0.8387   12.8948  C     
10   O        37.8710   -0.8322   13.9664  O     
11   C        37.8949    0.4443   14.6267  C     
12   C        36.5360    1.1160   14.2922  C     
13   C        36.1374    0.5142   12.9383  C     
14   O        36.5004    1.3597   11.8344  O     
15   O        36.6060    2.5547   14.2731  O     
16   C        38.1286    0.2566   16.1645  C     
17   N        38.9329   -0.9768   16.4840  N     
18   C        38.8220   -1.4333   17.9199  C     
19   C        39.5675   -2.7866   18.1148  C     
20   O        40.9449   -2.6764   17.7029  O     
21   C        41.0907   -2.2433   16.3269  C     
22   C        40.3724   -0.8911   16.0700  C     
23   H        35.4390   -4.6997   14.7027  H     
24   H        36.6923   -2.7727   14.7165  H     
25   H        33.8836   -3.6328   11.1404  H     
26   H        37.4923   -0.8823   11.9693  H     
27   H        38.7210    1.0420   14.2166  H     
28   H        35.7689    0.8312   15.0356  H     
29   H        35.0525    0.3826   12.9074  H     
30   H        35.7674    2.0234   11.7923  H     
31   H        36.2924    2.8183   15.1758  H     
32   H        38.6278    1.1446   16.5541  H     
33   H        37.1528    0.1909   16.6684  H     
34   H        38.5326   -1.7471   15.9250  H     
35   H        39.2528   -0.6926   18.6014  H     
36   H        37.7689   -1.6021   18.1814  H     
37   H        39.5512   -3.0635   19.1682  H     
38   H        39.0781   -3.5908   17.5564  H     
39   H        42.1592   -2.1222   16.1278  H     
40   H        40.7039   -3.0167   15.6565  H     
41   H        40.4278   -0.6634   15.0087  H     
42   H        40.8860   -0.1007   16.6249  H     
@<TRIPOS>BOND
     1    1    2 2
     2    1    6 1
     3    2    3 1
     4    3    4 1
     5    9    3 1
     6    4    5 1
     7    4    8 2
     8    5    6 1
     9    6    7 2
    10    9   10 1
    11    9   13 1
    12   10   11 1
    13   11   12 1
    14   11   16 1
    15   12   13 1
    16   12   15 1
    17   13   14 1
    18   16   17 1
    19   17   18 1
    20   17   22 1
    21   18   19 1
    22   19   20 1
    23   20   21 1
    24   21   22 1
    25    1   23 1
    26    2   24 1
    27    5   25 1
    28    9   26 1
    29   11   27 1
    30   12   28 1
    31   13   29 1
    32   14   30 1
    33   15   31 1
    34   16   32 1
    35   16   33 1
    36   17   34 1
    37   18   35 1
    38   18   36 1
    39   19   37 1
    40   19   38 1
    41   21   39 1
    42   21   40 1
    43   22   41 1
    44   22   42 1
@<TRIPOS>PROPERTY_DATA
  Total_Score	| 4.1597
  Crash		| -1.4295
  Polar		| 4.1769
  FragIndex	| 1
  FragRMSD	| 0.588

