@<TRIPOS>MOLECULE
BindingDB_50292719
 44 46 0 0 0
SMALL
NO_CHARGES


@<TRIPOS>ATOM
1    C        35.3909   -4.0359   13.9292  C     
2    C        36.1253   -2.9096   13.8813  C     
3    N        36.0276   -2.0206   12.8382  N     
4    C        35.1279   -2.2996   11.8618  C     
5    N        34.4023   -3.4175   11.9160  N     
6    C        34.5289   -4.2832   12.9156  C     
7    O        33.8729   -5.3135   12.9046  O     
8    O        34.9609   -1.5927   10.8751  O     
9    C        36.9203   -0.8641   12.7343  C     
10   O        38.0273   -0.8754   13.6535  O     
11   C        37.9621    0.2111   14.5895  C     
12   C        36.7236    1.0764   14.2147  C     
13   C        36.2113    0.5067   12.8844  C     
14   O        36.4927    1.3728   11.7887  O     
15   O        37.0330    2.4735   14.1648  O     
16   C        37.9123   -0.2988   16.0688  C     
17   N        38.9402   -1.2797   16.5719  N     
18   C        40.3514   -0.7848   16.5913  C     
19   C        41.3550   -1.9445   16.8324  C     
20   C        40.9951   -2.7263   18.1210  C     
21   C        39.5178   -3.1810   18.1015  C     
22   C        38.5715   -1.9775   17.8475  C     
23   H        35.5053   -4.6785   14.6781  H     
24   H        36.7528   -2.7519   14.6335  H     
25   H        33.7880   -3.6196   11.1992  H     
26   H        37.3904   -0.9184   11.7460  H     
27   H        38.8819    0.8015   14.4638  H     
28   H        35.9368    0.9723   14.9657  H     
29   H        35.1288    0.3773   12.9316  H     
30   H        35.7779    2.0454   11.8121  H     
31   H        37.7158    2.5645   13.4670  H     
32   H        37.9072    0.5834   16.7241  H     
33   H        36.9289   -0.7644   16.2164  H     
34   H        38.9425   -2.0282   15.8707  H     
35   H        40.5985   -0.3256   15.6309  H     
36   H        40.4772   -0.0291   17.3776  H     
37   H        41.3380   -2.6226   15.9697  H     
38   H        42.3676   -1.5395   16.9253  H     
39   H        41.6424   -3.6024   18.2095  H     
40   H        41.1660   -2.0838   18.9916  H     
41   H        39.3763   -3.9161   17.2979  H     
42   H        39.2653   -3.6502   19.0591  H     
43   H        38.6045   -1.2837   18.6951  H     
44   H        37.5540   -2.3775   17.7739  H     
@<TRIPOS>BOND
     1    1    2 2
     2    1    6 1
     3    2    3 1
     4    3    4 1
     5    9    3 1
     6    4    5 1
     7    4    8 2
     8    5    6 1
     9    6    7 2
    10    9   10 1
    11    9   13 1
    12   10   11 1
    13   11   12 1
    14   11   16 1
    15   12   13 1
    16   12   15 1
    17   13   14 1
    18   16   17 1
    19   17   18 1
    20   17   22 1
    21   18   19 1
    22   19   20 1
    23   20   21 1
    24   21   22 1
    25    1   23 1
    26    2   24 1
    27    5   25 1
    28    9   26 1
    29   11   27 1
    30   12   28 1
    31   13   29 1
    32   14   30 1
    33   15   31 1
    34   16   32 1
    35   16   33 1
    36   17   34 1
    37   18   35 1
    38   18   36 1
    39   19   37 1
    40   19   38 1
    41   20   39 1
    42   20   40 1
    43   21   41 1
    44   21   42 1
    45   22   43 1
    46   22   44 1
@<TRIPOS>PROPERTY_DATA
  Total_Score	| 5.0713
  Crash		| -0.9404
  Polar		| 4.2823
  FragIndex	| 1
  FragRMSD	| 0.546

