@<TRIPOS>MOLECULE
BindingDB_50292722
 32 33 0 0 0
SMALL
NO_CHARGES


@<TRIPOS>ATOM
1    O        38.6226   -1.1264   16.3278  O     
2    C        39.1872   -0.0833   15.5307  C     
3    C        38.4647    0.0983   14.1689  C     
4    C        37.1544    0.9143   14.2297  C     
5    O        37.5190    2.3114   14.3505  O     
6    C        36.3931    0.3847   12.9874  C     
7    O        36.5437    1.2508   11.8547  O     
8    C        37.0240   -1.0177   12.7072  C     
9    O        38.1238   -1.1738   13.6211  O     
10   N        36.0795   -2.1310   12.7935  N     
11   C        35.1704   -2.3626   11.8176  C     
12   O        35.0339   -1.6399   10.8401  O     
13   N        34.3878   -3.4453   11.8674  N     
14   C        34.4667   -4.3208   12.8680  C     
15   C        35.3374   -4.1075   13.8900  C     
16   C        36.1147   -3.0073   13.8491  C     
17   P        36.4718    3.4081   14.0169  P     
18   O        36.4671    4.5707   15.0426  O     
19   O        35.1137    2.9335   13.9229  O     
20   O        36.8599    4.0194   12.6637  O     
21   O        33.7383   -5.3032   12.8648  O     
22   H        37.7238   -0.8124   16.5651  H     
23   H        39.1672    0.8557   16.0988  H     
24   H        40.2385   -0.3413   15.3393  H     
25   H        39.1645    0.5899   13.4871  H     
26   H        36.5838    0.6256   15.1185  H     
27   H        35.3268    0.2952   13.2049  H     
28   H        35.7705    1.8388   11.8614  H     
29   H        37.4827   -1.0263   11.7181  H     
30   H        33.7488   -3.6107   11.1516  H     
31   H        35.4123   -4.7521   14.6439  H     
32   H        36.7201   -2.8524   14.6214  H     
@<TRIPOS>BOND
     1    1    2 1
     2    3    2 1
     3    3    4 1
     4    3    9 1
     5    4    5 1
     6    4    6 1
     7    5   17 1
     8    6    7 1
     9    6    8 1
    10    8    9 1
    11    8   10 1
    12   10   11 1
    13   10   16 1
    14   11   12 2
    15   11   13 1
    16   13   14 1
    17   14   15 1
    18   14   21 2
    19   15   16 2
    20   17   18 1
    21   17   19 2
    22   17   20 1
    23    1   22 1
    24    2   23 1
    25    2   24 1
    26    3   25 1
    27    4   26 1
    28    6   27 1
    29    7   28 1
    30    8   29 1
    31   13   30 1
    32   15   31 1
    33   16   32 1
@<TRIPOS>PROPERTY_DATA
  Total_Score	| 6.1971
  Crash		| -0.9221
  Polar		| 7.3454
  FragIndex	| 1
  FragRMSD	| 0.460

