@<TRIPOS>MOLECULE
BindingDB_50292714
 46 48 0 0 0
SMALL
NO_CHARGES


@<TRIPOS>ATOM
1    C        35.2449   -4.3399   13.9228  C     
2    C        35.9337   -3.1887   14.0228  C     
3    N        35.8947   -2.2382   13.0343  N     
4    C        35.0948   -2.4750   11.9641  C     
5    N        34.3806   -3.6003   11.8946  N     
6    C        34.4401   -4.5277   12.8466  C     
7    O        33.7703   -5.5438   12.7425  O     
8    O        34.9546   -1.7045   11.0198  O     
9    C        36.6994   -1.0201   13.0640  C     
10   O        37.7411   -1.1444   12.0683  O     
11   C        38.9403   -0.4573   12.4735  C     
12   C        38.9244   -0.6610   14.0223  C     
13   C        37.4233   -0.4943   14.3463  C     
14   O        37.1434   -1.0840   15.6105  O     
15   N        39.9484    0.1404   14.8109  N     
16   C        40.5284   -0.6149   15.9727  C     
17   C        41.7475    0.1148   16.5951  C     
18   C        41.4068    1.5687   16.9889  C     
19   C        40.7440    2.3235   15.8114  C     
20   C        39.5442    1.5238   15.2425  C     
21   C        40.1538   -1.1756   11.8071  C     
22   O        40.4656   -0.6641   10.5103  O     
23   C        38.8932    0.9675   12.0419  C     
24   O        40.0229    1.7088   11.9771  O     
25   O        37.7463    1.5245   11.5903  O     
26   H        35.3148   -5.0252   14.6360  H     
27   H        36.4658   -3.0693   14.8320  H     
28   H        33.7925   -3.7475   11.1372  H     
29   H        36.0392   -0.1956   12.7475  H     
30   H        39.1270   -1.7269   14.1697  H     
31   H        37.1744    0.5620   14.4581  H     
32   H        36.1666   -1.0497   15.6866  H     
33   H        40.7334    0.2792   14.1725  H     
34   H        39.7628   -0.7682   16.7434  H     
35   H        40.8797   -1.5978   15.6509  H     
36   H        42.0890   -0.4295   17.4836  H     
37   H        42.5699    0.1197   15.8690  H     
38   H        40.7259    1.5652   17.8456  H     
39   H        42.3216    2.0935   17.2877  H     
40   H        40.4012    3.3068   16.1576  H     
41   H        41.4808    2.4823   15.0161  H     
42   H        39.1422    2.0908   14.4034  H     
43   H        38.7649    1.4693   16.0115  H     
44   H        41.0389   -1.0517   12.4309  H     
45   H        39.9495   -2.2467   11.7108  H     
46   H        39.6969   -0.8964    9.9414  H     
@<TRIPOS>BOND
     1    1    2 2
     2    1    6 1
     3    2    3 1
     4    3    4 1
     5    9    3 1
     6    4    5 1
     7    4    8 2
     8    5    6 1
     9    6    7 2
    10    9   10 1
    11    9   13 1
    12   10   11 1
    13   11   12 1
    14   11   21 1
    15   11   23 1
    16   12   13 1
    17   12   15 1
    18   13   14 1
    19   15   16 1
    20   15   20 1
    21   16   17 1
    22   17   18 1
    23   18   19 1
    24   19   20 1
    25   21   22 1
    26   23   24 1
    27   23   25 2
    28    1   26 1
    29    2   27 1
    30    5   28 1
    31    9   29 1
    32   12   30 1
    33   13   31 1
    34   14   32 1
    35   15   33 1
    36   16   34 1
    37   16   35 1
    38   17   36 1
    39   17   37 1
    40   18   38 1
    41   18   39 1
    42   19   40 1
    43   19   41 1
    44   20   42 1
    45   20   43 1
    46   21   44 1
    47   21   45 1
    48   22   46 1
@<TRIPOS>PROPERTY_DATA
  Total_Score	| 4.3221
  Crash		| -0.6371
  Polar		| 4.5656
  FragIndex	| 1
  FragRMSD	| 0.864

