@<TRIPOS>MOLECULE
BindingDB_50118239
 36 37 0 0 0
SMALL
NO_CHARGES


@<TRIPOS>ATOM
1    C        36.8872   -1.0964   12.8994  C     
2    C        35.2989   -4.3012   13.9080  C     
3    C        36.0629   -3.1904   13.9130  C     
4    N        36.0029   -2.2626   12.9020  N     
5    C        35.1459   -2.5068   11.8797  C     
6    N        34.3681   -3.5886   11.8924  N     
7    C        34.4284   -4.4799   12.8781  C     
8    O        33.7041   -5.4590   12.8378  O     
9    O        35.0246   -1.7793   10.9039  O     
10   O        37.7016   -0.9713   14.0833  O     
11   C        37.9297    0.4064   14.3692  C     
12   C        36.6281    1.1048   13.9441  C     
13   C        36.1703    0.2751   12.7345  C     
14   C        38.2966    0.6205   15.8564  C     
15   O        37.2233    0.1252   16.6774  O     
16   O        36.5419    0.9091   11.5110  O     
17   O        36.8063    2.4956   13.6737  O     
18   P        36.9074    0.8375   18.0238  P     
19   O        37.1553    2.2543   17.9531  O     
20   O        35.3775    0.6551   18.1385  O     
21   O        37.5829    0.0732   19.2077  O     
22   P        37.4046    0.7264   20.6124  P     
23   O        38.4905    1.7942   20.8481  O     
24   O        37.6016   -0.2857   21.6227  O     
25   O        36.0127    1.3396   20.9043  O     
26   H        37.5873   -1.2365   12.0690  H     
27   H        35.3818   -4.9813   14.6283  H     
28   H        36.6960   -3.0843   14.6710  H     
29   H        33.7491   -3.7344   11.1623  H     
30   H        38.7528    0.7556   13.7470  H     
31   H        35.8668    1.0206   14.7203  H     
32   H        35.0836    0.1780   12.7455  H     
33   H        39.2179    0.0863   16.0923  H     
34   H        38.4685    1.6950   16.0022  H     
35   H        36.4789    0.2118   10.8248  H     
36   H        36.0282    2.7590   13.1287  H     
@<TRIPOS>BOND
     1    1    4 1
     2    1   10 1
     3    1   13 1
     4    2    3 2
     5    2    7 1
     6    3    4 1
     7    4    5 1
     8    5    6 1
     9    5    9 2
    10    6    7 1
    11    7    8 2
    12   10   11 1
    13   11   12 1
    14   11   14 1
    15   12   13 1
    16   12   17 1
    17   13   16 1
    18   14   15 1
    19   15   18 1
    20   18   19 2
    21   18   20 1
    22   18   21 1
    23   21   22 1
    24   22   23 1
    25   22   24 2
    26   22   25 1
    27    1   26 1
    28    2   27 1
    29    3   28 1
    30    6   29 1
    31   11   30 1
    32   12   31 1
    33   13   32 1
    34   14   33 1
    35   14   34 1
    36   16   35 1
    37   17   36 1
@<TRIPOS>PROPERTY_DATA
  Total_Score	| 5.3470
  Crash		| -1.2811
  Polar		| 4.9435
  FragIndex	| 1
  FragRMSD	| 0.499

