@<TRIPOS>MOLECULE
BindingDB_50292716
 43 45 0 0 0
SMALL
NO_CHARGES


@<TRIPOS>ATOM
1    C        35.9979   -4.3592   13.3545  C     
2    C        36.6729   -3.1859   13.3081  C     
3    N        36.2749   -2.1381   12.5249  N     
4    C        35.2090   -2.3268   11.7143  C     
5    N        34.5243   -3.4670   11.7597  N     
6    C        34.8695   -4.4596   12.5745  C     
7    O        34.1523   -5.4511   12.5750  O     
8    O        34.8027   -1.4850   10.9226  O     
9    C        36.9735   -0.8542   12.5627  C     
10   O        38.1759   -0.8107   13.3640  O     
11   C        38.0266    0.1140   14.4512  C     
12   C        36.9529    1.1258   13.9989  C     
13   C        36.0702    0.3041   13.0566  C     
14   O        37.5384    2.2334   13.3152  O     
15   C        37.6896   -0.6339   15.7722  C     
16   N        38.7682   -1.5787   16.2004  N     
17   C        38.3592   -2.5308   17.2596  C     
18   C        39.6768   -3.1660   17.7368  C     
19   C        40.7482   -2.0860   17.4832  C     
20   C        40.0261   -0.9691   16.7007  C     
21   C        36.5186   -5.4583   14.1597  C     
22   H        37.4964   -3.1015   13.8582  H     
23   H        33.7489   -3.5791   11.1859  H     
24   H        37.3086   -0.6259   11.5452  H     
25   H        38.9742    0.6387   14.5909  H     
26   H        36.3729    1.5202   14.8368  H     
27   H        35.6985    0.9092   12.2268  H     
28   H        35.2128   -0.0835   13.6083  H     
29   H        38.0555    1.8465   12.5781  H     
30   H        37.4984    0.0959   16.5663  H     
31   H        36.7634   -1.1949   15.6163  H     
32   H        39.0171   -2.1438   15.3844  H     
33   H        37.8698   -2.0142   18.0940  H     
34   H        37.6795   -3.2908   16.8654  H     
35   H        39.6181   -3.4458   18.7922  H     
36   H        39.8952   -4.0599   17.1453  H     
37   H        41.1489   -1.7031   18.4248  H     
38   H        41.5728   -2.4989   16.8949  H     
39   H        40.6447   -0.6188   15.8703  H     
40   H        39.8182   -0.1258   17.3673  H     
41   H        37.4801   -5.7821   13.7572  H     
42   H        35.8537   -6.3237   14.1868  H     
43   H        36.6677   -5.1195   15.1835  H     
@<TRIPOS>BOND
     1    1    2 2
     2    1    6 1
     3    1   21 1
     4    2    3 1
     5    3    4 1
     6    9    3 1
     7    4    5 1
     8    4    8 2
     9    5    6 1
    10    6    7 2
    11    9   10 1
    12    9   13 1
    13   10   11 1
    14   11   12 1
    15   11   15 1
    16   12   13 1
    17   12   14 1
    18   15   16 1
    19   16   17 1
    20   16   20 1
    21   17   18 1
    22   18   19 1
    23   19   20 1
    24    2   22 1
    25    5   23 1
    26    9   24 1
    27   11   25 1
    28   12   26 1
    29   13   27 1
    30   13   28 1
    31   14   29 1
    32   15   30 1
    33   15   31 1
    34   16   32 1
    35   17   33 1
    36   17   34 1
    37   18   35 1
    38   18   36 1
    39   19   37 1
    40   19   38 1
    41   20   39 1
    42   20   40 1
    43   21   41 1
    44   21   42 1
    45   21   43 1
@<TRIPOS>PROPERTY_DATA
  Total_Score	| 2.0762
  Crash		| -1.3055
  Polar		| 2.0822
  FragIndex	| 1
  FragRMSD	| 0.832

