@<TRIPOS>MOLECULE
BindingDB_50342007
 48 50 0 0 0
SMALL
NO_CHARGES


@<TRIPOS>ATOM
1    C        37.1813    0.1634   14.2644  C     
2    C        36.4060    0.2566   12.9474  C     
3    C        36.9848   -0.9309   12.1525  C     
4    O        38.3629   -1.0183   12.5721  O     
5    C        38.5776   -0.3063   13.8092  C     
6    N        36.1962   -2.1550   12.3116  N     
7    O        37.2070    1.4143   14.9486  O     
8    C        39.4815   -1.1872   14.7412  C     
9    N        39.3640   -1.2355   16.2339  N     
10   C        38.0642   -1.7445   16.7857  C     
11   C        38.2368   -2.1309   18.2732  C     
12   C        38.7846   -0.9274   19.0925  C     
13   C        40.0976   -0.3839   18.4582  C     
14   C        39.8750   -0.0368   16.9620  C     
15   C        38.9549   -1.2855   20.5171  C     
16   O        39.8496   -2.2293   20.8894  O     
17   O        38.1182   -0.7776   21.4527  O     
18   C        36.5687   -3.1418   13.1827  C     
19   C        35.8657   -4.2876   13.3385  C     
20   C        34.7318   -4.4268   12.5771  C     
21   N        34.3733   -3.4759   11.7221  N     
22   C        35.0767   -2.3547   11.5826  C     
23   O        34.6533   -1.5489   10.7650  O     
24   O        34.0208   -5.4209   12.6425  O     
25   C        36.3015   -5.3462   14.2439  C     
26   H        36.7082   -0.5899   14.8815  H     
27   H        35.3263    0.1881   13.1044  H     
28   H        36.6320    1.1978   12.4364  H     
29   H        37.0212   -0.6738   11.0883  H     
30   H        39.1457    0.5936   13.5481  H     
31   H        36.3486    1.4715   15.4154  H     
32   H        39.4399   -2.2206   14.3955  H     
33   H        40.5136   -0.8890   14.5340  H     
34   H        40.0279   -1.9715   16.4879  H     
35   H        37.2628   -1.0055   16.7322  H     
36   H        37.7382   -2.6351   16.2415  H     
37   H        37.2664   -2.4357   18.6720  H     
38   H        38.9179   -2.9849   18.3448  H     
39   H        38.0398   -0.1249   19.0433  H     
40   H        40.4211    0.5154   18.9903  H     
41   H        40.8927   -1.1313   18.5390  H     
42   H        40.8282    0.2921   16.5389  H     
43   H        39.1637    0.7888   16.8902  H     
44   H        37.3869   -3.0283   13.7230  H     
45   H        33.5885   -3.6166   11.1708  H     
46   H        37.2015   -5.0836   14.8046  H     
47   H        36.5139   -6.2530   13.6739  H     
48   H        35.5089   -5.5615   14.9616  H     
@<TRIPOS>BOND
     1    1    2 1
     2    1    5 1
     3    1    7 1
     4    2    3 1
     5    3    4 1
     6    3    6 1
     7    4    5 1
     8    5    8 1
     9    6   18 1
    10    6   22 1
    11    8    9 1
    12    9   10 1
    13    9   14 1
    14   10   11 1
    15   11   12 1
    16   12   13 1
    17   12   15 1
    18   13   14 1
    19   15   16 1
    20   15   17 2
    21   18   19 2
    22   19   20 1
    23   19   25 1
    24   20   21 1
    25   20   24 2
    26   21   22 1
    27   22   23 2
    28    1   26 1
    29    2   27 1
    30    2   28 1
    31    3   29 1
    32    5   30 1
    33    7   31 1
    34    8   32 1
    35    8   33 1
    36    9   34 1
    37   10   35 1
    38   10   36 1
    39   11   37 1
    40   11   38 1
    41   12   39 1
    42   13   40 1
    43   13   41 1
    44   14   42 1
    45   14   43 1
    46   18   44 1
    47   21   45 1
    48   25   46 1
    49   25   47 1
    50   25   48 1
@<TRIPOS>PROPERTY_DATA
  Total_Score	| 4.1829
  Crash		| -1.3287
  Polar		| 2.6719
  FragIndex	| 1
  FragRMSD	| 1.191

