@<TRIPOS>MOLECULE
BindingDB_50292718
 41 43 0 0 0
SMALL
NO_CHARGES


@<TRIPOS>ATOM
1    C        35.4257   -4.0756   13.9251  C     
2    C        36.1704   -2.9528   13.8947  C     
3    N        36.0831   -2.0563   12.8584  N     
4    C        35.1902   -2.3201   11.8695  C     
5    N        34.4482   -3.4318   11.9068  N     
6    C        34.5534   -4.3140   12.9009  C     
7    O        33.8489   -5.3154   12.8997  O     
8    O        35.0017   -1.5877   10.9033  O     
9    C        36.9713   -0.8947   12.7830  C     
10   O        38.0236   -0.9161   13.7842  O     
11   C        38.1335    0.3802   14.3754  C     
12   C        36.7373    1.0342   14.2526  C     
13   C        36.2004    0.4540   12.9252  C     
14   O        36.4736    1.3309   11.8204  O     
15   O        36.8048    2.4610   14.2548  O     
16   C        38.5969    0.1980   15.8398  C     
17   N        39.0530   -1.1755   16.1964  N     
18   C        38.2958   -1.8932   17.2479  C     
19   C        39.2055   -3.0736   17.6613  C     
20   C        40.6413   -2.6098   17.3277  C     
21   C        40.4701   -1.2431   16.6463  C     
22   H        35.5166   -4.7347   14.6731  H     
23   H        36.7671   -2.7863   14.6685  H     
24   H        33.8089   -3.6020   11.1940  H     
25   H        37.4781   -0.9263   11.8147  H     
26   H        38.8713    0.9661   13.8073  H     
27   H        36.0913    0.7130   15.0785  H     
28   H        35.1097    0.3144   12.9986  H     
29   H        35.7583    1.9960   11.8588  H     
30   H        36.4219    2.7373   15.1124  H     
31   H        39.4394    0.8700   16.0276  H     
32   H        37.7858    0.5080   16.5044  H     
33   H        38.9881   -1.7480   15.3490  H     
34   H        38.0764   -1.2285   18.1022  H     
35   H        37.3556   -2.2789   16.8525  H     
36   H        39.0899   -3.3155   18.7308  H     
37   H        38.9550   -3.9644   17.0724  H     
38   H        41.2439   -2.5165   18.2366  H     
39   H        41.1274   -3.3215   16.6469  H     
40   H        41.1577   -1.1369   15.7912  H     
41   H        40.6918   -0.4418   17.3695  H     
@<TRIPOS>BOND
     1    1    2 2
     2    1    6 1
     3    2    3 1
     4    3    4 1
     5    9    3 1
     6    4    5 1
     7    4    8 2
     8    5    6 1
     9    6    7 2
    10    9   10 1
    11    9   13 1
    12   10   11 1
    13   11   12 1
    14   11   16 1
    15   12   13 1
    16   12   15 1
    17   13   14 1
    18   16   17 1
    19   17   18 1
    20   17   21 1
    21   18   19 1
    22   19   20 1
    23   20   21 1
    24    1   22 1
    25    2   23 1
    26    5   24 1
    27    9   25 1
    28   11   26 1
    29   12   27 1
    30   13   28 1
    31   14   29 1
    32   15   30 1
    33   16   31 1
    34   16   32 1
    35   17   33 1
    36   18   34 1
    37   18   35 1
    38   19   36 1
    39   19   37 1
    40   20   38 1
    41   20   39 1
    42   21   40 1
    43   21   41 1
@<TRIPOS>PROPERTY_DATA
  Total_Score	| 4.4945
  Crash		| -1.2883
  Polar		| 4.2061
  FragIndex	| 1
  FragRMSD	| 0.513

