@<TRIPOS>MOLECULE
BindingDB_50292723
 32 33 0 0 0
SMALL
NO_CHARGES


@<TRIPOS>ATOM
1    O        40.5479   -1.1813   14.9438  O     
2    C        39.2575   -0.7432   15.3610  C     
3    C        38.4462   -0.2013   14.1619  C     
4    C        37.0134    0.2222   14.5182  C     
5    O        36.9548    1.4318   15.2664  O     
6    C        36.3579    0.2420   13.1192  C     
7    O        36.6825    1.3591   12.2506  O     
8    C        37.0016   -1.0357   12.5060  C     
9    O        38.2926   -1.1967   13.1392  O     
10   N        36.1435   -2.2140   12.6292  N     
11   C        35.1563   -2.4552   11.7347  C     
12   O        34.9096   -1.7205   10.7854  O     
13   N        34.3953   -3.5442   11.8515  N     
14   C        34.5629   -4.4100   12.8485  C     
15   O        33.8513   -5.4026   12.9019  O     
16   C        35.5245   -4.1939   13.7858  C     
17   C        36.3029   -3.1018   13.6625  C     
18   P        36.5698    2.8097   12.7997  P     
19   O        35.3795    3.0282   13.7541  O     
20   O        37.8839    3.2530   13.4724  O     
21   O        36.3816    3.6664   11.6605  O     
22   H        41.0127   -0.3714   14.6441  H     
23   H        38.7406   -1.5896   15.8171  H     
24   H        39.3786    0.0383   16.1139  H     
25   H        38.9851    0.6526   13.7349  H     
26   H        36.5442   -0.5550   15.1289  H     
27   H        36.0810    1.4108   15.7122  H     
28   H        35.2709    0.1383   13.1911  H     
29   H        37.2279   -0.8776   11.4449  H     
30   H        33.7051   -3.7156   11.1905  H     
31   H        35.6558   -4.8276   14.5422  H     
32   H        36.9997   -2.9574   14.3550  H     
@<TRIPOS>BOND
     1    1    2 1
     2    3    2 1
     3    3    4 1
     4    3    9 1
     5    4    5 1
     6    4    6 1
     7    6    7 1
     8    6    8 1
     9    7   18 1
    10    8    9 1
    11    8   10 1
    12   10   11 1
    13   10   17 1
    14   11   12 2
    15   11   13 1
    16   13   14 1
    17   14   15 2
    18   14   16 1
    19   16   17 2
    20   18   19 1
    21   18   20 1
    22   18   21 2
    23    1   22 1
    24    2   23 1
    25    2   24 1
    26    3   25 1
    27    4   26 1
    28    5   27 1
    29    6   28 1
    30    8   29 1
    31   13   30 1
    32   16   31 1
    33   17   32 1
@<TRIPOS>PROPERTY_DATA
  Total_Score	| 2.7204
  Crash		| -1.8952
  Polar		| 4.6409
  FragIndex	| 1
  FragRMSD	| 0.560

