@<TRIPOS>MOLECULE
BindingDB_50292724
 32 33 0 0 0
SMALL
NO_CHARGES


@<TRIPOS>ATOM
1    C        35.3303   -4.3473   13.8496  C     
2    C        36.1743   -3.2976   13.8205  C     
3    N        36.1612   -2.3895   12.7919  N     
4    C        35.2390   -2.5600   11.8144  C     
5    N        34.4016   -3.5946   11.8510  N     
6    C        34.4356   -4.4843   12.8386  C     
7    O        33.6691   -5.4357   12.8137  O     
8    O        35.1217   -1.8032   10.8593  O     
9    C        37.1367   -1.3001   12.7386  C     
10   O        37.8644   -1.1227   13.9670  O     
11   C        38.2474    0.2431   14.1254  C     
12   C        37.3641    1.1178   13.1910  C     
13   C        36.5511    0.0900   12.3787  C     
14   O        35.1579    0.2037   12.6636  O     
15   O        38.1535    1.8900   12.2627  O     
16   C        38.1364    0.5866   15.6354  C     
17   O        37.2586   -0.3003   16.3340  O     
18   P        38.8975    3.1656   12.7528  P     
19   O        38.0570    4.3938   12.3632  O     
20   O        39.1977    3.2553   14.2599  O     
21   O        40.1376    3.2588   12.0244  O     
22   H        35.3808   -5.0132   14.5855  H     
23   H        36.8184   -3.2197   14.5719  H     
24   H        33.7550   -3.7074   11.1378  H     
25   H        37.8917   -1.5624   11.9875  H     
26   H        39.2968    0.3327   13.8221  H     
27   H        36.6777    1.7618   13.7560  H     
28   H        36.6568    0.2564   11.3003  H     
29   H        35.0894    0.1186   13.6366  H     
30   H        39.1236    0.5108   16.1067  H     
31   H        37.7786    1.6109   15.7733  H     
32   H        36.4072   -0.2936   15.8420  H     
@<TRIPOS>BOND
     1    1    2 2
     2    1    6 1
     3    2    3 1
     4    3    4 1
     5    9    3 1
     6    4    5 1
     7    4    8 2
     8    5    6 1
     9    6    7 2
    10    9   10 1
    11    9   13 1
    12   10   11 1
    13   11   12 1
    14   11   16 1
    15   12   13 1
    16   12   15 1
    17   13   14 1
    18   15   18 1
    19   16   17 1
    20   18   19 1
    21   18   20 1
    22   18   21 2
    23    1   22 1
    24    2   23 1
    25    5   24 1
    26    9   25 1
    27   11   26 1
    28   12   27 1
    29   13   28 1
    30   14   29 1
    31   16   30 1
    32   16   31 1
    33   17   32 1
@<TRIPOS>PROPERTY_DATA
  Total_Score	| 4.9489
  Crash		| -0.7826
  Polar		| 5.5270
  FragIndex	| 1
  FragRMSD	| 1.006

