@<TRIPOS>MOLECULE
BindingDB_50342006
 46 48 0 0 0
SMALL
NO_CHARGES


@<TRIPOS>ATOM
1    C        37.0768    0.9933   14.0774  C     
2    C        36.3992    0.2120   12.9374  C     
3    C        37.0949   -1.1770   12.9083  C     
4    O        38.0614   -1.1789   13.9821  O     
5    C        37.8695   -0.0710   14.8760  C     
6    N        36.1684   -2.3126   12.8886  N     
7    O        36.5091    0.9036   11.6871  O     
8    O        37.9493    2.0173   13.5932  O     
9    C        37.2182   -0.5168   16.2275  C     
10   N        38.1155   -1.0641   17.3032  N     
11   C        38.9762   -0.0300   17.9639  C     
12   C        39.7106   -0.6128   19.1991  C     
13   C        40.5594   -1.8549   18.8074  C     
14   C        39.6685   -2.9044   18.0880  C     
15   C        38.9007   -2.2733   16.8966  C     
16   C        41.2412   -2.4342   19.9878  C     
17   O        42.5883   -2.5357   20.0261  O     
18   O        40.5376   -2.8841   21.0525  O     
19   C        36.1976   -3.2641   13.8732  C     
20   C        35.3595   -4.3175   13.8777  C     
21   C        34.4754   -4.4404   12.8546  C     
22   N        34.4573   -3.5376   11.8781  N     
23   C        35.2838   -2.4906   11.8770  C     
24   O        35.1838   -1.7376   10.9172  O     
25   O        33.7100   -5.3917   12.8036  O     
26   H        36.3217    1.4926   14.6902  H     
27   H        35.3359    0.0983   13.1656  H     
28   H        37.7004   -1.2487   11.9991  H     
29   H        38.8597    0.3282   15.1005  H     
30   H        36.1515    0.2900   11.0149  H     
31   H        38.6123    1.5558   13.0354  H     
32   H        36.6790    0.3291   16.6613  H     
33   H        36.4548   -1.2655   16.0119  H     
34   H        37.4723   -1.3777   18.0414  H     
35   H        39.7191    0.3679   17.2666  H     
36   H        38.3582    0.8052   18.3072  H     
37   H        40.3586    0.1582   19.6273  H     
38   H        38.9666   -0.8878   19.9541  H     
39   H        41.3299   -1.5277   18.1008  H     
40   H        40.2892   -3.7259   17.7187  H     
41   H        38.9406   -3.3214   18.7911  H     
42   H        38.2227   -3.0356   16.5089  H     
43   H        39.6152   -2.0201   16.1085  H     
44   H        36.8590   -3.2162   14.6061  H     
45   H        35.4069   -5.0005   14.6002  H     
46   H        33.8298   -3.6503   11.1460  H     
@<TRIPOS>BOND
     1    1    2 1
     2    1    5 1
     3    1    8 1
     4    2    3 1
     5    2    7 1
     6    3    4 1
     7    3    6 1
     8    4    5 1
     9    5    9 1
    10    6   19 1
    11    6   23 1
    12    9   10 1
    13   10   11 1
    14   10   15 1
    15   11   12 1
    16   12   13 1
    17   13   14 1
    18   13   16 1
    19   14   15 1
    20   16   17 1
    21   16   18 2
    22   19   20 2
    23   20   21 1
    24   21   22 1
    25   21   25 2
    26   22   23 1
    27   23   24 2
    28    1   26 1
    29    2   27 1
    30    3   28 1
    31    5   29 1
    32    7   30 1
    33    8   31 1
    34    9   32 1
    35    9   33 1
    36   10   34 1
    37   11   35 1
    38   11   36 1
    39   12   37 1
    40   12   38 1
    41   13   39 1
    42   14   40 1
    43   14   41 1
    44   15   42 1
    45   15   43 1
    46   19   44 1
    47   20   45 1
    48   22   46 1
@<TRIPOS>PROPERTY_DATA
  Total_Score	| 5.2200
  Crash		| -0.6898
  Polar		| 4.2260
  FragIndex	| 1
  FragRMSD	| 1.139

