@<TRIPOS>MOLECULE
BindingDB_50342008
 48 50 0 0 0
SMALL
NO_CHARGES


@<TRIPOS>ATOM
1    C        37.1936    1.0798   13.4516  C     
2    C        36.4454    0.1816   12.4334  C     
3    C        37.0789   -1.2235   12.5892  C     
4    O        37.8487   -1.1302   13.8126  O     
5    C        38.3755    0.1980   13.9206  C     
6    N        36.1745   -2.3647   12.5600  N     
7    O        36.3261    1.4889   14.5227  O     
8    C        39.0097    0.5173   15.3167  C     
9    N        39.2843   -0.7089   16.1514  N     
10   C        40.5650   -0.6561   16.9272  C     
11   C        40.8584   -2.0165   17.6180  C     
12   C        39.6944   -2.4853   18.5428  C     
13   C        38.3390   -2.4041   17.7824  C     
14   C        38.1234   -1.0638   17.0349  C     
15   C        39.7150   -1.7828   19.8509  C     
16   O        40.2607   -2.3813   20.9344  O     
17   O        39.1017   -0.5926   20.0415  O     
18   C        36.4019   -3.4609   13.3563  C     
19   C        35.5821   -4.5400   13.3788  C     
20   C        34.4867   -4.5021   12.5572  C     
21   N        34.3183   -3.4842   11.7193  N     
22   C        35.1469   -2.4413   11.6945  C     
23   O        34.9045   -1.5738   10.8672  O     
24   O        33.6434   -5.3869   12.5417  O     
25   C        35.9153   -5.6886   14.2165  C     
26   H        37.5827    1.9983   12.9775  H     
27   H        35.3817    0.1768   12.6284  H     
28   H        36.6172    0.5641   11.4243  H     
29   H        37.7994   -1.3707   11.7706  H     
30   H        39.1724    0.2779   13.1772  H     
31   H        35.7475    0.7030   14.7001  H     
32   H        39.9457    1.0503   15.1201  H     
33   H        38.3959    1.2200   15.8788  H     
34   H        39.4009   -1.4846   15.4921  H     
35   H        41.3966   -0.4450   16.2536  H     
36   H        40.5283    0.1429   17.6762  H     
37   H        41.0099   -2.7675   16.8394  H     
38   H        41.7954   -1.9465   18.1854  H     
39   H        39.8623   -3.5421   18.7682  H     
40   H        38.3101   -3.2121   17.0362  H     
41   H        37.5103   -2.5706   18.4690  H     
42   H        37.9444   -0.2702   17.7571  H     
43   H        37.2143   -1.1669   16.4312  H     
44   H        37.2270   -3.5016   13.9184  H     
45   H        33.5595   -3.5017   11.1087  H     
46   H        36.8839   -6.1010   13.9235  H     
47   H        35.1805   -6.4942   14.1665  H     
48   H        35.9763   -5.3605   15.2549  H     
@<TRIPOS>BOND
     1    1    2 1
     2    1    5 1
     3    1    7 1
     4    2    3 1
     5    3    4 1
     6    3    6 1
     7    4    5 1
     8    5    8 1
     9    6   18 1
    10    6   22 1
    11    8    9 1
    12    9   10 1
    13    9   14 1
    14   10   11 1
    15   11   12 1
    16   12   13 1
    17   12   15 1
    18   13   14 1
    19   15   16 1
    20   15   17 2
    21   18   19 2
    22   19   20 1
    23   19   25 1
    24   20   21 1
    25   20   24 2
    26   21   22 1
    27   22   23 2
    28    1   26 1
    29    2   27 1
    30    2   28 1
    31    3   29 1
    32    5   30 1
    33    7   31 1
    34    8   32 1
    35    8   33 1
    36    9   34 1
    37   10   35 1
    38   10   36 1
    39   11   37 1
    40   11   38 1
    41   12   39 1
    42   13   40 1
    43   13   41 1
    44   14   42 1
    45   14   43 1
    46   18   44 1
    47   21   45 1
    48   25   46 1
    49   25   47 1
    50   25   48 1
@<TRIPOS>PROPERTY_DATA
  Total_Score	| 3.4208
  Crash		| -1.5494
  Polar		| 2.8187
  FragIndex	| 1
  FragRMSD	| 0.644

