@<TRIPOS>MOLECULE
BindingDB_50292717
 46 48 0 0 0
SMALL
NO_CHARGES


@<TRIPOS>ATOM
1    C        35.7826   -4.4498   13.3806  C     
2    C        36.5300   -3.3220   13.4137  C     
3    N        36.2688   -2.2463   12.6085  N     
4    C        35.2168   -2.3293   11.7617  C     
5    N        34.4454   -3.4130   11.7544  N     
6    C        34.6891   -4.4503   12.5474  C     
7    O        33.9037   -5.3882   12.5057  O     
8    O        34.9121   -1.4437   10.9729  O     
9    C        37.0966   -1.0446   12.6572  C     
10   O        37.9829   -0.9453   13.7937  O     
11   C        38.1943    0.4437   14.0722  C     
12   C        36.8082    1.0806   13.8440  C     
13   C        36.2591    0.2634   12.6617  C     
14   O        36.8777    2.4736   13.5419  O     
15   C        38.8552    0.7221   15.4620  C     
16   N        39.1395   -0.3989   16.4212  N     
17   C        40.2767   -1.2942   16.0329  C     
18   C        40.6876   -2.2070   17.2191  C     
19   C        39.4776   -3.0255   17.7370  C     
20   C        38.2755   -2.1017   18.0591  C     
21   C        37.9385   -1.1696   16.8654  C     
22   C        36.1404   -5.6368   14.1468  C     
23   H        37.3060   -3.2944   14.0336  H     
24   H        33.6798   -3.4494   11.1576  H     
25   H        37.7496   -1.0487   11.7750  H     
26   H        38.8729    0.8400   13.3040  H     
27   H        36.1600    0.9484   14.7151  H     
28   H        36.3907    0.7990   11.7148  H     
29   H        35.1925    0.0707   12.8016  H     
30   H        37.1518    2.9087   14.3765  H     
31   H        39.8008    1.2405   15.2759  H     
32   H        38.2364    1.4530   15.9918  H     
33   H        39.4702    0.0746   17.2655  H     
34   H        40.0088   -1.9196   15.1773  H     
35   H        41.1483   -0.6979   15.7507  H     
36   H        41.4787   -2.8918   16.8989  H     
37   H        41.0821   -1.5884   18.0308  H     
38   H        39.1779   -3.7531   16.9774  H     
39   H        39.7642   -3.5768   18.6375  H     
40   H        37.4020   -2.7127   18.3027  H     
41   H        38.5156   -1.4930   18.9363  H     
42   H        37.1670   -0.4771   17.1993  H     
43   H        37.5359   -1.7701   16.0443  H     
44   H        37.0346   -5.4956   14.7581  H     
45   H        36.3351   -6.4650   13.4625  H     
46   H        35.3147   -5.9140   14.8035  H     
@<TRIPOS>BOND
     1    1    2 2
     2    1    6 1
     3    1   22 1
     4    2    3 1
     5    3    4 1
     6    9    3 1
     7    4    5 1
     8    4    8 2
     9    5    6 1
    10    6    7 2
    11    9   10 1
    12    9   13 1
    13   10   11 1
    14   11   12 1
    15   11   15 1
    16   12   13 1
    17   12   14 1
    18   15   16 1
    19   16   17 1
    20   16   21 1
    21   17   18 1
    22   18   19 1
    23   19   20 1
    24   20   21 1
    25    2   23 1
    26    5   24 1
    27    9   25 1
    28   11   26 1
    29   12   27 1
    30   13   28 1
    31   13   29 1
    32   14   30 1
    33   15   31 1
    34   15   32 1
    35   16   33 1
    36   17   34 1
    37   17   35 1
    38   18   36 1
    39   18   37 1
    40   19   38 1
    41   19   39 1
    42   20   40 1
    43   20   41 1
    44   21   42 1
    45   21   43 1
    46   22   44 1
    47   22   45 1
    48   22   46 1
@<TRIPOS>PROPERTY_DATA
  Total_Score	| 3.2741
  Crash		| -0.8096
  Polar		| 1.8202
  FragIndex	| 1
  FragRMSD	| 0.781

