@<TRIPOS>MOLECULE
BindingDB_50292715
 53 55 0 0 0
SMALL
NO_CHARGES


@<TRIPOS>ATOM
1    C        35.5091   -4.1762   13.8249  C     
2    C        36.3134   -3.1042   13.6922  C     
3    N        36.1408   -2.1882   12.6838  N     
4    C        35.1343   -2.4066   11.8059  C     
5    N        34.3508   -3.4778   11.9287  N     
6    C        34.5189   -4.3533   12.9163  C     
7    O        33.7951   -5.3373   12.9700  O     
8    O        34.8986   -1.6705   10.8529  O     
9    C        37.0382   -1.0428   12.5313  C     
10   O        38.2381   -1.1232   13.3364  O     
11   C        38.6235    0.1978   13.7246  C     
12   C        37.2985    0.9407   13.9542  C     
13   C        36.3880    0.3320   12.8681  C     
14   O        36.3447    1.1688   11.7110  O     
15   O        37.4863    2.3517   13.8460  O     
16   C        39.6016    0.1985   14.9355  C     
17   N        39.5486   -0.9703   15.8861  N     
18   C        38.2298   -1.1457   16.5772  C     
19   C        38.2196   -2.3625   17.5428  C     
20   C        39.4069   -2.3666   18.5518  C     
21   C        40.7457   -2.1382   17.7979  C     
22   C        40.6965   -0.9105   16.8514  C     
23   C        39.2275   -1.4183   19.6780  C     
24   O        38.7982   -0.1484   19.4551  O     
25   O        39.5324   -1.8313   20.9379  O     
26   C        38.4954    0.8666   20.4152  C     
27   C        37.1826    0.5604   21.1708  C     
28   H        35.6598   -4.8304   14.5572  H     
29   H        37.0568   -3.0116   14.3425  H     
30   H        33.6536   -3.6353   11.2749  H     
31   H        37.3897   -1.0357   11.4949  H     
32   H        39.1280    0.6573   12.8702  H     
33   H        36.8883    0.7230   14.9441  H     
34   H        35.3669    0.2207   13.2423  H     
35   H        35.7029    1.8791   11.9297  H     
36   H        36.8439    2.7551   14.4757  H     
37   H        40.6065    0.2265   14.4972  H     
38   H        39.4816    1.1279   15.4941  H     
39   H        39.6899   -1.8134   15.3166  H     
40   H        37.9545   -0.2372   17.1117  H     
41   H        37.4490   -1.3334   15.8376  H     
42   H        37.2702   -2.3916   18.0860  H     
43   H        38.2800   -3.2719   16.9358  H     
44   H        39.4490   -3.3715   18.9845  H     
45   H        41.5651   -2.0202   18.5118  H     
46   H        40.9670   -3.0318   17.1982  H     
47   H        41.6414   -0.9007   16.3038  H     
48   H        40.6490    0.0028   17.4439  H     
49   H        39.3244    0.9792   21.1180  H     
50   H        38.3747    1.8192   19.8797  H     
51   H        36.3451    0.5510   20.4691  H     
52   H        36.9962    1.3292   21.9289  H     
53   H        37.2460   -0.4088   21.6658  H     
@<TRIPOS>BOND
     1    1    2 2
     2    1    6 1
     3    2    3 1
     4    3    4 1
     5    9    3 1
     6    4    5 1
     7    4    8 2
     8    5    6 1
     9    6    7 2
    10    9   10 1
    11    9   13 1
    12   10   11 1
    13   11   12 1
    14   11   16 1
    15   12   13 1
    16   12   15 1
    17   13   14 1
    18   16   17 1
    19   17   18 1
    20   17   22 1
    21   18   19 1
    22   19   20 1
    23   20   21 1
    24   20   23 1
    25   21   22 1
    26   23   24 1
    27   23   25 2
    28   24   26 1
    29   26   27 1
    30    1   28 1
    31    2   29 1
    32    5   30 1
    33    9   31 1
    34   11   32 1
    35   12   33 1
    36   13   34 1
    37   14   35 1
    38   15   36 1
    39   16   37 1
    40   16   38 1
    41   17   39 1
    42   18   40 1
    43   18   41 1
    44   19   42 1
    45   19   43 1
    46   20   44 1
    47   21   45 1
    48   21   46 1
    49   22   47 1
    50   22   48 1
    51   26   49 1
    52   26   50 1
    53   27   51 1
    54   27   52 1
    55   27   53 1
@<TRIPOS>PROPERTY_DATA
  Total_Score	| 6.0014
  Crash		| -1.1707
  Polar		| 4.0138
  FragIndex	| 1
  FragRMSD	| 0.782

