@<TRIPOS>MOLECULE
BindingDB_29770
 87 90 0 0 0
SMALL
NO_CHARGES


@<TRIPOS>ATOM
1    C        31.2063   -0.5097   36.3044  C     
2    C        31.2978   -1.6654   37.1094  C     
3    C        30.6339   -2.8413   36.6850  C     
4    C        29.8480   -2.8693   35.5156  C     
5    C        29.7651   -1.6811   34.7435  C     
6    C        30.4412   -0.4901   35.1169  C     
7    C        30.3443    0.6704   34.3572  C     
8    N        29.1857   -4.0207   35.2120  N     
9    C        27.9018   -4.1645   34.5844  C     
10   C        27.9776   -4.3042   33.0481  C     
11   N        32.0253   -1.6327   38.2679  N     
12   C        32.0070   -0.6647   40.9051  C     
13   C        33.5440   -0.6357   40.7246  C     
14   C        33.9672   -0.3821   39.2530  C     
15   C        33.4583   -1.4799   38.2793  C     
16   S        31.2494   -1.8253   39.7578  S     
17   O        29.7048   -1.4414   39.6972  O     
18   O        31.4022   -3.2943   40.3397  O     
19   O        31.2944    1.4445   34.3059  O     
20   N        29.2140    0.9696   33.7182  N     
21   C        28.9536    2.1314   32.9074  C     
22   C        28.1751    3.1399   33.8116  C     
23   C        28.2610    1.7116   31.5682  C     
24   C        28.8859    0.5210   30.9111  C     
25   C        30.8971   -0.7567   30.3223  C     
26   C        30.2980    0.4174   30.8082  C     
27   C        28.0995   -0.5677   30.4541  C     
28   C        28.7026   -1.7224   29.9291  C     
29   C        30.1017   -1.8282   29.8780  C     
30   C        28.0087    4.5732   33.2148  C     
31   N        27.6284    5.6055   34.2400  N     
32   O        26.9265    2.5900   34.2315  O     
33   C        28.6844    6.4471   34.9014  C     
34   C        29.4584    7.3617   33.9676  C     
35   C        29.0579    7.5848   32.6203  C     
36   C        30.6165    8.0574   34.4082  C     
37   C        31.3730    8.8584   33.5381  C     
38   C        30.9738    9.0171   32.2046  C     
39   C        29.8048    8.3912   31.7243  C     
40   C        29.3304    8.5484   30.3174  C     
41   F        30.1249    9.3627   29.5370  F     
42   F        29.2906    7.3201   29.7005  F     
43   F        28.0637    9.0897   30.2978  F     
44   C        27.9001    7.3445   35.9116  C     
45   C        29.6077    5.4981   35.7322  C     
46   H        31.6920    0.3399   36.6161  H     
47   H        30.6975   -3.6805   37.2682  H     
48   H        29.2170   -1.6907   33.8824  H     
49   H        29.5882   -4.8451   35.5304  H     
50   H        27.4370   -5.0762   34.9731  H     
51   H        27.2469   -3.3297   34.8555  H     
52   H        28.4186   -3.4194   32.5969  H     
53   H        26.9695   -4.4373   32.6471  H     
54   H        28.5761   -5.1781   32.7850  H     
55   H        31.7482   -0.9623   41.9228  H     
56   H        31.5953    0.3342   40.7235  H     
57   H        33.9474    0.1617   41.3540  H     
58   H        33.9671   -1.5807   41.0721  H     
59   H        33.5904    0.5912   38.9284  H     
60   H        35.0608   -0.3503   39.2076  H     
61   H        33.9029   -2.4414   38.5625  H     
62   H        33.8353   -1.2351   37.2825  H     
63   H        28.4561    0.3871   33.8583  H     
64   H        29.9038    2.6200   32.6364  H     
65   H        28.7676    3.2536   34.7250  H     
66   H        27.2030    1.5202   31.7733  H     
67   H        28.3098    2.5516   30.8697  H     
68   H        31.9142   -0.8361   30.2943  H     
69   H        30.9004    1.1807   31.1211  H     
70   H        27.0759   -0.5188   30.5039  H     
71   H        28.1264   -2.5028   29.6121  H     
72   H        30.5371   -2.6857   29.5271  H     
73   H        28.9370    4.8664   32.7093  H     
74   H        27.2193    4.5423   32.4505  H     
75   H        26.9682    6.2520   33.8027  H     
76   H        27.1189    5.1210   34.9773  H     
77   H        26.2543    2.8913   33.5572  H     
78   H        28.1984    7.1531   32.2725  H     
79   H        30.9257    7.9883   35.3741  H     
80   H        32.2147    9.3271   33.8737  H     
81   H        31.5474    9.5955   31.5867  H     
82   H        27.1571    7.9578   35.3982  H     
83   H        28.5670    8.0118   36.4704  H     
84   H        27.3696    6.7229   36.6356  H     
85   H        28.9956    4.7586   36.2685  H     
86   H        30.2078    6.0428   36.4764  H     
87   H        30.2939    4.9605   35.0658  H     
@<TRIPOS>BOND
     1    1    2 1
     2    1    6 2
     3    2    3 2
     4    2   11 1
     5    3    4 1
     6    4    5 2
     7    4    8 1
     8    5    6 1
     9    6    7 1
    10    7   19 2
    11    7   20 am
    12    8    9 1
    13    9   10 1
    14   11   15 1
    15   11   16 1
    16   12   13 1
    17   12   16 1
    18   13   14 1
    19   14   15 1
    20   16   17 2
    21   16   18 2
    22   20   21 1
    23   21   22 1
    24   21   23 1
    25   22   30 1
    26   22   32 1
    27   23   24 1
    28   24   26 1
    29   24   27 2
    30   25   26 2
    31   25   29 1
    32   27   28 1
    33   28   29 2
    34   30   31 1
    35   31   33 1
    36   33   34 1
    37   33   44 1
    38   33   45 1
    39   34   35 1
    40   34   36 2
    41   35   39 2
    42   36   37 1
    43   37   38 2
    44   38   39 1
    45   39   40 1
    46   40   41 1
    47   40   42 1
    48   40   43 1
    49    1   46 1
    50    3   47 1
    51    5   48 1
    52    8   49 1
    53    9   50 1
    54    9   51 1
    55   10   52 1
    56   10   53 1
    57   10   54 1
    58   12   55 1
    59   12   56 1
    60   13   57 1
    61   13   58 1
    62   14   59 1
    63   14   60 1
    64   15   61 1
    65   15   62 1
    66   20   63 1
    67   21   64 1
    68   22   65 1
    69   23   66 1
    70   23   67 1
    71   25   68 1
    72   26   69 1
    73   27   70 1
    74   28   71 1
    75   29   72 1
    76   30   73 1
    77   30   74 1
    78   31   75 1
    79   31   76 1
    80   32   77 1
    81   35   78 1
    82   36   79 1
    83   37   80 1
    84   38   81 1
    85   44   82 1
    86   44   83 1
    87   44   84 1
    88   45   85 1
    89   45   86 1
    90   45   87 1
@<TRIPOS>PROPERTY_DATA
  Total_Score	| 15.2929
  Crash		| -3.3010
  Polar		| 6.7902
  FragIndex	| 1
  FragRMSD	| 1.269

