@<TRIPOS>MOLECULE
BindingDB_29759
 84 87 0 0 0
SMALL
NO_CHARGES


@<TRIPOS>ATOM
1    C        31.2365   -0.5976   36.3433  C     
2    C        31.3697   -1.7653   37.1253  C     
3    C        30.7183   -2.9705   36.7320  C     
4    C        29.8616   -2.9557   35.5885  C     
5    C        29.7468   -1.7578   34.8428  C     
6    C        30.4231   -0.5678   35.1929  C     
7    C        30.3159    0.5927   34.4226  C     
8    N        29.1279   -4.0632   35.2623  N     
9    C        27.8173   -4.1511   34.6801  C     
10   C        27.8599   -4.3114   33.1492  C     
11   N        32.1058   -1.6658   38.2840  N     
12   C        31.8330   -0.0446   40.5355  C     
13   C        33.3732    0.0867   40.4334  C     
14   C        33.8873   -0.0301   38.9729  C     
15   C        33.5196   -1.3833   38.2965  C     
16   S        31.3089   -1.5960   39.7792  S     
17   O        29.7223   -1.5595   39.6499  O     
18   O        31.7292   -2.8270   40.6985  O     
19   O        31.2822    1.3477   34.3446  O     
20   N        29.1861    0.8994   33.7879  N     
21   C        28.9402    2.0414   32.9393  C     
22   C        28.0891    3.0636   33.7609  C     
23   C        28.3146    1.5893   31.5758  C     
24   C        28.9454    0.3630   30.9928  C     
25   C        28.7730   -1.9071   30.0794  C     
26   C        28.1607   -0.7342   30.5623  C     
27   C        30.3546    0.2682   30.8847  C     
28   C        30.9653   -0.9134   30.4233  C     
29   C        30.1761   -2.0015   30.0212  C     
30   C        28.0555    4.5131   33.1945  C     
31   N        27.8796    5.5301   34.2698  N     
32   O        26.7616    2.5738   33.9148  O     
33   C        29.1487    6.1431   34.7597  C     
34   C        29.9581    6.9374   33.7895  C     
35   C        29.4217    7.5502   32.6325  C     
36   C        31.3380    7.1052   34.0641  C     
37   C        32.1512    7.8657   33.2011  C     
38   C        31.6062    8.4700   32.0574  C     
39   C        30.2297    8.3175   31.7500  C     
40   C        29.6192    8.9324   30.5393  C     
41   F        30.4729    9.7317   29.8086  F     
42   F        29.1646    7.9399   29.6960  F     
43   F        28.5487    9.7273   30.8921  F     
44   C        30.9883   -4.2132   37.5236  C     
45   H        31.6980    0.2640   36.6544  H     
46   H        29.1707   -1.7539   34.0013  H     
47   H        29.4825   -4.9147   35.5481  H     
48   H        27.3336   -5.0422   35.0892  H     
49   H        27.1907   -3.3000   34.9706  H     
50   H        28.3617   -3.4612   32.6890  H     
51   H        26.8439   -4.3845   32.7557  H     
52   H        28.4037   -5.2200   32.8981  H     
53   H        31.5148   -0.0069   41.5793  H     
54   H        31.3686    0.7816   39.9934  H     
55   H        33.6708    1.0599   40.8325  H     
56   H        33.8449   -0.6885   41.0432  H     
57   H        33.4786    0.7914   38.3777  H     
58   H        34.9758    0.0704   38.9696  H     
59   H        34.0352   -2.1977   38.8208  H     
60   H        33.9078   -1.3611   37.2764  H     
61   H        28.4275    0.3178   33.9373  H     
62   H        29.8903    2.5394   32.7040  H     
63   H        28.5300    3.0947   34.7594  H     
64   H        27.2392    1.4306   31.7058  H     
65   H        28.4258    2.4002   30.8499  H     
66   H        28.2011   -2.6961   29.7706  H     
67   H        27.1406   -0.7036   30.6231  H     
68   H        30.9527    1.0489   31.1680  H     
69   H        31.9861   -0.9817   30.3902  H     
70   H        30.6170   -2.8589   29.6799  H     
71   H        28.9484    4.7355   32.5990  H     
72   H        27.2088    4.6175   32.5011  H     
73   H        27.2546    6.2790   33.9466  H     
74   H        27.4192    5.0709   35.0646  H     
75   H        26.3049    3.1978   34.5201  H     
76   H        28.8771    6.8019   35.5921  H     
77   H        29.7948    5.3584   35.1880  H     
78   H        28.4248    7.4532   32.4222  H     
79   H        31.7615    6.6818   34.8892  H     
80   H        33.1473    7.9876   33.4083  H     
81   H        32.2218    9.0095   31.4405  H     
82   H        32.0554   -4.2996   37.7566  H     
83   H        30.7044   -5.1289   37.0008  H     
84   H        30.4348   -4.1684   38.4612  H     
@<TRIPOS>BOND
     1    1    2 1
     2    1    6 2
     3    2    3 2
     4    2   11 1
     5    3    4 1
     6    3   44 1
     7    4    5 2
     8    4    8 1
     9    5    6 1
    10    6    7 1
    11    7   19 2
    12    7   20 am
    13    8    9 1
    14    9   10 1
    15   11   15 1
    16   11   16 1
    17   12   13 1
    18   12   16 1
    19   13   14 1
    20   14   15 1
    21   16   17 2
    22   16   18 2
    23   20   21 1
    24   21   22 1
    25   21   23 1
    26   22   30 1
    27   22   32 1
    28   23   24 1
    29   24   26 1
    30   24   27 2
    31   25   26 2
    32   25   29 1
    33   27   28 1
    34   28   29 2
    35   30   31 1
    36   31   33 1
    37   33   34 1
    38   34   35 1
    39   34   36 2
    40   35   39 2
    41   36   37 1
    42   37   38 2
    43   38   39 1
    44   39   40 1
    45   40   41 1
    46   40   42 1
    47   40   43 1
    48    1   45 1
    49    5   46 1
    50    8   47 1
    51    9   48 1
    52    9   49 1
    53   10   50 1
    54   10   51 1
    55   10   52 1
    56   12   53 1
    57   12   54 1
    58   13   55 1
    59   13   56 1
    60   14   57 1
    61   14   58 1
    62   15   59 1
    63   15   60 1
    64   20   61 1
    65   21   62 1
    66   22   63 1
    67   23   64 1
    68   23   65 1
    69   25   66 1
    70   26   67 1
    71   27   68 1
    72   28   69 1
    73   29   70 1
    74   30   71 1
    75   30   72 1
    76   31   73 1
    77   31   74 1
    78   32   75 1
    79   33   76 1
    80   33   77 1
    81   35   78 1
    82   36   79 1
    83   37   80 1
    84   38   81 1
    85   44   82 1
    86   44   83 1
    87   44   84 1
@<TRIPOS>PROPERTY_DATA
  Total_Score	| 16.4489
  Crash		| -2.5244
  Polar		| 7.7578
  FragIndex	| 1
  FragRMSD	| 1.081

