@<TRIPOS>MOLECULE
BindingDB_26511
 72 75 0 0 0
SMALL
NO_CHARGES


@<TRIPOS>ATOM
1    C        31.2266   -0.3569   36.2701  C     
2    C        31.3589   -1.5096   37.0768  C     
3    C        30.7200   -2.7002   36.6688  C     
4    C        29.9037   -2.7451   35.5174  C     
5    C        29.7812   -1.5698   34.7432  C     
6    C        30.4334   -0.3595   35.0944  C     
7    C        30.3064    0.7797   34.2907  C     
8    O        31.2431    1.5697   34.2308  O     
9    N        29.1992    1.0151   33.5827  N     
10   C        29.0083    2.0044   32.5509  C     
11   C        28.3054    1.3541   31.3105  C     
12   C        28.8267    0.0086   30.9235  C     
13   C        28.4996   -2.4096   30.6435  C     
14   C        27.9912   -1.1352   30.9582  C     
15   C        30.1762   -0.1583   30.5177  C     
16   C        30.6832   -1.4365   30.2070  C     
17   C        29.8433   -2.5608   30.2676  C     
18   C        28.2229    3.2426   33.1100  C     
19   C        29.0318    4.0490   34.1650  C     
20   O        27.8997    4.1532   32.0520  O     
21   N        28.3556    5.3141   34.5311  N     
22   N        29.2681   -3.9233   35.2797  N     
23   C        29.1222   -4.6375   34.0437  C     
24   C        27.6531   -4.5838   33.5783  C     
25   C        31.7441   -0.6176   40.9358  C     
26   C        33.2728   -0.4027   40.8440  C     
27   C        33.7385   -0.0384   39.4057  C     
28   C        33.4389   -1.1579   38.3711  C     
29   N        32.0375   -1.4695   38.2703  N     
30   S        31.2154   -1.8218   39.7071  S     
31   O        31.4897   -3.3063   40.2123  O     
32   O        29.6501   -1.5872   39.5741  O     
33   C        29.2731    6.3590   35.0287  C     
34   C        28.5566    7.5492   35.6890  C     
35   C        29.4203    6.6083   36.5372  C     
36   H        31.6757    0.5101   36.5804  H     
37   H        30.8250   -3.5455   37.2413  H     
38   H        29.2534   -1.5994   33.8751  H     
39   H        28.4508    0.4183   33.7360  H     
40   H        29.9739    2.3709   32.1985  H     
41   H        27.2319    1.2997   31.5137  H     
42   H        28.4289    2.0140   30.4455  H     
43   H        27.8871   -3.2263   30.6858  H     
44   H        27.0064   -1.0490   31.2286  H     
45   H        30.8041    0.6470   30.4669  H     
46   H        31.6609   -1.5454   29.9302  H     
47   H        30.2117   -3.4885   30.0473  H     
48   H        27.2832    2.9074   33.5673  H     
49   H        29.1566    3.4471   35.0690  H     
50   H        30.0216    4.2681   33.7542  H     
51   H        27.0576    3.8343   31.6636  H     
52   H        27.8801    5.6900   33.7084  H     
53   H        27.6531    5.1144   35.2462  H     
54   H        28.7411   -4.2773   36.0125  H     
55   H        29.7516   -4.2563   33.2328  H     
56   H        29.3984   -5.6774   34.2151  H     
57   H        27.0127   -5.1260   34.2767  H     
58   H        27.5590   -5.0439   32.5976  H     
59   H        27.3086   -3.5481   33.5043  H     
60   H        31.4624   -0.9744   41.9243  H     
61   H        31.2296    0.3242   40.7485  H     
62   H        33.5518    0.4050   41.5236  H     
63   H        33.7858   -1.3073   41.1742  H     
64   H        33.2455    0.8881   39.0860  H     
65   H        34.8157    0.1507   39.4230  H     
66   H        33.8496   -0.8507   37.4072  H     
67   H        33.9727   -2.0642   38.6674  H     
68   H        30.1118    6.6715   34.3995  H     
69   H        28.9872    8.5351   35.4980  H     
70   H        27.4795    7.4597   35.8496  H     
71   H        28.8786    5.9259   37.1946  H     
72   H        30.3791    7.0166   36.8620  H     
@<TRIPOS>BOND
     1    1    2 2
     2    1    6 1
     3    2    3 1
     4    2   29 1
     5    3    4 2
     6    4    5 1
     7    4   22 1
     8    5    6 2
     9    6    7 1
    10    7    8 2
    11    7    9 am
    12    9   10 1
    13   10   11 1
    14   10   18 1
    15   11   12 1
    16   12   14 2
    17   12   15 1
    18   13   14 1
    19   13   17 2
    20   15   16 2
    21   16   17 1
    22   18   19 1
    23   18   20 1
    24   19   21 1
    25   21   33 1
    26   22   23 1
    27   23   24 1
    28   25   26 1
    29   25   30 1
    30   26   27 1
    31   27   28 1
    32   28   29 1
    33   29   30 1
    34   30   31 2
    35   30   32 2
    36   33   34 1
    37   33   35 1
    38   34   35 1
    39    1   36 1
    40    3   37 1
    41    5   38 1
    42    9   39 1
    43   10   40 1
    44   11   41 1
    45   11   42 1
    46   13   43 1
    47   14   44 1
    48   15   45 1
    49   16   46 1
    50   17   47 1
    51   18   48 1
    52   19   49 1
    53   19   50 1
    54   20   51 1
    55   21   52 1
    56   21   53 1
    57   22   54 1
    58   23   55 1
    59   23   56 1
    60   24   57 1
    61   24   58 1
    62   24   59 1
    63   25   60 1
    64   25   61 1
    65   26   62 1
    66   26   63 1
    67   27   64 1
    68   27   65 1
    69   28   66 1
    70   28   67 1
    71   33   68 1
    72   34   69 1
    73   34   70 1
    74   35   71 1
    75   35   72 1
@<TRIPOS>PROPERTY_DATA
  Total_Score	| 15.2360
  Crash		| -1.8599
  Polar		| 6.7519
  FragIndex	| 1
  FragRMSD	| 0.977

