@<TRIPOS>MOLECULE
BindingDB_26507
 92 94 0 0 0
SMALL
NO_CHARGES


@<TRIPOS>ATOM
1    C        31.0201   -0.3493   36.1419  C     
2    C        31.0333   -1.4357   37.0430  C     
3    C        30.2798   -2.5953   36.7263  C     
4    C        29.5966   -2.7036   35.4994  C     
5    C        29.5883   -1.5903   34.6301  C     
6    C        30.2671   -0.3858   34.9414  C     
7    C        30.2362    0.6980   34.0602  C     
8    O        31.1848    1.4748   34.0292  O     
9    N        29.1737    0.9131   33.2881  N     
10   C        29.0368    1.8769   32.2248  C     
11   C        28.4577    1.1739   30.9505  C     
12   C        29.0056   -0.1882   30.6760  C     
13   C        28.7048   -2.6184   30.5337  C     
14   C        28.1694   -1.3316   30.7238  C     
15   C        30.3838   -0.3729   30.4090  C     
16   C        30.9205   -1.6607   30.2288  C     
17   C        30.0776   -2.7866   30.2815  C     
18   C        28.1358    3.0681   32.6803  C     
19   C        28.7444    3.8534   33.8989  C     
20   O        27.9805    3.9908   31.6061  O     
21   N        27.9120    5.0229   34.2685  N     
22   N        29.0202   -3.9021   35.1977  N     
23   C        29.2010   -4.6719   34.0030  C     
24   C        27.9585   -4.6857   33.0836  C     
25   C        32.0000   -0.4585   40.7731  C     
26   C        33.5236   -0.4561   40.5037  C     
27   C        33.8724   -0.2364   39.0050  C     
28   C        33.2670   -1.3167   38.0689  C     
29   N        31.8318   -1.4089   38.1564  N     
30   S        31.1941   -1.6618   39.7000  S     
31   O        31.4752   -3.1417   40.2100  O     
32   O        29.6354   -1.3598   39.7674  O     
33   C        29.6230    5.7249   36.0370  C     
34   C        29.4197    5.9813   37.5817  C     
35   C        30.3314    7.0969   38.1721  C     
36   C        30.3391    8.4260   37.3439  C     
37   C        29.4869    9.5336   38.0140  C     
38   C        31.7743    8.9109   37.0344  C     
39   C        29.2476    7.0552   33.8142  C     
40   C        28.5619    6.2007   34.9413  C     
41   C        27.3987    7.0520   35.5303  C     
42   H        31.5668    0.4856   36.3737  H     
43   H        30.3174   -3.3980   37.3568  H     
44   H        29.0821   -1.6627   33.7469  H     
45   H        28.4112    0.3380   33.4465  H     
46   H        30.0166    2.2762   31.9455  H     
47   H        27.3692    1.1186   31.0474  H     
48   H        28.6636    1.7994   30.0736  H     
49   H        28.0923   -3.4305   30.5843  H     
50   H        27.1670   -1.2383   30.9110  H     
51   H        31.0127    0.4340   30.3695  H     
52   H        31.9200   -1.7802   30.0550  H     
53   H        30.4620   -3.7215   30.1353  H     
54   H        27.1591    2.6858   32.9728  H     
55   H        28.7836    3.1592   34.7331  H     
56   H        29.7587    4.1311   33.6322  H     
57   H        27.0183    4.0870   31.4774  H     
58   H        27.4538    5.3603   33.4079  H     
59   H        27.1692    4.6750   34.8795  H     
60   H        28.5516   -4.3517   35.9253  H     
61   H        30.0856   -4.3307   33.4430  H     
62   H        29.4155   -5.6907   34.3002  H     
63   H        27.0757   -5.0164   33.6362  H     
64   H        28.1225   -5.3685   32.2501  H     
65   H        27.7662   -3.6892   32.6854  H     
66   H        31.7855   -0.7070   41.8130  H     
67   H        31.5881    0.5313   40.5582  H     
68   H        33.9787    0.3452   41.0939  H     
69   H        33.9489   -1.4035   40.8455  H     
70   H        33.5197    0.7494   38.6887  H     
71   H        34.9588   -0.2507   38.8952  H     
72   H        33.5874   -1.0913   37.0519  H     
73   H        33.6873   -2.2934   38.3275  H     
74   H        30.6027    6.1123   35.7266  H     
75   H        29.7264    4.6250   35.9432  H     
76   H        28.3629    6.1917   37.8336  H     
77   H        29.6840    5.0472   38.1084  H     
78   H        29.9720    7.3009   39.1908  H     
79   H        31.3557    6.6965   38.2626  H     
80   H        29.8745    8.2321   36.3696  H     
81   H        28.4836    9.1719   38.2504  H     
82   H        29.3889   10.3776   37.3261  H     
83   H        29.9630    9.8679   38.9369  H     
84   H        32.3092    9.0959   37.9623  H     
85   H        31.7416    9.8291   36.4386  H     
86   H        32.3054    8.1466   36.4612  H     
87   H        30.1104    6.5505   33.3668  H     
88   H        29.6089    8.0070   34.2102  H     
89   H        28.5378    7.2931   33.0041  H     
90   H        26.7152    7.4290   34.7261  H     
91   H        27.7880    7.9383   36.0248  H     
92   H        26.8022    6.4814   36.2286  H     
@<TRIPOS>BOND
     1    1    2 2
     2    1    6 1
     3    2    3 1
     4    2   29 1
     5    3    4 2
     6    4    5 1
     7    4   22 1
     8    5    6 2
     9    6    7 1
    10    7    8 2
    11    7    9 am
    12    9   10 1
    13   10   11 1
    14   10   18 1
    15   11   12 1
    16   12   14 2
    17   12   15 1
    18   13   14 1
    19   13   17 2
    20   15   16 2
    21   16   17 1
    22   18   19 1
    23   18   20 1
    24   19   21 1
    25   21   40 1
    26   22   23 1
    27   23   24 1
    28   25   26 1
    29   25   30 1
    30   26   27 1
    31   27   28 1
    32   28   29 1
    33   29   30 1
    34   30   31 2
    35   30   32 2
    36   33   34 1
    37   33   40 1
    38   34   35 1
    39   35   36 1
    40   36   37 1
    41   36   38 1
    42   39   40 1
    43   40   41 1
    44    1   42 1
    45    3   43 1
    46    5   44 1
    47    9   45 1
    48   10   46 1
    49   11   47 1
    50   11   48 1
    51   13   49 1
    52   14   50 1
    53   15   51 1
    54   16   52 1
    55   17   53 1
    56   18   54 1
    57   19   55 1
    58   19   56 1
    59   20   57 1
    60   21   58 1
    61   21   59 1
    62   22   60 1
    63   23   61 1
    64   23   62 1
    65   24   63 1
    66   24   64 1
    67   24   65 1
    68   25   66 1
    69   25   67 1
    70   26   68 1
    71   26   69 1
    72   27   70 1
    73   27   71 1
    74   28   72 1
    75   28   73 1
    76   33   74 1
    77   33   75 1
    78   34   76 1
    79   34   77 1
    80   35   78 1
    81   35   79 1
    82   36   80 1
    83   37   81 1
    84   37   82 1
    85   37   83 1
    86   38   84 1
    87   38   85 1
    88   38   86 1
    89   39   87 1
    90   39   88 1
    91   39   89 1
    92   41   90 1
    93   41   91 1
    94   41   92 1
@<TRIPOS>PROPERTY_DATA
  Total_Score	| 17.1557
  Crash		| -4.5006
  Polar		| 6.7395
  FragIndex	| 1
  FragRMSD	| 0.892

