@<TRIPOS>MOLECULE
BindingDB_29760
 85 88 0 0 0
SMALL
NO_CHARGES


@<TRIPOS>ATOM
1    C        31.0520   -0.5325   36.1287  C     
2    C        31.0114   -1.6270   37.0243  C     
3    C        30.1291   -2.7035   36.7514  C     
4    C        29.2709   -2.6664   35.6289  C     
5    C        29.3186   -1.5404   34.7743  C     
6    C        30.2023   -0.4579   35.0008  C     
7    C        30.2399    0.6429   34.1347  C     
8    N        28.4318   -3.7207   35.4353  N     
9    C        27.7757   -4.1437   34.2405  C     
10   C        28.7872   -4.6275   33.1817  C     
11   N        31.8015   -1.6149   38.1529  N     
12   C        31.7116   -0.4636   40.6948  C     
13   C        33.2385   -0.3059   40.5007  C     
14   C        33.6315   -0.1305   39.0070  C     
15   C        33.2212   -1.3455   38.1271  C     
16   S        31.1010   -1.8209   39.6796  S     
17   O        29.5180   -1.6664   39.6363  O     
18   O        31.4986   -3.2278   40.3062  O     
19   O        31.2617    1.3174   34.0662  O     
20   N        29.1758    0.9987   33.4147  N     
21   C        29.0948    2.0126   32.3889  C     
22   C        28.2665    3.2441   32.8821  C     
23   C        28.4891    1.3848   31.0896  C     
24   C        28.9885    0.0209   30.7559  C     
25   C        30.8429   -1.4853   30.1971  C     
26   C        30.3573   -0.1911   30.4691  C     
27   C        28.1101   -1.0889   30.7340  C     
28   C        28.5948   -2.3781   30.4564  C     
29   C        29.9606   -2.5813   30.1949  C     
30   C        28.9573    4.0203   34.0333  C     
31   N        28.1943    5.2486   34.3765  N     
32   O        28.0768    4.1813   31.8187  O     
33   C        28.9586    6.3554   35.0062  C     
34   C        29.8511    7.0597   34.0425  C     
35   C        29.2989    7.7611   32.9449  C     
36   C        31.2578    7.0382   34.1880  C     
37   C        32.0867    7.6745   33.2493  C     
38   C        31.5210    8.3448   32.1520  C     
39   C        30.1161    8.4026   31.9822  C     
40   C        29.4756    9.0873   30.8210  C     
41   F        30.3486    9.7405   29.9902  F     
42   F        28.7938    8.1682   30.0606  F     
43   F        28.5958   10.0437   31.2559  F     
44   O        30.0566   -3.7702   37.6136  O     
45   C        31.2082   -4.6321   37.5830  C     
46   H        31.6843    0.2455   36.3371  H     
47   H        28.7046   -1.5171   33.9560  H     
48   H        28.2589   -4.2721   36.2115  H     
49   H        27.1290   -4.9867   34.5024  H     
50   H        27.1347   -3.3519   33.8427  H     
51   H        29.4372   -3.8096   32.8748  H     
52   H        28.2509   -5.0029   32.3070  H     
53   H        29.4020   -5.4324   33.5883  H     
54   H        31.4697   -0.6584   41.7398  H     
55   H        31.2134    0.4551   40.3839  H     
56   H        33.5764    0.5741   41.0620  H     
57   H        33.7496   -1.1820   40.9125  H     
58   H        33.1643    0.7788   38.6133  H     
59   H        34.7158   -0.0033   38.9420  H     
60   H        33.7449   -2.2365   38.4812  H     
61   H        33.5670   -1.1605   37.1074  H     
62   H        28.3586    0.4993   33.5779  H     
63   H        30.0957    2.3728   32.1281  H     
64   H        27.2815    2.9069   33.2234  H     
65   H        27.3975    1.3748   31.1910  H     
66   H        28.7221    2.0343   30.2364  H     
67   H        31.8374   -1.6338   30.0050  H     
68   H        31.0171    0.5910   30.4728  H     
69   H        27.1122   -0.9735   30.9336  H     
70   H        27.9537   -3.1767   30.4640  H     
71   H        30.3134   -3.5218   30.0070  H     
72   H        29.0271    3.3978   34.9261  H     
73   H        29.9697    4.2830   33.7132  H     
74   H        27.7589    5.6159   33.5225  H     
75   H        27.4383    4.9825   35.0074  H     
76   H        27.1599    4.0347   31.4869  H     
77   H        28.2393    7.0791   35.3920  H     
78   H        29.5132    5.9608   35.8609  H     
79   H        28.2837    7.7941   32.8365  H     
80   H        31.6909    6.5518   34.9741  H     
81   H        33.1009    7.6410   33.3603  H     
82   H        32.1476    8.7877   31.4747  H     
83   H        31.4043   -5.0111   36.5763  H     
84   H        31.0086   -5.4829   38.2326  H     
85   H        32.0930   -4.1170   37.9576  H     
@<TRIPOS>BOND
     1    1    2 1
     2    1    6 2
     3    2    3 2
     4    2   11 1
     5    3    4 1
     6    3   44 1
     7    4    5 2
     8    4    8 1
     9    5    6 1
    10    6    7 1
    11    7   19 2
    12    7   20 am
    13    8    9 1
    14    9   10 1
    15   11   15 1
    16   11   16 1
    17   12   13 1
    18   12   16 1
    19   13   14 1
    20   14   15 1
    21   16   17 2
    22   16   18 2
    23   20   21 1
    24   21   22 1
    25   21   23 1
    26   22   30 1
    27   22   32 1
    28   23   24 1
    29   24   26 1
    30   24   27 2
    31   25   26 2
    32   25   29 1
    33   27   28 1
    34   28   29 2
    35   30   31 1
    36   31   33 1
    37   33   34 1
    38   34   35 1
    39   34   36 2
    40   35   39 2
    41   36   37 1
    42   37   38 2
    43   38   39 1
    44   39   40 1
    45   40   41 1
    46   40   42 1
    47   40   43 1
    48   44   45 1
    49    1   46 1
    50    5   47 1
    51    8   48 1
    52    9   49 1
    53    9   50 1
    54   10   51 1
    55   10   52 1
    56   10   53 1
    57   12   54 1
    58   12   55 1
    59   13   56 1
    60   13   57 1
    61   14   58 1
    62   14   59 1
    63   15   60 1
    64   15   61 1
    65   20   62 1
    66   21   63 1
    67   22   64 1
    68   23   65 1
    69   23   66 1
    70   25   67 1
    71   26   68 1
    72   27   69 1
    73   28   70 1
    74   29   71 1
    75   30   72 1
    76   30   73 1
    77   31   74 1
    78   31   75 1
    79   32   76 1
    80   33   77 1
    81   33   78 1
    82   35   79 1
    83   36   80 1
    84   37   81 1
    85   38   82 1
    86   45   83 1
    87   45   84 1
    88   45   85 1
@<TRIPOS>PROPERTY_DATA
  Total_Score	| 15.2439
  Crash		| -2.8536
  Polar		| 6.8996
  FragIndex	| 1
  FragRMSD	| 0.187

