@<TRIPOS>MOLECULE
BindingDB_26505
 78 81 0 0 0
SMALL
NO_CHARGES


@<TRIPOS>ATOM
1    C        31.1353   -0.4411   36.3386  C     
2    C        31.2318   -1.5656   37.1855  C     
3    C        30.6295   -2.7737   36.7872  C     
4    C        29.9779   -2.8862   35.5433  C     
5    C        29.8342   -1.7287   34.7429  C     
6    C        30.4010   -0.4880   35.1224  C     
7    C        30.2837    0.6390   34.3091  C     
8    O        31.2366    1.4080   34.2338  O     
9    N        29.1725    0.8923   33.6307  N     
10   C        28.9923    1.8684   32.5767  C     
11   C        28.2543    1.1996   31.3737  C     
12   C        28.8129   -0.1278   30.9594  C     
13   C        30.6958   -1.5047   30.1927  C     
14   C        30.1511   -0.2457   30.5207  C     
15   C        28.0166   -1.2969   31.0152  C     
16   C        28.5527   -2.5513   30.6662  C     
17   C        29.8952   -2.6574   30.2682  C     
18   C        28.2527    3.1458   33.0967  C     
19   C        29.0745    3.9531   34.1385  C     
20   O        27.9889    4.0425   32.0049  O     
21   N        28.3493    5.1795   34.5605  N     
22   C        29.1731    6.2638   35.1471  C     
23   C        29.9943    6.9885   34.1325  C     
24   C        29.3549    7.6743   33.0728  C     
25   C        31.4080    7.0147   34.1967  C     
26   C        32.1616    7.6973   33.2272  C     
27   C        31.5086    8.3694   32.1720  C     
28   C        30.1057    8.3575   32.0994  C     
29   N        29.5643   -4.1353   35.1788  N     
30   C        29.3328   -4.6007   33.8479  C     
31   C        27.8471   -4.5407   33.4582  C     
32   C        31.8669   -0.4006   40.8979  C     
33   C        33.4029   -0.3257   40.7573  C     
34   C        33.8521   -0.1525   39.2796  C     
35   C        33.3904   -1.3193   38.3619  C     
36   N        31.9606   -1.5058   38.3457  N     
37   S        31.2040   -1.7033   39.8438  S     
38   O        31.5083   -3.1289   40.4816  O     
39   O        29.6336   -1.4473   39.7979  O     
40   H        31.5941    0.4278   36.6199  H     
41   H        30.7272   -3.6041   37.3825  H     
42   H        29.3430   -1.7923   33.8491  H     
43   H        28.4089    0.3213   33.8136  H     
44   H        29.9649    2.1929   32.1965  H     
45   H        27.1957    1.0937   31.6324  H     
46   H        28.3059    1.8585   30.5051  H     
47   H        31.6751   -1.5841   29.9145  H     
48   H        30.7554    0.5786   30.4587  H     
49   H        27.0410   -1.2502   31.3218  H     
50   H        27.9708   -3.3875   30.7229  H     
51   H        30.2886   -3.5735   30.0323  H     
52   H        27.2975    2.8590   33.5510  H     
53   H        29.2651    3.3474   35.0257  H     
54   H        30.0388    4.2106   33.6897  H     
55   H        27.1580    3.7352   31.5816  H     
56   H        27.8541    5.5695   33.7552  H     
57   H        27.6464    4.9046   35.2507  H     
58   H        28.4905    6.9868   35.5989  H     
59   H        29.7898    5.8576   35.9537  H     
60   H        28.3347    7.6870   33.0082  H     
61   H        31.9040    6.5344   34.9530  H     
62   H        33.1828    7.7022   33.2765  H     
63   H        32.0564    8.8656   31.4639  H     
64   H        29.6291    8.8437   31.3349  H     
65   H        29.6309   -4.8295   35.8562  H     
66   H        29.9296   -4.0476   33.1223  H     
67   H        29.6620   -5.6360   33.8102  H     
68   H        27.2410   -5.0723   34.1976  H     
69   H        27.7132   -5.0170   32.4840  H     
70   H        27.5119   -3.5011   33.3907  H     
71   H        31.5734   -0.6008   41.9270  H     
72   H        31.4313    0.5488   40.5930  H     
73   H        33.7619    0.5280   41.3374  H     
74   H        33.8531   -1.2323   41.1773  H     
75   H        33.4568    0.7885   38.8901  H     
76   H        34.9460   -0.0921   39.2538  H     
77   H        33.7815   -1.1305   37.3590  H     
78   H        33.8530   -2.2459   38.7100  H     
@<TRIPOS>BOND
     1    1    2 2
     2    1    6 1
     3    2    3 1
     4    2   36 1
     5    3    4 2
     6    4    5 1
     7    4   29 1
     8    5    6 2
     9    6    7 1
    10    7    8 2
    11    7    9 am
    12    9   10 1
    13   10   11 1
    14   10   18 1
    15   11   12 1
    16   12   14 2
    17   12   15 1
    18   13   14 1
    19   13   17 2
    20   15   16 2
    21   16   17 1
    22   18   19 1
    23   18   20 1
    24   19   21 1
    25   21   22 1
    26   22   23 1
    27   23   24 2
    28   23   25 1
    29   24   28 1
    30   25   26 2
    31   26   27 1
    32   27   28 2
    33   29   30 1
    34   30   31 1
    35   32   33 1
    36   32   37 1
    37   33   34 1
    38   34   35 1
    39   35   36 1
    40   36   37 1
    41   37   38 2
    42   37   39 2
    43    1   40 1
    44    3   41 1
    45    5   42 1
    46    9   43 1
    47   10   44 1
    48   11   45 1
    49   11   46 1
    50   13   47 1
    51   14   48 1
    52   15   49 1
    53   16   50 1
    54   17   51 1
    55   18   52 1
    56   19   53 1
    57   19   54 1
    58   20   55 1
    59   21   56 1
    60   21   57 1
    61   22   58 1
    62   22   59 1
    63   24   60 1
    64   25   61 1
    65   26   62 1
    66   27   63 1
    67   28   64 1
    68   29   65 1
    69   30   66 1
    70   30   67 1
    71   31   68 1
    72   31   69 1
    73   31   70 1
    74   32   71 1
    75   32   72 1
    76   33   73 1
    77   33   74 1
    78   34   75 1
    79   34   76 1
    80   35   77 1
    81   35   78 1
@<TRIPOS>PROPERTY_DATA
  Total_Score	| 15.2547
  Crash		| -1.8798
  Polar		| 6.2454
  FragIndex	| 1
  FragRMSD	| 0.812

