@<TRIPOS>MOLECULE
BindingDB_26780
 81 84 0 0 0
SMALL
NO_CHARGES


@<TRIPOS>ATOM
1    C        31.1374   -0.4532   36.2786  C     
2    C        31.2061   -1.5845   37.1185  C     
3    C        30.5609   -2.7761   36.7141  C     
4    C        29.8219   -1.6994   34.6684  C     
5    C        30.4168   -0.4755   35.0599  C     
6    C        29.8948   -2.8601   35.4731  C     
7    C        29.3332   -4.6344   33.7890  C     
8    C        27.9183   -4.5710   33.1686  C     
9    C        30.3316    0.6453   34.2383  C     
10   O        31.2746    1.4263   34.1855  O     
11   N        29.2151    0.8988   33.5639  N     
12   C        29.0000    1.9033   32.5541  C     
13   C        28.2302    1.2470   31.3638  C     
14   C        28.7752   -0.0776   30.9434  C     
15   C        28.5079   -2.5034   30.6663  C     
16   C        27.9692   -1.2422   30.9844  C     
17   C        30.1259   -0.2105   30.5396  C     
18   C        30.6715   -1.4753   30.2434  C     
19   C        29.8594   -2.6226   30.2982  C     
20   C        28.2540    3.1314   33.1604  C     
21   C        29.0948    3.9042   34.2060  C     
22   O        27.9129    4.0750   32.1353  O     
23   N        28.3767    5.1224   34.6460  N     
24   C        31.9446   -0.5984   40.9052  C     
25   C        33.4779   -0.5234   40.6992  C     
26   C        33.8713   -0.2712   39.2164  C     
27   C        33.3705   -1.3903   38.2629  C     
28   N        31.9406   -1.5457   38.2717  N     
29   S        31.2154   -1.7989   39.7742  S     
30   O        31.4628   -3.2745   40.3123  O     
31   O        29.6594   -1.4788   39.7487  O     
32   N        29.4017   -4.0761   35.1074  N     
33   C        29.1734    6.2431   35.1860  C     
34   C        30.0200    6.8896   34.1599  C     
35   C        29.6965    7.1371   32.8324  C     
36   C        31.3278    7.3388   34.2926  C     
37   N        31.7307    7.8260   33.1089  N     
38   N        30.7723    7.6904   32.2385  N     
39   C        30.8863    8.0574   30.8587  C     
40   C        31.5594    9.4336   30.6774  C     
41   H        31.6048    0.4083   36.5739  H     
42   H        30.6353   -3.6069   37.3070  H     
43   H        29.3480   -1.7583   33.7665  H     
44   H        29.6223   -5.6857   33.8574  H     
45   H        30.0594   -4.1543   33.1255  H     
46   H        27.1921   -5.0558   33.8278  H     
47   H        27.9209   -5.0913   32.2083  H     
48   H        27.6135   -3.5359   33.0040  H     
49   H        28.4739    0.3033   33.7351  H     
50   H        29.9542    2.2606   32.1573  H     
51   H        27.1797    1.1485   31.6508  H     
52   H        28.2654    1.9120   30.4969  H     
53   H        27.9182   -3.3391   30.7077  H     
54   H        26.9865   -1.1881   31.2651  H     
55   H        30.7351    0.6084   30.4869  H     
56   H        31.6577   -1.5603   29.9820  H     
57   H        30.2545   -3.5421   30.0742  H     
58   H        27.3256    2.7967   33.6329  H     
59   H        29.2687    3.2761   35.0834  H     
60   H        30.0656    4.1547   33.7663  H     
61   H        26.9811    3.8961   31.8833  H     
62   H        27.8440    5.4896   33.8509  H     
63   H        27.6994    4.8477   35.3641  H     
64   H        31.7088   -0.8854   41.9320  H     
65   H        31.5055    0.3825   40.7049  H     
66   H        33.8731    0.2948   41.3107  H     
67   H        33.9400   -1.4534   41.0480  H     
68   H        33.4645    0.6906   38.8873  H     
69   H        34.9616   -0.2122   39.1470  H     
70   H        33.7346   -1.1610   37.2612  H     
71   H        33.8187   -2.3423   38.5579  H     
72   H        29.1717   -4.6910   35.8273  H     
73   H        28.4798    6.9907   35.5706  H     
74   H        29.7852    5.8936   36.0216  H     
75   H        28.8004    6.9306   32.3848  H     
76   H        31.8863    7.3155   35.1459  H     
77   H        31.4748    7.2986   30.3353  H     
78   H        29.8992    8.0891   30.3864  H     
79   H        30.9573   10.2143   31.1495  H     
80   H        31.6579    9.6635   29.6135  H     
81   H        32.5547    9.4324   31.1257  H     
@<TRIPOS>BOND
     1    1    2 2
     2    1    5 1
     3    2    3 1
     4    2   28 1
     5    3    6 2
     6    4    5 2
     7    4    6 1
     8    5    9 1
     9    6   32 1
    10    7    8 1
    11    7   32 1
    12    9   10 2
    13    9   11 am
    14   11   12 1
    15   12   13 1
    16   12   20 1
    17   13   14 1
    18   14   16 2
    19   14   17 1
    20   15   16 1
    21   15   19 2
    22   17   18 2
    23   18   19 1
    24   20   21 1
    25   20   22 1
    26   21   23 1
    27   23   33 1
    28   24   25 1
    29   24   29 1
    30   25   26 1
    31   26   27 1
    32   27   28 1
    33   28   29 1
    34   29   30 2
    35   29   31 2
    36   33   34 1
    37   34   35 2
    38   34   36 1
    39   35   38 1
    40   36   37 2
    41   37   38 1
    42   38   39 1
    43   39   40 1
    44    1   41 1
    45    3   42 1
    46    4   43 1
    47    7   44 1
    48    7   45 1
    49    8   46 1
    50    8   47 1
    51    8   48 1
    52   11   49 1
    53   12   50 1
    54   13   51 1
    55   13   52 1
    56   15   53 1
    57   16   54 1
    58   17   55 1
    59   18   56 1
    60   19   57 1
    61   20   58 1
    62   21   59 1
    63   21   60 1
    64   22   61 1
    65   23   62 1
    66   23   63 1
    67   24   64 1
    68   24   65 1
    69   25   66 1
    70   25   67 1
    71   26   68 1
    72   26   69 1
    73   27   70 1
    74   27   71 1
    75   32   72 1
    76   33   73 1
    77   33   74 1
    78   35   75 1
    79   36   76 1
    80   39   77 1
    81   39   78 1
    82   40   79 1
    83   40   80 1
    84   40   81 1
@<TRIPOS>PROPERTY_DATA
  Total_Score	| 15.7258
  Crash		| -1.9140
  Polar		| 6.3129
  FragIndex	| 1
  FragRMSD	| 0.850

