@<TRIPOS>MOLECULE
BindingDB_29771
 78 81 0 0 0
SMALL
NO_CHARGES


@<TRIPOS>ATOM
1    C        31.1613   -0.2337   36.3637  C     
2    C        31.3123   -1.3065   37.2731  C     
3    C        30.7459   -2.5628   36.9388  C     
4    C        30.0740   -2.7579   35.7105  C     
5    C        29.9299   -1.6519   34.8328  C     
6    C        30.4707   -0.3813   35.1421  C     
7    C        30.3405    0.6827   34.2576  C     
8    N        29.6695   -4.0296   35.4160  N     
9    C        29.3778   -4.5595   34.1076  C     
10   C        27.8854   -4.4926   33.7351  C     
11   N        32.1127   -1.1602   38.3771  N     
12   C        32.5538   -2.5271   40.7745  C     
13   C        34.0457   -2.2457   40.4620  C     
14   C        34.3421   -2.1133   38.9445  C     
15   C        33.5368   -0.9662   38.2663  C     
16   S        31.5083   -1.3091   39.9496  S     
17   O        31.6198    0.0944   40.6897  O     
18   O        29.9803   -1.7382   40.0243  O     
19   O        31.2832    1.4556   34.1524  O     
20   N        29.2112    0.8773   33.5901  N     
21   C        28.9814    1.8555   32.5463  C     
22   C        28.2636    3.1414   33.1053  C     
23   C        28.1937    1.1850   31.3707  C     
24   C        28.7220   -0.1490   30.9578  C     
25   C        30.5867   -1.5568   30.2081  C     
26   C        30.0611   -0.2897   30.5213  C     
27   C        27.9009   -1.3049   30.9978  C     
28   C        28.4240   -2.5697   30.6693  C     
29   C        29.7692   -2.6961   30.2834  C     
30   C        29.0855    3.8402   34.2373  C     
31   N        28.4225    4.9795   34.9298  N     
32   O        28.0648    4.0747   32.0290  O     
33   C        28.3164    6.3173   34.2748  C     
34   C        29.5908    7.0845   34.3719  C     
35   C        29.7386    8.1318   35.3086  C     
36   C        30.6916    6.7774   33.5433  C     
37   N        31.8463    7.4807   33.6518  N     
38   C        32.0149    8.4895   34.5419  C     
39   C        30.9522    8.8466   35.3968  C     
40   C        31.0752    9.8375   36.2282  C     
41   N        31.1674   10.7187   36.9601  N     
42   H        31.5894    0.6681   36.6012  H     
43   H        30.8637   -3.3435   37.5877  H     
44   H        29.4640   -1.7887   33.9289  H     
45   H        29.8169   -4.6943   36.1156  H     
46   H        29.9762   -4.0633   33.3384  H     
47   H        29.6766   -5.5991   34.0944  H     
48   H        27.2845   -5.0433   34.4645  H     
49   H        27.7535   -4.9607   32.7552  H     
50   H        27.5344   -3.4576   33.6822  H     
51   H        32.2825   -3.5223   40.4160  H     
52   H        32.3908   -2.4798   41.8527  H     
53   H        34.3497   -1.3211   40.9629  H     
54   H        34.6503   -3.0586   40.8650  H     
55   H        35.4119   -1.9195   38.8091  H     
56   H        34.1049   -3.0527   38.4401  H     
57   H        33.8662   -0.9042   37.2213  H     
58   H        33.8089   -0.0094   38.7349  H     
59   H        28.4708    0.2932   33.8062  H     
60   H        29.9388    2.1910   32.1181  H     
61   H        27.2852    2.8565   33.5181  H     
62   H        27.1434    1.1025   31.6682  H     
63   H        28.2252    1.8425   30.5031  H     
64   H        31.5670   -1.6518   29.9348  H     
65   H        30.6732    0.5282   30.4560  H     
66   H        26.9234   -1.2381   31.2946  H     
67   H        27.8269   -3.3971   30.7175  H     
68   H        30.1492   -3.6182   30.0530  H     
69   H        29.2512    3.1028   35.0262  H     
70   H        30.0680    4.1439   33.8527  H     
71   H        27.4750    4.6817   35.1740  H     
72   H        28.9214    5.1284   35.8112  H     
73   H        27.2080    3.7992   31.6118  H     
74   H        28.0000    6.2201   33.2224  H     
75   H        27.5247    6.8724   34.8076  H     
76   H        28.9533    8.3853   35.9171  H     
77   H        30.6302    6.0309   32.8485  H     
78   H        32.9136    8.9777   34.5682  H     
@<TRIPOS>BOND
     1    1    2 1
     2    1    6 2
     3    2    3 2
     4    2   11 1
     5    3    4 1
     6    4    5 2
     7    4    8 1
     8    5    6 1
     9    6    7 1
    10    7   19 2
    11    7   20 am
    12    8    9 1
    13    9   10 1
    14   11   15 1
    15   11   16 1
    16   12   13 1
    17   12   16 1
    18   13   14 1
    19   14   15 1
    20   16   17 2
    21   16   18 2
    22   20   21 1
    23   21   22 1
    24   21   23 1
    25   22   30 1
    26   22   32 1
    27   23   24 1
    28   24   26 1
    29   24   27 2
    30   25   26 2
    31   25   29 1
    32   27   28 1
    33   28   29 2
    34   30   31 1
    35   31   33 1
    36   33   34 1
    37   34   35 1
    38   34   36 2
    39   35   39 2
    40   36   37 1
    41   37   38 2
    42   38   39 1
    43   39   40 1
    44   40   41 3
    45    1   42 1
    46    3   43 1
    47    5   44 1
    48    8   45 1
    49    9   46 1
    50    9   47 1
    51   10   48 1
    52   10   49 1
    53   10   50 1
    54   12   51 1
    55   12   52 1
    56   13   53 1
    57   13   54 1
    58   14   55 1
    59   14   56 1
    60   15   57 1
    61   15   58 1
    62   20   59 1
    63   21   60 1
    64   22   61 1
    65   23   62 1
    66   23   63 1
    67   25   64 1
    68   26   65 1
    69   27   66 1
    70   28   67 1
    71   29   68 1
    72   30   69 1
    73   30   70 1
    74   31   71 1
    75   31   72 1
    76   32   73 1
    77   33   74 1
    78   33   75 1
    79   35   76 1
    80   36   77 1
    81   38   78 1
@<TRIPOS>PROPERTY_DATA
  Total_Score	| 15.5779
  Crash		| -1.4600
  Polar		| 7.3176
  FragIndex	| 1
  FragRMSD	| 0.162

