@<TRIPOS>MOLECULE
BindingDB_26774
 82 85 0 0 0
SMALL
NO_CHARGES


@<TRIPOS>ATOM
1    C        31.1129   -0.4879   36.2345  C     
2    C        31.1536   -1.6193   37.0812  C     
3    C        30.3931   -2.7551   36.7233  C     
4    C        29.6031   -1.6388   34.7184  C     
5    C        30.3173   -0.4623   35.0635  C     
6    C        29.6237   -2.7892   35.5391  C     
7    C        27.3154   -3.8552   35.1660  C     
8    C        26.6494   -3.5526   33.7995  C     
9    C        30.2721    0.6632   34.2370  C     
10   O        31.2568    1.3960   34.1775  O     
11   N        29.1862    0.9403   33.5161  N     
12   C        29.0567    1.9528   32.4969  C     
13   C        28.4286    1.3536   31.1952  C     
14   C        28.9450    0.0068   30.8145  C     
15   C        28.5782   -2.4013   30.5150  C     
16   C        28.0817   -1.1145   30.7887  C     
17   C        30.3137   -0.1913   30.5045  C     
18   C        30.8117   -1.4807   30.2297  C     
19   C        29.9449   -2.5876   30.2482  C     
20   C        28.2560    3.1740   33.0618  C     
21   C        29.0565    3.9702   34.1288  C     
22   O        27.9327    4.0882   32.0089  O     
23   N        28.3260    5.1947   34.5414  N     
24   C        29.1264    6.2861   35.1455  C     
25   C        29.9644    6.9995   34.1435  C     
26   C        29.3491    7.6712   33.0639  C     
27   C        31.3755    6.9994   34.2277  C     
28   C        32.1461    7.6525   33.2531  C     
29   C        31.5190    8.3154   32.1839  C     
30   C        30.1060    8.3332   32.0684  C     
31   C        29.4012    9.0070   30.9433  C     
32   F        30.2316    9.6403   30.0500  F     
33   F        28.6659    8.0888   30.2327  F     
34   F        28.5471    9.9667   31.4330  F     
35   C        31.7948   -0.5220   40.8009  C     
36   C        33.3247   -0.3829   40.6278  C     
37   C        33.7456   -0.1934   39.1435  C     
38   C        33.3311   -1.3841   38.2377  C     
39   N        31.9063   -1.6193   38.2310  N     
40   S        31.1674   -1.8333   39.7373  S     
41   O        31.4413   -3.2692   40.3678  O     
42   O        29.5994   -1.5665   39.6776  O     
43   C        28.8681   -4.0114   35.1384  C     
44   H        31.6567    0.3389   36.4987  H     
45   H        30.4263   -3.5805   37.3272  H     
46   H        29.0828   -1.6722   33.8378  H     
47   H        27.0216   -3.0829   35.8835  H     
48   H        26.8858   -4.7947   35.5312  H     
49   H        27.0354   -2.6264   33.3707  H     
50   H        25.5722   -3.4370   33.9356  H     
51   H        26.8231   -4.3676   33.0977  H     
52   H        28.3943    0.4087   33.6948  H     
53   H        30.0465    2.3263   32.2059  H     
54   H        27.3423    1.3147   31.3211  H     
55   H        28.6276    2.0318   30.3618  H     
56   H        27.9454   -3.2062   30.5292  H     
57   H        27.0828   -1.0039   30.9793  H     
58   H        30.9597    0.6028   30.4803  H     
59   H        31.8046   -1.6158   30.0270  H     
60   H        30.3054   -3.5248   30.0565  H     
61   H        27.3194    2.8317   33.5141  H     
62   H        29.2216    3.3551   35.0182  H     
63   H        30.0352    4.2319   33.7127  H     
64   H        27.1418    3.7187   31.5566  H     
65   H        27.8435    5.5814   33.7269  H     
66   H        27.6149    4.9158   35.2203  H     
67   H        28.4307    7.0103   35.5822  H     
68   H        29.7266    5.8862   35.9679  H     
69   H        28.3262    7.6736   32.9962  H     
70   H        31.8505    6.5153   34.9916  H     
71   H        33.1669    7.6405   33.3200  H     
72   H        32.1056    8.7805   31.4900  H     
73   H        31.5399   -0.7428   41.8367  H     
74   H        31.3135    0.4107   40.5104  H     
75   H        33.6616    0.4825   41.2055  H     
76   H        33.8189   -1.2687   41.0371  H     
77   H        33.3005    0.7272   38.7553  H     
78   H        34.8329   -0.0771   39.1028  H     
79   H        33.7035   -1.1877   37.2301  H     
80   H        33.8349   -2.2891   38.5899  H     
81   H        29.1923   -4.3331   34.1456  H     
82   H        29.1270   -4.8265   35.8155  H     
@<TRIPOS>BOND
     1    1    2 2
     2    1    5 1
     3    2    3 1
     4    2   39 1
     5    3    6 2
     6    4    5 2
     7    4    6 1
     8    5    9 1
     9    6   43 1
    10    7    8 1
    11    7   43 1
    12    9   10 2
    13    9   11 am
    14   11   12 1
    15   12   13 1
    16   12   20 1
    17   13   14 1
    18   14   16 2
    19   14   17 1
    20   15   16 1
    21   15   19 2
    22   17   18 2
    23   18   19 1
    24   20   21 1
    25   20   22 1
    26   21   23 1
    27   23   24 1
    28   24   25 1
    29   25   26 2
    30   25   27 1
    31   26   30 1
    32   27   28 2
    33   28   29 1
    34   29   30 2
    35   30   31 1
    36   31   32 1
    37   31   33 1
    38   31   34 1
    39   35   36 1
    40   35   40 1
    41   36   37 1
    42   37   38 1
    43   38   39 1
    44   39   40 1
    45   40   41 2
    46   40   42 2
    47    1   44 1
    48    3   45 1
    49    4   46 1
    50    7   47 1
    51    7   48 1
    52    8   49 1
    53    8   50 1
    54    8   51 1
    55   11   52 1
    56   12   53 1
    57   13   54 1
    58   13   55 1
    59   15   56 1
    60   16   57 1
    61   17   58 1
    62   18   59 1
    63   19   60 1
    64   20   61 1
    65   21   62 1
    66   21   63 1
    67   22   64 1
    68   23   65 1
    69   23   66 1
    70   24   67 1
    71   24   68 1
    72   26   69 1
    73   27   70 1
    74   28   71 1
    75   29   72 1
    76   35   73 1
    77   35   74 1
    78   36   75 1
    79   36   76 1
    80   37   77 1
    81   37   78 1
    82   38   79 1
    83   38   80 1
    84   43   81 1
    85   43   82 1
@<TRIPOS>PROPERTY_DATA
  Total_Score	| 16.2005
  Crash		| -1.9823
  Polar		| 6.0715
  FragIndex	| 1
  FragRMSD	| 0.844

