@<TRIPOS>MOLECULE
BindingDB_26775
 84 87 0 0 0
SMALL
NO_CHARGES


@<TRIPOS>ATOM
1    C        31.1034   -0.5044   36.2609  C     
2    C        31.1500   -1.6289   37.1125  C     
3    C        30.4069   -2.7733   36.7557  C     
4    C        29.6062   -1.6824   34.7533  C     
5    C        30.3214   -0.5000   35.0791  C     
6    C        29.6288   -2.8306   35.5791  C     
7    C        27.7001   -4.2806   34.7204  C     
8    C        26.5233   -3.3594   35.1571  C     
9    C        30.2778    0.6179   34.2316  C     
10   O        31.2541    1.3565   34.1662  O     
11   N        29.1895    0.9042   33.5127  N     
12   C        29.0498    1.9153   32.4877  C     
13   C        28.4120    1.2864   31.2127  C     
14   C        28.9544   -0.0502   30.8348  C     
15   C        28.6194   -2.4496   30.4580  C     
16   C        28.1011   -1.1799   30.7726  C     
17   C        30.3277   -0.2204   30.5294  C     
18   C        30.8432   -1.4980   30.2361  C     
19   C        29.9902   -2.6182   30.1999  C     
20   C        28.2364    3.1482   33.0150  C     
21   C        29.0057    3.9428   34.1002  C     
22   O        27.9540    4.0505   31.9384  O     
23   N        28.2940    5.1847   34.4930  N     
24   C        29.1765    6.2886   34.9589  C     
25   C        29.9706    6.9899   33.8974  C     
26   C        29.3926    7.5682   32.7386  C     
27   C        31.3625    7.1443   34.1021  C     
28   C        32.1453    7.8560   33.1843  C     
29   C        31.5556    8.4440   32.0571  C     
30   C        30.1674    8.3187   31.8166  C     
31   C        29.5049    8.9465   30.6411  C     
32   F        30.3188    9.7821   29.9059  F     
33   F        29.0537    7.9683   29.7803  F     
34   F        28.4271    9.7091   31.0419  F     
35   C        31.8734   -0.5968   40.8538  C     
36   C        33.4025   -0.4844   40.6538  C     
37   C        33.7932   -0.2542   39.1669  C     
38   C        33.3362   -1.4078   38.2395  C     
39   N        31.9078   -1.6169   38.2530  N     
40   S        31.1935   -1.8638   39.7651  S     
41   O        29.6142   -1.6424   39.7188  O     
42   O        31.5173   -3.3072   40.3377  O     
43   N        28.9655   -3.9984   35.3435  N     
44   C        27.8550   -4.3938   33.1833  C     
45   H        31.6182    0.3409   36.5243  H     
46   H        30.4524   -3.5952   37.3631  H     
47   H        29.0862   -1.7165   33.8789  H     
48   H        27.4340   -5.2850   35.0610  H     
49   H        26.5387   -3.2470   36.2509  H     
50   H        25.5648   -3.7947   34.8397  H     
51   H        26.6077   -2.3749   34.6719  H     
52   H        28.4086    0.3443   33.6593  H     
53   H        30.0329    2.2944   32.1902  H     
54   H        27.3300    1.2248   31.3674  H     
55   H        28.5801    1.9571   30.3599  H     
56   H        27.9998   -3.2620   30.4489  H     
57   H        27.1003   -1.0908   30.9537  H     
58   H        30.9723    0.5717   30.5595  H     
59   H        31.8392   -1.6143   30.0367  H     
60   H        30.3688   -3.5460   29.9950  H     
61   H        27.2842    2.8129   33.4421  H     
62   H        29.1342    3.3138   34.9920  H     
63   H        30.0016    4.1896   33.7051  H     
64   H        27.0086    3.9127   31.7206  H     
65   H        27.7746    5.5321   33.6766  H     
66   H        27.6223    4.9576   35.2470  H     
67   H        28.5324    7.0348   35.4388  H     
68   H        29.8676    5.9161   35.7339  H     
69   H        28.3865    7.4562   32.5892  H     
70   H        31.8178    6.7446   34.9326  H     
71   H        33.1507    7.9632   33.3400  H     
72   H        32.1502    8.9611   31.4035  H     
73   H        31.6319   -0.8615   41.8815  H     
74   H        31.4007    0.3536   40.6127  H     
75   H        33.7645    0.3553   41.2499  H     
76   H        33.8911   -1.3907   41.0228  H     
77   H        33.3528    0.6837   38.8184  H     
78   H        34.8783   -0.1566   39.1016  H     
79   H        33.6968   -1.1954   37.2336  H     
80   H        33.8238   -2.3348   38.5534  H     
81   H        29.4251   -4.7921   35.6667  H     
82   H        26.8989   -4.6526   32.7255  H     
83   H        28.5846   -5.1759   32.9385  H     
84   H        28.2074   -3.4507   32.7659  H     
@<TRIPOS>BOND
     1    1    2 2
     2    1    5 1
     3    2    3 1
     4    2   39 1
     5    3    6 2
     6    4    5 2
     7    4    6 1
     8    5    9 1
     9    6   43 1
    10    7    8 1
    11    7   43 1
    12    7   44 1
    13    9   10 2
    14    9   11 am
    15   11   12 1
    16   12   13 1
    17   12   20 1
    18   13   14 1
    19   14   16 2
    20   14   17 1
    21   15   16 1
    22   15   19 2
    23   17   18 2
    24   18   19 1
    25   20   21 1
    26   20   22 1
    27   21   23 1
    28   23   24 1
    29   24   25 1
    30   25   26 2
    31   25   27 1
    32   26   30 1
    33   27   28 2
    34   28   29 1
    35   29   30 2
    36   30   31 1
    37   31   32 1
    38   31   33 1
    39   31   34 1
    40   35   36 1
    41   35   40 1
    42   36   37 1
    43   37   38 1
    44   38   39 1
    45   39   40 1
    46   40   41 2
    47   40   42 2
    48    1   45 1
    49    3   46 1
    50    4   47 1
    51    7   48 1
    52    8   49 1
    53    8   50 1
    54    8   51 1
    55   11   52 1
    56   12   53 1
    57   13   54 1
    58   13   55 1
    59   15   56 1
    60   16   57 1
    61   17   58 1
    62   18   59 1
    63   19   60 1
    64   20   61 1
    65   21   62 1
    66   21   63 1
    67   22   64 1
    68   23   65 1
    69   23   66 1
    70   24   67 1
    71   24   68 1
    72   26   69 1
    73   27   70 1
    74   28   71 1
    75   29   72 1
    76   35   73 1
    77   35   74 1
    78   36   75 1
    79   36   76 1
    80   37   77 1
    81   37   78 1
    82   38   79 1
    83   38   80 1
    84   43   81 1
    85   44   82 1
    86   44   83 1
    87   44   84 1
@<TRIPOS>PROPERTY_DATA
  Total_Score	| 16.0620
  Crash		| -2.2904
  Polar		| 6.3126
  FragIndex	| 1
  FragRMSD	| 0.883

