@<TRIPOS>MOLECULE
BindingDB_29774
 79 82 0 0 0
SMALL
NO_CHARGES


@<TRIPOS>ATOM
1    C        31.1810   -0.4557   36.2997  C     
2    C        31.2569   -1.5736   37.1643  C     
3    C        30.6113   -2.7703   36.7830  C     
4    C        29.9638   -2.8849   35.5384  C     
5    C        29.8236   -1.7277   34.7365  C     
6    C        30.4212   -0.4951   35.1034  C     
7    C        30.3260    0.6133   34.2635  C     
8    N        29.5794   -4.1362   35.1660  N     
9    C        29.3327   -4.6104   33.8416  C     
10   C        27.8387   -4.5882   33.4654  C     
11   N        31.9855   -1.5241   38.3272  N     
12   C        31.8522   -0.4295   40.8699  C     
13   C        33.3908   -0.3199   40.7332  C     
14   C        33.8435   -0.1427   39.2560  C     
15   C        33.4114   -1.3193   38.3407  C     
16   S        31.2343   -1.7534   39.8224  S     
17   O        29.6572   -1.5685   39.7490  O     
18   O        31.5965   -3.1677   40.4485  O     
19   O        31.2981    1.3554   34.1577  O     
20   N        29.1982    0.8868   33.6107  N     
21   C        29.0089    1.8760   32.5735  C     
22   C        28.2312    3.1153   33.1098  C     
23   C        28.3048    1.2208   31.3412  C     
24   C        28.8530   -0.1046   30.9434  C     
25   C        30.7405   -1.5010   30.2299  C     
26   C        30.2099   -0.2411   30.5656  C     
27   C        28.0346   -1.2586   30.9465  C     
28   C        28.5674   -2.5178   30.6125  C     
29   C        29.9188   -2.6401   30.2451  C     
30   C        29.0235    3.9097   34.1842  C     
31   N        28.3201    5.1553   34.5594  N     
32   O        27.9433    4.0215   32.0434  O     
33   C        29.0698    6.1306   35.3918  C     
34   C        29.0555    8.5417   36.2487  C     
35   C        28.3416    7.5007   35.3472  C     
36   C        29.2327    5.6873   36.8731  C     
37   C        29.9684    6.8034   37.6670  C     
38   O        29.2437    8.0473   37.5895  O     
39   H        31.6603    0.4041   36.5718  H     
40   H        30.6751   -3.5901   37.4007  H     
41   H        29.3193   -1.7969   33.8474  H     
42   H        29.6710   -4.8283   35.8427  H     
43   H        29.9251   -4.0640   33.1049  H     
44   H        29.6769   -5.6538   33.8110  H     
45   H        27.2600   -5.1488   34.2026  H     
46   H        27.7070   -5.0574   32.4873  H     
47   H        27.4663   -3.5673   33.4167  H     
48   H        31.5666   -0.6187   41.9057  H     
49   H        31.3927    0.5091   40.5472  H     
50   H        33.7344    0.5421   41.3170  H     
51   H        33.8562   -1.2112   41.1544  H     
52   H        33.4339    0.7922   38.8599  H     
53   H        34.9317   -0.0595   39.2333  H     
54   H        33.8875   -2.2363   38.6965  H     
55   H        33.8001   -1.1302   37.3364  H     
56   H        28.4298    0.3252   33.8191  H     
57   H        29.9730    2.2353   32.2141  H     
58   H        27.2754    2.7960   33.5449  H     
59   H        27.2308    1.1440   31.5504  H     
60   H        28.4058    1.8867   30.4743  H     
61   H        31.7272   -1.5879   29.9667  H     
62   H        30.8283    0.5718   30.5520  H     
63   H        27.0444   -1.1969   31.2041  H     
64   H        27.9660   -3.3476   30.6340  H     
65   H        30.3013   -3.5542   29.9997  H     
66   H        29.1534    3.2896   35.0809  H     
67   H        30.0086    4.1618   33.7874  H     
68   H        28.0771    5.6325   33.6901  H     
69   H        27.4532    4.9132   35.0432  H     
70   H        27.1779    3.6414   31.5513  H     
71   H        30.0706    6.2622   34.9603  H     
72   H        30.0192    8.8156   35.8085  H     
73   H        28.4443    9.4411   36.3088  H     
74   H        28.3174    7.8694   34.3193  H     
75   H        27.3108    7.3765   35.6935  H     
76   H        28.2532    5.5189   37.3260  H     
77   H        29.7982    4.7566   36.9361  H     
78   H        30.0362    6.5186   38.7215  H     
79   H        30.9879    6.9341   37.2934  H     
@<TRIPOS>BOND
     1    1    2 1
     2    1    6 2
     3    2    3 2
     4    2   11 1
     5    3    4 1
     6    4    5 2
     7    4    8 1
     8    5    6 1
     9    6    7 1
    10    7   19 2
    11    7   20 am
    12    8    9 1
    13    9   10 1
    14   11   15 1
    15   11   16 1
    16   12   13 1
    17   12   16 1
    18   13   14 1
    19   14   15 1
    20   16   17 2
    21   16   18 2
    22   20   21 1
    23   21   22 1
    24   21   23 1
    25   22   30 1
    26   22   32 1
    27   23   24 1
    28   24   26 1
    29   24   27 2
    30   25   26 2
    31   25   29 1
    32   27   28 1
    33   28   29 2
    34   30   31 1
    35   31   33 1
    36   33   35 1
    37   33   36 1
    38   34   35 1
    39   34   38 1
    40   36   37 1
    41   37   38 1
    42    1   39 1
    43    3   40 1
    44    5   41 1
    45    8   42 1
    46    9   43 1
    47    9   44 1
    48   10   45 1
    49   10   46 1
    50   10   47 1
    51   12   48 1
    52   12   49 1
    53   13   50 1
    54   13   51 1
    55   14   52 1
    56   14   53 1
    57   15   54 1
    58   15   55 1
    59   20   56 1
    60   21   57 1
    61   22   58 1
    62   23   59 1
    63   23   60 1
    64   25   61 1
    65   26   62 1
    66   27   63 1
    67   28   64 1
    68   29   65 1
    69   30   66 1
    70   30   67 1
    71   31   68 1
    72   31   69 1
    73   32   70 1
    74   33   71 1
    75   34   72 1
    76   34   73 1
    77   35   74 1
    78   35   75 1
    79   36   76 1
    80   36   77 1
    81   37   78 1
    82   37   79 1
@<TRIPOS>PROPERTY_DATA
  Total_Score	| 15.5495
  Crash		| -2.6510
  Polar		| 6.1581
  FragIndex	| 1
  FragRMSD	| 1.091

