@<TRIPOS>MOLECULE
BindingDB_26502
 81 84 0 0 0
SMALL
NO_CHARGES


@<TRIPOS>ATOM
1    C        31.1941   -0.4074   36.2871  C     
2    C        31.3003   -1.5443   37.1254  C     
3    C        30.6727   -2.7434   36.7263  C     
4    C        29.9697   -2.8339   35.5061  C     
5    C        29.8583   -1.6737   34.6995  C     
6    C        30.4477   -0.4443   35.0829  C     
7    C        30.3411    0.6858   34.2649  C     
8    O        31.2873    1.4555   34.1766  O     
9    N        29.2216    0.9223   33.5908  N     
10   C        29.0253    1.8835   32.5287  C     
11   C        28.2951    1.1988   31.3288  C     
12   C        28.8357   -0.1331   30.9349  C     
13   C        30.7109   -1.5468   30.2220  C     
14   C        30.1877   -0.2812   30.5416  C     
15   C        28.0198   -1.2890   30.9854  C     
16   C        28.5424   -2.5531   30.6586  C     
17   C        29.8900   -2.6888   30.2780  C     
18   C        28.2556    3.1286   33.0674  C     
19   C        29.0441    3.9366   34.1323  C     
20   O        27.9675    4.0271   31.9920  O     
21   N        28.3157    5.1873   34.4607  N     
22   C        29.1010    6.2821   35.0766  C     
23   C        29.9297    7.0200   34.0862  C     
24   C        29.3303    7.7000   32.9974  C     
25   C        31.3414    7.0345   34.1930  C     
26   C        32.1235    7.6929   33.2341  C     
27   C        31.5122    8.3550   32.1520  C     
28   C        30.1004    8.3754   32.0216  C     
29   C        29.4146    9.0717   30.8956  C     
30   F        30.2638    9.6829   30.0018  F     
31   F        28.6582    8.1736   30.1740  F     
32   F        28.5840   10.0501   31.3917  F     
33   N        29.5015   -4.0565   35.1481  N     
34   C        29.3204   -4.5805   33.8392  C     
35   C        27.8454   -4.5482   33.3777  C     
36   C        31.8536   -0.5707   40.9445  C     
37   C        33.3831   -0.4111   40.7989  C     
38   C        33.8273   -0.1164   39.3368  C     
39   C        33.4252   -1.2404   38.3357  C     
40   N        32.0057   -1.4843   38.2925  N     
41   S        31.2459   -1.8020   39.7727  S     
42   O        29.6738   -1.6018   39.7122  O     
43   O        31.6032   -3.2671   40.2833  O     
44   H        31.6461    0.4640   36.5708  H     
45   H        30.7718   -3.5773   37.3095  H     
46   H        29.3321   -1.7281   33.8226  H     
47   H        28.4683    0.3321   33.7579  H     
48   H        29.9853    2.2315   32.1401  H     
49   H        27.2288    1.1173   31.5688  H     
50   H        28.3652    1.8443   30.4463  H     
51   H        31.6893   -1.6444   29.9432  H     
52   H        30.8056    0.5320   30.4956  H     
53   H        27.0385   -1.2249   31.2677  H     
54   H        27.9433   -3.3777   30.7048  H     
55   H        30.2659   -3.6091   30.0382  H     
56   H        27.3027    2.8084   33.5121  H     
57   H        29.1560    3.3468   35.0466  H     
58   H        30.0403    4.1727   33.7481  H     
59   H        27.0609    3.8115   31.6992  H     
60   H        27.8974    5.5527   33.6042  H     
61   H        27.5543    4.9482   35.0999  H     
62   H        28.3999    6.9871   35.5235  H     
63   H        29.7030    5.8741   35.8937  H     
64   H        28.3089    7.6888   32.9029  H     
65   H        31.8082    6.5653   34.9717  H     
66   H        33.1446    7.6871   33.3119  H     
67   H        32.1067    8.8235   31.4633  H     
68   H        29.3254   -4.6832   35.8738  H     
69   H        29.9622   -4.0664   33.1176  H     
70   H        29.6431   -5.6166   33.8463  H     
71   H        27.2211   -5.1302   34.0624  H     
72   H        27.7567   -4.9915   32.3825  H     
73   H        27.4722   -3.5225   33.3303  H     
74   H        31.5895   -0.8868   41.9598  H     
75   H        31.3601    0.3798   40.7387  H     
76   H        33.7116    0.4055   41.4503  H     
77   H        33.8711   -1.3276   41.1454  H     
78   H        33.3944    0.8314   39.0153  H     
79   H        34.9147   -0.0031   39.3239  H     
80   H        33.8246   -0.9619   37.3566  H     
81   H        33.9315   -2.1610   38.6303  H     
@<TRIPOS>BOND
     1    1    2 2
     2    1    6 1
     3    2    3 1
     4    2   40 1
     5    3    4 2
     6    4    5 1
     7    4   33 1
     8    5    6 2
     9    6    7 1
    10    7    8 2
    11    7    9 am
    12    9   10 1
    13   10   11 1
    14   10   18 1
    15   11   12 1
    16   12   14 2
    17   12   15 1
    18   13   14 1
    19   13   17 2
    20   15   16 2
    21   16   17 1
    22   18   19 1
    23   18   20 1
    24   19   21 1
    25   21   22 1
    26   22   23 1
    27   23   24 2
    28   23   25 1
    29   24   28 1
    30   25   26 2
    31   26   27 1
    32   27   28 2
    33   28   29 1
    34   29   30 1
    35   29   31 1
    36   29   32 1
    37   33   34 1
    38   34   35 1
    39   36   37 1
    40   36   41 1
    41   37   38 1
    42   38   39 1
    43   39   40 1
    44   40   41 1
    45   41   42 2
    46   41   43 2
    47    1   44 1
    48    3   45 1
    49    5   46 1
    50    9   47 1
    51   10   48 1
    52   11   49 1
    53   11   50 1
    54   13   51 1
    55   14   52 1
    56   15   53 1
    57   16   54 1
    58   17   55 1
    59   18   56 1
    60   19   57 1
    61   19   58 1
    62   20   59 1
    63   21   60 1
    64   21   61 1
    65   22   62 1
    66   22   63 1
    67   24   64 1
    68   25   65 1
    69   26   66 1
    70   27   67 1
    71   33   68 1
    72   34   69 1
    73   34   70 1
    74   35   71 1
    75   35   72 1
    76   35   73 1
    77   36   74 1
    78   36   75 1
    79   37   76 1
    80   37   77 1
    81   38   78 1
    82   38   79 1
    83   39   80 1
    84   39   81 1
@<TRIPOS>PROPERTY_DATA
  Total_Score	| 15.8842
  Crash		| -1.9322
  Polar		| 6.3687
  FragIndex	| 1
  FragRMSD	| 0.779

