@<TRIPOS>MOLECULE
BindingDB_26788
 81 84 0 0 0
SMALL
NO_CHARGES


@<TRIPOS>ATOM
1    C        31.1170   -0.3423   36.3221  C     
2    C        31.2347   -1.4639   37.1826  C     
3    C        30.6411   -2.6844   36.7977  C     
4    C        29.8769   -1.6833   34.7192  C     
5    C        30.4201   -0.4309   35.0893  C     
6    C        29.9944   -2.8183   35.5522  C     
7    C        29.3171   -4.5326   33.8784  C     
8    C        27.8123   -4.5554   33.4736  C     
9    C        30.2836    0.6481   34.2215  C     
10   O        31.2451    1.4122   34.0917  O     
11   N        29.1496    0.9049   33.5732  N     
12   C        28.9551    1.8866   32.5265  C     
13   C        28.2151    1.2141   31.3230  C     
14   C        28.2040    3.1482   33.0754  C     
15   C        29.0412    3.9466   34.1169  C     
16   O        27.8997    4.0545   32.0108  O     
17   N        28.3088    5.1692   34.5234  N     
18   N        29.5736   -4.0599   35.2048  N     
19   C        29.0952    6.3056   35.0625  C     
20   C        29.9348    6.9899   34.0418  C     
21   C        29.3574    7.5282   32.8678  C     
22   C        31.3350    7.1080   34.2067  C     
23   C        32.1306    7.7671   33.2462  C     
24   C        31.5325    8.2894   32.0826  C     
25   C        30.1351    8.1708   31.8684  C     
26   C        28.7699   -0.1157   30.9337  C     
27   C        30.6755   -1.5112   30.2425  C     
28   C        30.1224   -0.2498   30.5290  C     
29   C        27.9736   -1.2867   30.9825  C     
30   C        28.5178   -2.5487   30.6661  C     
31   C        29.8699   -2.6653   30.3029  C     
32   C        31.9407   -0.5507   40.9856  C     
33   C        33.4698   -0.3831   40.7813  C     
34   C        33.8404   -0.0606   39.3046  C     
35   C        33.4051   -1.1833   38.3161  C     
36   N        31.9793   -1.4125   38.3315  N     
37   S        31.2832   -1.7664   39.8232  S     
38   O        31.5892   -3.2407   40.3451  O     
39   O        29.7120   -1.4994   39.8367  O     
40   F        31.6037    0.8040   36.7168  F     
41   C        29.4724    8.6641   30.6250  C     
42   F        30.3130    9.3195   29.7472  F     
43   F        28.9356    7.5946   29.9424  F     
44   F        28.4582    9.5395   30.9346  F     
45   H        30.7221   -3.4938   37.4167  H     
46   H        29.4083   -1.7805   33.8164  H     
47   H        29.6901   -5.5503   33.8140  H     
48   H        29.8799   -3.9583   33.1321  H     
49   H        27.2494   -5.1425   34.1946  H     
50   H        27.7217   -5.0320   32.4857  H     
51   H        27.4009   -3.5428   33.4151  H     
52   H        28.3884    0.3463   33.7933  H     
53   H        29.9107    2.2335   32.1460  H     
54   H        27.1562    1.1244   31.5697  H     
55   H        28.2846    1.8696   30.4516  H     
56   H        27.2662    2.8488   33.5415  H     
57   H        29.2462    3.3378   34.9978  H     
58   H        29.9995    4.2158   33.6601  H     
59   H        27.1008    3.7016   31.5679  H     
60   H        27.7786    5.5163   33.7329  H     
61   H        27.6264    4.8965   35.2461  H     
62   H        29.6245   -4.7581   35.8890  H     
63   H        28.3936    7.0424   35.4445  H     
64   H        29.6942    5.9629   35.9075  H     
65   H        28.3469    7.4598   32.7345  H     
66   H        31.7982    6.7401   35.0401  H     
67   H        33.1378    7.8623   33.3850  H     
68   H        32.1306    8.7529   31.3912  H     
69   H        31.6641   -1.6002   29.9912  H     
70   H        30.7277    0.5727   30.4610  H     
71   H        26.9925   -1.2370   31.2669  H     
72   H        27.9302   -3.3841   30.7069  H     
73   H        30.2668   -3.5830   30.0916  H     
74   H        31.7147   -0.8744   42.0055  H     
75   H        31.4469    0.4062   40.8036  H     
76   H        33.8192    0.4267   41.4249  H     
77   H        33.9761   -1.3045   41.0961  H     
78   H        33.3719    0.8819   39.0085  H     
79   H        34.9257    0.0687   39.2384  H     
80   H        33.7621   -0.9140   37.3220  H     
81   H        33.9175   -2.1144   38.5931  H     
@<TRIPOS>BOND
     1    1    2 2
     2    1    5 1
     3    1   40 1
     4    2    3 1
     5    2   36 1
     6    3    6 2
     7    4    5 2
     8    4    6 1
     9    5    9 1
    10    6   18 1
    11    7    8 1
    12    7   18 1
    13    9   10 2
    14    9   11 am
    15   11   12 1
    16   12   13 1
    17   12   14 1
    18   13   26 1
    19   14   15 1
    20   14   16 1
    21   15   17 1
    22   17   19 1
    23   19   20 1
    24   20   21 2
    25   20   22 1
    26   21   25 1
    27   22   23 2
    28   23   24 1
    29   24   25 2
    30   25   41 1
    31   26   28 2
    32   26   29 1
    33   27   28 1
    34   27   31 2
    35   29   30 2
    36   30   31 1
    37   32   33 1
    38   32   37 1
    39   33   34 1
    40   34   35 1
    41   35   36 1
    42   36   37 1
    43   37   38 2
    44   37   39 2
    45   41   42 1
    46   41   43 1
    47   41   44 1
    48    3   45 1
    49    4   46 1
    50    7   47 1
    51    7   48 1
    52    8   49 1
    53    8   50 1
    54    8   51 1
    55   11   52 1
    56   12   53 1
    57   13   54 1
    58   13   55 1
    59   14   56 1
    60   15   57 1
    61   15   58 1
    62   16   59 1
    63   17   60 1
    64   17   61 1
    65   18   62 1
    66   19   63 1
    67   19   64 1
    68   21   65 1
    69   22   66 1
    70   23   67 1
    71   24   68 1
    72   27   69 1
    73   28   70 1
    74   29   71 1
    75   30   72 1
    76   31   73 1
    77   32   74 1
    78   32   75 1
    79   33   76 1
    80   33   77 1
    81   34   78 1
    82   34   79 1
    83   35   80 1
    84   35   81 1
@<TRIPOS>PROPERTY_DATA
  Total_Score	| 16.2785
  Crash		| -1.8790
  Polar		| 6.2754
  FragIndex	| 1
  FragRMSD	| 0.753

