@<TRIPOS>MOLECULE
BindingDB_26509
 81 84 0 0 0
SMALL
NO_CHARGES


@<TRIPOS>ATOM
1    C        31.1416   -0.4592   36.3285  C     
2    C        31.2683   -1.5933   37.1615  C     
3    C        30.6579   -2.8030   36.7690  C     
4    C        29.9662   -2.9113   35.5456  C     
5    C        29.8081   -1.7450   34.7571  C     
6    C        30.3875   -0.5043   35.1316  C     
7    C        30.3031    0.6054   34.2891  C     
8    O        31.2641    1.3607   34.2058  O     
9    N        29.1930    0.8743   33.6086  N     
10   C        29.0249    1.8506   32.5573  C     
11   C        28.2894    1.1830   31.3542  C     
12   C        28.8388   -0.1476   30.9518  C     
13   C        28.5758   -2.5775   30.6887  C     
14   C        28.0403   -1.3164   31.0205  C     
15   C        30.1837   -0.2795   30.5301  C     
16   C        30.7248   -1.5382   30.2136  C     
17   C        29.9196   -2.6893   30.2860  C     
18   C        28.2838    3.1214   33.0896  C     
19   C        29.1049    3.8881   34.1598  C     
20   O        28.0200    4.0502   32.0315  O     
21   N        28.3966    5.1044   34.6335  N     
22   N        29.5349   -4.1521   35.1900  N     
23   C        29.0676   -4.5748   33.9081  C     
24   C        27.5367   -4.4366   33.7618  C     
25   C        31.8914   -0.3351   40.8190  C     
26   C        33.4265   -0.2488   40.6633  C     
27   C        33.8701   -0.1156   39.1824  C     
28   C        33.4298   -1.3257   38.3088  C     
29   N        32.0043   -1.5316   38.3107  N     
30   S        31.2461   -1.6842   39.8143  S     
31   O        31.5557   -3.0897   40.4879  O     
32   O        29.6757   -1.4491   39.7404  O     
33   C        29.1993    6.0370   35.4701  C     
34   C        30.5320    8.2407   35.4433  C     
35   C        29.7618    7.1977   34.5999  C     
36   C        28.3250    6.6040   36.6239  C     
37   C        29.1032    7.6259   37.4894  C     
38   C        29.6813    8.7743   36.6239  C     
39   H        31.5960    0.4145   36.6141  H     
40   H        30.7878   -3.6341   37.3543  H     
41   H        29.2949   -1.8085   33.8770  H     
42   H        28.4290    0.3062   33.7865  H     
43   H        29.9967    2.1816   32.1865  H     
44   H        27.2301    1.0932   31.6085  H     
45   H        28.3511    1.8393   30.4823  H     
46   H        27.9928   -3.4133   30.7475  H     
47   H        27.0628   -1.2664   31.3195  H     
48   H        30.7859    0.5460   30.4613  H     
49   H        31.7059   -1.6205   29.9335  H     
50   H        30.3114   -3.6041   30.0533  H     
51   H        27.3223    2.8328   33.5269  H     
52   H        29.2724    3.2451   35.0322  H     
53   H        30.0794    4.1678   33.7399  H     
54   H        27.2215    3.7206   31.5613  H     
55   H        28.0527    5.6206   33.8107  H     
56   H        27.5824    4.7937   35.1800  H     
57   H        29.6566   -4.8606   35.8484  H     
58   H        29.5745   -4.0323   33.1040  H     
59   H        29.3333   -5.6246   33.7844  H     
60   H        27.0248   -5.0385   34.5187  H     
61   H        27.2283   -4.7849   32.7745  H     
62   H        27.2447   -3.3937   33.8742  H     
63   H        31.6103   -0.4941   41.8581  H     
64   H        31.4421    0.5945   40.4741  H     
65   H        33.7876    0.6218   41.2163  H     
66   H        33.8870   -1.1372   41.1034  H     
67   H        33.4573    0.8013   38.7537  H     
68   H        34.9603   -0.0356   39.1415  H     
69   H        33.8086   -1.1704   37.2954  H     
70   H        33.9079   -2.2326   38.6904  H     
71   H        30.0394    5.5047   35.9323  H     
72   H        31.4398    7.7826   35.8360  H     
73   H        30.8326    9.0741   34.8086  H     
74   H        30.4275    6.7935   33.8359  H     
75   H        28.9351    7.7009   34.0798  H     
76   H        27.4308    7.0874   36.2058  H     
77   H        27.9862    5.7835   37.2629  H     
78   H        28.4388    8.0383   38.2515  H     
79   H        29.9192    7.1135   38.0036  H     
80   H        30.2906    9.4285   37.2506  H     
81   H        28.8543    9.3724   36.2339  H     
@<TRIPOS>BOND
     1    1    2 2
     2    1    6 1
     3    2    3 1
     4    2   29 1
     5    3    4 2
     6    4    5 1
     7    4   22 1
     8    5    6 2
     9    6    7 1
    10    7    8 2
    11    7    9 am
    12    9   10 1
    13   10   11 1
    14   10   18 1
    15   11   12 1
    16   12   14 2
    17   12   15 1
    18   13   14 1
    19   13   17 2
    20   15   16 2
    21   16   17 1
    22   18   19 1
    23   18   20 1
    24   19   21 1
    25   21   33 1
    26   22   23 1
    27   23   24 1
    28   25   26 1
    29   25   30 1
    30   26   27 1
    31   27   28 1
    32   28   29 1
    33   29   30 1
    34   30   31 2
    35   30   32 2
    36   33   35 1
    37   33   36 1
    38   34   35 1
    39   34   38 1
    40   36   37 1
    41   37   38 1
    42    1   39 1
    43    3   40 1
    44    5   41 1
    45    9   42 1
    46   10   43 1
    47   11   44 1
    48   11   45 1
    49   13   46 1
    50   14   47 1
    51   15   48 1
    52   16   49 1
    53   17   50 1
    54   18   51 1
    55   19   52 1
    56   19   53 1
    57   20   54 1
    58   21   55 1
    59   21   56 1
    60   22   57 1
    61   23   58 1
    62   23   59 1
    63   24   60 1
    64   24   61 1
    65   24   62 1
    66   25   63 1
    67   25   64 1
    68   26   65 1
    69   26   66 1
    70   27   67 1
    71   27   68 1
    72   28   69 1
    73   28   70 1
    74   33   71 1
    75   34   72 1
    76   34   73 1
    77   35   74 1
    78   35   75 1
    79   36   76 1
    80   36   77 1
    81   37   78 1
    82   37   79 1
    83   38   80 1
    84   38   81 1
@<TRIPOS>PROPERTY_DATA
  Total_Score	| 15.9629
  Crash		| -2.0746
  Polar		| 6.2467
  FragIndex	| 1
  FragRMSD	| 0.995

