@<TRIPOS>MOLECULE
BindingDB_26513
 68 70 0 0 0
SMALL
NO_CHARGES


@<TRIPOS>ATOM
1    C        31.1897   -0.4337   36.3109  C     
2    C        31.2766   -1.5521   37.1721  C     
3    C        30.6174   -2.7468   36.8123  C     
4    C        29.9381   -2.8642   35.5857  C     
5    C        29.8117   -1.7095   34.7741  C     
6    C        30.4125   -0.4759   35.1239  C     
7    C        30.3035    0.6347   34.2841  C     
8    O        31.2564    1.3988   34.1853  O     
9    N        29.1754    0.8977   33.6262  N     
10   C        28.9825    1.8879   32.5938  C     
11   C        28.2499    1.2381   31.3813  C     
12   C        28.8088   -0.0849   30.9714  C     
13   C        28.5434   -2.5062   30.6631  C     
14   C        28.0062   -1.2516   31.0020  C     
15   C        30.1545   -0.2085   30.5461  C     
16   C        30.6980   -1.4686   30.2283  C     
17   C        29.8873   -2.6164   30.2691  C     
18   C        28.2334    3.1487   33.1563  C     
19   C        29.0749    3.9132   34.2208  C     
20   O        27.9356    4.0688   32.1031  O     
21   N        28.4088    5.1426   34.7053  N     
22   N        29.4991   -4.1028   35.2550  N     
23   C        29.2921   -4.6142   33.9243  C     
24   C        27.7936   -4.6194   33.4995  C     
25   C        31.8824   -0.5378   40.9551  C     
26   C        33.4138   -0.4104   40.7931  C     
27   C        33.8450   -0.1175   39.3287  C     
28   C        33.4243   -1.2504   38.3471  C     
29   N        32.0097   -1.4893   38.3293  N     
30   S        31.2521   -1.7817   39.8117  S     
31   O        31.5975   -3.2341   40.3643  O     
32   O        29.6737   -1.5865   39.7701  O     
33   C        29.1174    5.8289   35.8048  C     
34   H        31.6646    0.4367   36.5852  H     
35   H        30.7290   -3.5665   37.4215  H     
36   H        29.2989   -1.7741   33.8900  H     
37   H        28.4217    0.3277   33.8184  H     
38   H        29.9428    2.2325   32.2283  H     
39   H        27.1882    1.1395   31.6338  H     
40   H        28.3115    1.9088   30.5167  H     
41   H        27.9541   -3.3386   30.6941  H     
42   H        27.0265   -1.2029   31.2998  H     
43   H        30.7631    0.6126   30.5013  H     
44   H        31.6780   -1.5497   29.9472  H     
45   H        30.2823   -3.5365   30.0320  H     
46   H        27.2910    2.8450   33.6132  H     
47   H        29.2517    3.2517   35.0735  H     
48   H        30.0404    4.1851   33.7867  H     
49   H        27.0510    3.8197   31.7610  H     
50   H        28.3009    5.7918   33.9249  H     
51   H        27.4774    4.8915   35.0455  H     
52   H        29.5177   -4.7772   35.9482  H     
53   H        29.8793   -4.0578   33.1897  H     
54   H        29.6552   -5.6306   33.8917  H     
55   H        27.2033   -5.1872   34.2227  H     
56   H        27.6955   -5.0875   32.5093  H     
57   H        27.4000   -3.6065   33.4565  H     
58   H        31.6114   -0.8180   41.9731  H     
59   H        31.4071    0.4143   40.7270  H     
60   H        33.7638    0.4003   41.4317  H     
61   H        33.8854   -1.3371   41.1410  H     
62   H        33.4027    0.8247   38.9925  H     
63   H        34.9294   -0.0174   39.2956  H     
64   H        33.7846   -0.9880   37.3501  H     
65   H        33.9164   -2.1855   38.6365  H     
66   H        29.2171    5.1683   36.6662  H     
67   H        28.5434    6.7045   36.1011  H     
68   H        30.1100    6.1481   35.4760  H     
@<TRIPOS>BOND
     1    1    2 2
     2    1    6 1
     3    2    3 1
     4    2   29 1
     5    3    4 2
     6    4    5 1
     7    4   22 1
     8    5    6 2
     9    6    7 1
    10    7    8 2
    11    7    9 am
    12    9   10 1
    13   10   11 1
    14   10   18 1
    15   11   12 1
    16   12   14 2
    17   12   15 1
    18   13   14 1
    19   13   17 2
    20   15   16 2
    21   16   17 1
    22   18   19 1
    23   18   20 1
    24   19   21 1
    25   21   33 1
    26   22   23 1
    27   23   24 1
    28   25   26 1
    29   25   30 1
    30   26   27 1
    31   27   28 1
    32   28   29 1
    33   29   30 1
    34   30   31 2
    35   30   32 2
    36    1   34 1
    37    3   35 1
    38    5   36 1
    39    9   37 1
    40   10   38 1
    41   11   39 1
    42   11   40 1
    43   13   41 1
    44   14   42 1
    45   15   43 1
    46   16   44 1
    47   17   45 1
    48   18   46 1
    49   19   47 1
    50   19   48 1
    51   20   49 1
    52   21   50 1
    53   21   51 1
    54   22   52 1
    55   23   53 1
    56   23   54 1
    57   24   55 1
    58   24   56 1
    59   24   57 1
    60   25   58 1
    61   25   59 1
    62   26   60 1
    63   26   61 1
    64   27   62 1
    65   27   63 1
    66   28   64 1
    67   28   65 1
    68   33   66 1
    69   33   67 1
    70   33   68 1
@<TRIPOS>PROPERTY_DATA
  Total_Score	| 14.5662
  Crash		| -1.6635
  Polar		| 6.2341
  FragIndex	| 1
  FragRMSD	| 0.892

