@<TRIPOS>MOLECULE
BindingDB_7719
 49 51 0 0 0
SMALL
NO_CHARGES


@<TRIPOS>ATOM
1    C        -7.5521   49.8305   14.2779  C     
2    C        -7.0328   49.9403   15.5907  C     
3    C        -7.4085   51.0808   16.3542  C     
4    C        -8.2872   52.0563   15.8367  C     
5    C        -8.4781   50.7588   13.7892  C     
6    C        -9.2723   50.7874   12.6657  C     
7    C        -8.8229   51.8634   14.5474  C     
8    N        -9.7435   52.5558   13.8490  N     
9    C       -10.0218   51.9068   12.7383  C     
10   O       -10.7881   52.3151   11.8756  O     
11   N       -10.2530   49.5263   10.8775  N     
12   C       -10.2411   48.5357    9.9403  C     
13   C       -10.3179   46.6166    7.8151  C     
14   C        -9.2569   46.6146    8.7367  C     
15   C        -9.2273   47.5444    9.7844  C     
16   C       -11.3329   48.4830    9.0359  C     
17   C       -11.3736   47.5357    7.9972  C     
18   O        -8.8274   45.5723    5.7721  O     
19   S       -10.2663   45.5513    6.4474  S     
20   O       -10.5441   44.0843    6.9956  O     
21   N       -11.4354   45.9031    5.2994  N     
22   C        -9.3269   49.7503   11.8185  C     
23   C        -6.2508   48.9085   16.1148  C     
24   O        -6.1768   48.7799   17.3325  O     
25   C        -5.3320   48.0479   15.3482  C     
26   C        -5.8160   46.6045   14.9707  C     
27   C        -5.0190   46.0616   13.7501  C     
28   C        -5.7496   45.5735   16.1306  C     
29   H        -7.3177   49.0329   13.6872  H     
30   H        -7.0529   51.2116   17.3057  H     
31   H        -8.5657   52.8657   16.3942  H     
32   H       -10.1433   53.4097   14.0926  H     
33   H       -11.0262   50.1044   10.8544  H     
34   H        -8.4865   45.9429    8.6493  H     
35   H        -8.4323   47.4772   10.4238  H     
36   H       -12.1090   49.1556    9.1280  H     
37   H       -12.1769   47.5373    7.3708  H     
38   H       -11.9250   45.1812    4.8737  H     
39   H       -11.7108   46.8260    5.1392  H     
40   H        -8.6290   49.0630   11.9166  H     
41   H        -5.0509   48.5702   14.4134  H     
42   H        -4.3846   47.9250   15.9085  H     
43   H        -6.8569   46.6514   14.6398  H     
44   H        -5.0488   46.7591   12.9060  H     
45   H        -5.4473   45.1151   13.4017  H     
46   H        -3.9699   45.8821   14.0217  H     
47   H        -4.7288   45.5012   16.5425  H     
48   H        -6.0740   44.5879   15.7596  H     
49   H        -6.4399   45.8713   16.9267  H     
@<TRIPOS>BOND
     1    1    2 1
     2    1    5 2
     3    2    3 2
     4    2   23 1
     5    3    4 1
     6    4    7 2
     7    5    6 1
     8    5    7 1
     9    6    9 1
    10    6   22 2
    11    7    8 1
    12    8    9 1
    13    9   10 2
    14   11   12 1
    15   11   22 1
    16   12   15 2
    17   12   16 1
    18   13   14 2
    19   13   17 1
    20   13   19 1
    21   14   15 1
    22   16   17 2
    23   18   19 2
    24   19   20 2
    25   19   21 am
    26   23   24 2
    27   23   25 1
    28   25   26 1
    29   26   27 1
    30   26   28 1
    31    1   29 1
    32    3   30 1
    33    4   31 1
    34    8   32 1
    35   11   33 1
    36   14   34 1
    37   15   35 1
    38   16   36 1
    39   17   37 1
    40   21   38 1
    41   21   39 1
    42   22   40 1
    43   25   41 1
    44   25   42 1
    45   26   43 1
    46   27   44 1
    47   27   45 1
    48   27   46 1
    49   28   47 1
    50   28   48 1
    51   28   49 1
@<TRIPOS>PROPERTY_DATA
  Total_Score	| 9.0335
  Crash		| -1.5000
  Polar		| 4.2699
  FragIndex	| 1
  FragRMSD	| 0.945

