@<TRIPOS>MOLECULE
BindingDB_7763
 50 52 0 0 0
SMALL
NO_CHARGES


@<TRIPOS>ATOM
1    C        -8.2435   52.6047   15.7514  C     
2    C        -8.7064   50.7897   14.1829  C     
3    C        -9.3888   50.6613   12.9874  C     
4    C        -8.8507   52.1187   14.5822  C     
5    N        -9.6205   52.7331   13.6786  N     
6    C        -9.9564   51.8717   12.7444  C     
7    O       -10.6708   52.1909   11.8044  O     
8    N       -10.1181   49.4541   11.0852  N     
9    C       -10.0298   48.4979   10.1232  C     
10   C       -10.0077   46.5211    8.0701  C     
11   C       -11.0004   47.5232    8.0866  C     
12   C       -11.0083   48.5015    9.1010  C     
13   C        -9.0158   47.5060   10.0821  C     
14   C        -9.0007   46.5362    9.0580  C     
15   O       -11.3049   45.2234    5.9265  O     
16   S        -9.9968   45.2975    6.8253  S     
17   O        -8.8830   45.8139    5.8150  O     
18   C        -7.5079   51.7092   16.5572  C     
19   C        -9.4051   49.5594   12.2090  C     
20   N        -9.4642   43.7576    7.2690  N     
21   C        -7.3801   50.3553   16.1809  C     
22   C        -7.9691   49.8865   14.9861  C     
23   C       -10.0472   42.9923    8.3200  C     
24   C        -9.3330   43.2258    9.6782  C     
25   N        -7.8321   43.1075    9.6653  N     
26   C        -7.2544   43.3481   11.0225  C     
27   C        -7.3269   41.8142    9.1010  C     
28   H        -8.3290   53.5847   16.0100  H     
29   H        -9.9033   53.6631   13.7200  H     
30   H       -10.8176   50.1133   10.9485  H     
31   H       -11.7275   47.5481    7.3651  H     
32   H       -11.7519   49.2077    9.1036  H     
33   H        -8.2731   47.4893   10.7862  H     
34   H        -8.2533   45.8381    9.0445  H     
35   H        -7.0675   52.0423   17.4171  H     
36   H        -8.8746   48.7735   12.4971  H     
37   H        -8.6537   43.4168    6.8493  H     
38   H        -6.8536   49.7071   16.7741  H     
39   H        -7.8722   48.9025   14.7168  H     
40   H       -11.1151   43.2338    8.4350  H     
41   H        -9.9825   41.9338    8.0495  H     
42   H        -9.5990   44.2388   10.0046  H     
43   H        -9.7521   42.5216   10.4099  H     
44   H        -7.4597   43.8648    9.0794  H     
45   H        -7.5768   44.3162   11.4142  H     
46   H        -6.1634   43.3678   10.9805  H     
47   H        -7.5575   42.5746   11.7335  H     
48   H        -7.7302   40.9564    9.6528  H     
49   H        -6.2324   41.7745    9.1377  H     
50   H        -7.6118   41.7183    8.0518  H     
@<TRIPOS>BOND
     1    1    4 2
     2    1   18 1
     3    2    3 1
     4    2    4 1
     5    2   22 2
     6    3    6 1
     7    3   19 2
     8    4    5 1
     9    5    6 1
    10    6    7 2
    11    8    9 1
    12    8   19 1
    13    9   12 2
    14    9   13 1
    15   10   11 2
    16   10   14 1
    17   10   16 1
    18   11   12 1
    19   13   14 2
    20   15   16 2
    21   16   17 2
    22   16   20 1
    23   18   21 2
    24   20   23 1
    25   21   22 1
    26   23   24 1
    27   24   25 1
    28   25   26 1
    29   25   27 1
    30    1   28 1
    31    5   29 1
    32    8   30 1
    33   11   31 1
    34   12   32 1
    35   13   33 1
    36   14   34 1
    37   18   35 1
    38   19   36 1
    39   20   37 1
    40   21   38 1
    41   22   39 1
    42   23   40 1
    43   23   41 1
    44   24   42 1
    45   24   43 1
    46   25   44 1
    47   26   45 1
    48   26   46 1
    49   26   47 1
    50   27   48 1
    51   27   49 1
    52   27   50 1
@<TRIPOS>PROPERTY_DATA
  Total_Score	| 9.2365
  Crash		| -0.7179
  Polar		| 5.0582
  FragIndex	| 1
  FragRMSD	| 0.491

