@<TRIPOS>MOLECULE
BindingDB_7764
 41 44 0 0 0
SMALL
NO_CHARGES


@<TRIPOS>ATOM
1    C        -8.2543   52.6461   15.8049  C     
2    C        -8.7021   50.8044   14.2619  C     
3    C        -9.3408   50.6501   13.0471  C     
4    C        -8.8508   52.1403   14.6387  C     
5    N        -9.5955   52.7416   13.7026  N     
6    C        -9.8954   51.8633   12.7636  C     
7    O       -10.5905   52.1613   11.8017  O     
8    N        -9.8615   49.4162   11.0967  N     
9    C        -9.7471   48.3885   10.2120  C     
10   C        -9.6332   46.3331    8.2564  C     
11   C       -10.4897   47.4409    8.0779  C     
12   C       -10.5373   48.4553    9.0468  C     
13   C        -8.8940   47.2714   10.3909  C     
14   C        -8.8360   46.2527    9.4185  C     
15   O        -8.8830   45.7755    5.7655  O     
16   S        -9.5561   45.0927    7.0387  S     
17   O        -8.5978   43.8800    7.4287  O     
18   C        -7.5187   51.7667   16.6273  C     
19   C        -9.3039   49.5280   12.2972  C     
20   N       -11.0577   44.4967    6.5747  N     
21   C        -7.3865   50.4057   16.2716  C     
22   C        -7.9724   49.9195   15.0854  C     
23   C       -11.9256   43.9309    7.4364  C     
24   C       -12.8801   43.1863    9.3770  C     
25   C       -13.9048   42.7780    8.5114  C     
26   S       -13.4146   43.2327    6.9332  S     
27   N       -11.8287   43.7962    8.7807  N     
28   H        -8.3292   53.6323   16.0362  H     
29   H        -9.8942   53.6684   13.7201  H     
30   H       -10.4389   50.1452   10.8125  H     
31   H       -11.0923   47.5093    7.2505  H     
32   H       -11.1635   49.2536    8.8970  H     
33   H        -8.2901   47.1960   11.2142  H     
34   H        -8.2141   45.4532    9.5620  H     
35   H        -7.0721   52.1169   17.4751  H     
36   H        -8.8199   48.7388   12.6625  H     
37   H       -11.3003   44.5428    5.6342  H     
38   H        -6.8485   49.7729   16.8755  H     
39   H        -7.8610   48.9334   14.8341  H     
40   H       -12.9257   43.0243   10.3819  H     
41   H       -14.7715   42.3086    8.7609  H     
@<TRIPOS>BOND
     1    1    4 2
     2    1   18 1
     3    2    3 1
     4    2    4 1
     5    2   22 2
     6    3    6 1
     7    3   19 2
     8    4    5 1
     9    5    6 1
    10    6    7 2
    11    8    9 1
    12    8   19 1
    13    9   12 2
    14    9   13 1
    15   10   11 2
    16   10   14 1
    17   10   16 1
    18   11   12 1
    19   13   14 2
    20   15   16 2
    21   16   17 2
    22   16   20 1
    23   18   21 2
    24   20   23 1
    25   21   22 1
    26   23   26 1
    27   23   27 2
    28   24   25 2
    29   24   27 1
    30   25   26 1
    31    1   28 1
    32    5   29 1
    33    8   30 1
    34   11   31 1
    35   12   32 1
    36   13   33 1
    37   14   34 1
    38   18   35 1
    39   19   36 1
    40   20   37 1
    41   21   38 1
    42   22   39 1
    43   24   40 1
    44   25   41 1
@<TRIPOS>PROPERTY_DATA
  Total_Score	| 7.2015
  Crash		| -0.8258
  Polar		| 2.9668
  FragIndex	| 1
  FragRMSD	| 0.901

