@<TRIPOS>MOLECULE
BindingDB_7712
 43 45 0 0 0
SMALL
NO_CHARGES


@<TRIPOS>ATOM
1    C        -7.5057   49.9247   14.0902  C     
2    C        -6.6984   50.3467   15.1689  C     
3    C        -6.9763   51.5816   15.8097  C     
4    C        -8.0376   52.3971   15.3682  C     
5    C        -8.5581   50.7469   13.6522  C     
6    C        -9.4560   50.6119   12.6222  C     
7    C        -8.8136   51.9642   14.2778  C     
8    N        -9.8296   52.5345   13.6172  N     
9    C       -10.2014   51.7402   12.6343  C     
10   O       -11.0443   52.0623   11.8099  O     
11   N       -10.3898   49.3978   10.8173  N     
12   C       -10.3830   48.4620    9.8348  C     
13   C       -10.5221   46.6178    7.6785  C     
14   C       -11.5733   47.5296    7.9120  C     
15   C       -11.4951   48.4459    8.9735  C     
16   C        -9.3392   47.5233    9.6167  C     
17   C        -9.4071   46.6135    8.5439  C     
18   O        -9.1362   45.4939    5.6030  O     
19   S       -10.5625   45.5489    6.3063  S     
20   O       -10.8585   44.0813    6.8391  O     
21   N       -11.7486   45.8971    5.1672  N     
22   C        -9.5116   49.5434   11.7979  C     
23   N        -5.6804   49.5449   15.5761  N     
24   C        -6.0024   48.4353   16.4328  C     
25   C        -4.3887   49.6933   14.9539  C     
26   H        -7.3121   49.0343   13.6259  H     
27   H        -6.3970   51.8897   16.5974  H     
28   H        -8.2371   53.2888   15.8232  H     
29   H       -10.1893   53.4223   13.7861  H     
30   H       -11.1418   50.0159   10.7967  H     
31   H       -12.4007   47.5432    7.3110  H     
32   H       -12.2708   49.1000    9.1187  H     
33   H        -8.5099   47.5052   10.2135  H     
34   H        -8.6313   45.9606    8.3919  H     
35   H       -12.4500   45.2474    5.0028  H     
36   H       -11.8723   46.8163    4.8816  H     
37   H        -8.8697   48.8050   11.9476  H     
38   H        -6.4500   48.8118   17.3553  H     
39   H        -5.1376   47.8340   16.6987  H     
40   H        -6.7213   47.7762   15.9399  H     
41   H        -4.4763   49.6282   13.8658  H     
42   H        -3.6772   48.9330   15.2641  H     
43   H        -3.9723   50.6694   15.2132  H     
@<TRIPOS>BOND
     1    1    2 1
     2    1    5 2
     3    2    3 2
     4    2   23 1
     5    3    4 1
     6    4    7 2
     7    5    6 1
     8    5    7 1
     9    6    9 1
    10    6   22 2
    11    7    8 1
    12    8    9 1
    13    9   10 2
    14   11   12 1
    15   11   22 1
    16   12   15 2
    17   12   16 1
    18   13   14 2
    19   13   17 1
    20   13   19 1
    21   14   15 1
    22   16   17 2
    23   18   19 2
    24   19   20 2
    25   19   21 am
    26   23   24 1
    27   23   25 1
    28    1   26 1
    29    3   27 1
    30    4   28 1
    31    8   29 1
    32   11   30 1
    33   14   31 1
    34   15   32 1
    35   16   33 1
    36   17   34 1
    37   21   35 1
    38   21   36 1
    39   22   37 1
    40   24   38 1
    41   24   39 1
    42   24   40 1
    43   25   41 1
    44   25   42 1
    45   25   43 1
@<TRIPOS>PROPERTY_DATA
  Total_Score	| 7.8380
  Crash		| -2.3397
  Polar		| 3.2895
  FragIndex	| 1
  FragRMSD	| 1.069

