@<TRIPOS>MOLECULE
BindingDB_7702
 39 41 0 0 0
SMALL
NO_CHARGES


@<TRIPOS>ATOM
1    C        -7.7713   49.8193   14.8724  C     
2    C        -7.2367   50.2809   16.1038  C     
3    C        -7.4816   51.5902   16.5628  C     
4    C        -8.2994   52.4600   15.8209  C     
5    C        -8.5569   50.7318   14.1047  C     
6    C        -9.2382   50.6682   12.8968  C     
7    C        -8.8316   52.0061   14.6087  C     
8    N        -9.6760   52.6233   13.7784  N     
9    C        -9.9577   51.8161   12.7855  C     
10   O       -10.6943   52.1563   11.8720  O     
11   N       -10.0220   49.5121   10.9921  N     
12   C        -9.9949   48.5996    9.9843  C     
13   C       -10.1776   46.7037    7.8701  C     
14   C        -8.9930   46.8187    8.6206  C     
15   C        -8.9032   47.7558    9.6647  C     
16   C       -11.1758   48.4763    9.2199  C     
17   C       -11.2680   47.5400    8.1754  C     
18   O        -8.8571   45.4502    5.8243  O     
19   S       -10.2626   45.5571    6.5652  S     
20   O       -10.5710   44.1406    7.2263  O     
21   N       -11.4810   45.8646    5.4508  N     
22   C        -7.4923   48.4188   14.4466  C     
23   C        -9.1284   49.7007   11.9684  C     
24   O        -8.6792   47.7276   14.0392  O     
25   H        -6.6553   49.6672   16.6859  H     
26   H        -7.0794   51.9017   17.4500  H     
27   H        -8.4982   53.4009   16.1551  H     
28   H       -10.0391   53.5180   13.8958  H     
29   H       -10.8398   50.0261   11.0559  H     
30   H        -8.1895   46.2237    8.4114  H     
31   H        -8.0270   47.8136   10.1822  H     
32   H       -11.9965   49.0507    9.4316  H     
33   H       -12.1402   47.4676    7.6480  H     
34   H       -11.9503   45.1296    5.0307  H     
35   H       -11.6874   46.7812    5.1934  H     
36   H        -6.7922   48.4457   13.6110  H     
37   H        -7.0222   47.8258   15.2337  H     
38   H        -8.3774   49.0611   12.0641  H     
39   H        -8.7280   46.9278   14.6049  H     
@<TRIPOS>BOND
     1    1    2 1
     2    1    5 2
     3    1   22 1
     4    2    3 2
     5    3    4 1
     6    4    7 2
     7    5    6 1
     8    5    7 1
     9    6    9 1
    10    6   23 2
    11    7    8 1
    12    8    9 1
    13    9   10 2
    14   11   12 1
    15   11   23 1
    16   12   15 2
    17   12   16 1
    18   13   14 2
    19   13   17 1
    20   13   19 1
    21   14   15 1
    22   16   17 2
    23   18   19 2
    24   19   20 2
    25   19   21 am
    26   22   24 1
    27    2   25 1
    28    3   26 1
    29    4   27 1
    30    8   28 1
    31   11   29 1
    32   14   30 1
    33   15   31 1
    34   16   32 1
    35   17   33 1
    36   21   34 1
    37   21   35 1
    38   22   36 1
    39   22   37 1
    40   23   38 1
    41   24   39 1
@<TRIPOS>PROPERTY_DATA
  Total_Score	| 8.5280
  Crash		| -1.0871
  Polar		| 3.3033
  FragIndex	| 1
  FragRMSD	| 0.875

