@<TRIPOS>MOLECULE
BindingDB_50142322
 74 79 0 0 0
SMALL
NO_CHARGES


@<TRIPOS>ATOM
1    N        39.3894   45.7397   53.7290  N     
2    N        40.4664   45.4397   53.0918  N     
3    S        39.8457   50.9299   59.0413  S     
4    C        38.2556   46.4204   53.0711  C     
5    P        35.0496   50.4653   47.2302  P     
6    C        34.5877   50.0364   48.7714  C     
7    N        41.3660   44.9038   53.7896  N     
8    C        39.5869   45.3230   55.0087  C     
9    C        40.2166   52.1902   57.8780  C     
10   C        40.8848   44.8156   55.0304  C     
11   C        39.9411   52.0654   56.4878  C     
12   C        35.6881   49.3581   49.5281  C     
13   O        40.6305   49.6193   58.5970  O     
14   O        40.2913   51.3007   60.5212  O     
15   C        37.5380   47.4271   54.0665  C     
16   C        38.7607   47.2934   51.8295  C     
17   O        35.4861   49.3499   46.4328  O     
18   C        39.3662   50.9080   55.9230  C     
19   C        37.3439   45.3200   52.5343  C     
20   N        38.2177   50.5225   59.0682  N     
21   F        33.4802   49.2225   48.6914  F     
22   F        34.1386   51.1769   49.4029  F     
23   O        33.9030   51.1350   46.4562  O     
24   O        36.1962   51.4864   47.2092  O     
25   C        36.4565   50.0460   50.5040  C     
26   C        36.0128   48.0008   49.2723  C     
27   C        37.9654   50.7511   55.8633  C     
28   C        40.1928   49.9154   55.3654  C     
29   C        38.2276   48.5988   54.6971  C     
30   C        37.7401   48.0140   51.0138  C     
31   C        37.4086   49.6023   55.2731  C     
32   C        39.6289   48.7830   54.7580  C     
33   C        37.4684   49.3905   51.2263  C     
34   C        37.0186   47.3407   50.0023  C     
35   C        38.8484   45.3283   56.2241  C     
36   C        40.8346   53.3754   58.3422  C     
37   C        40.2841   53.1137   55.6047  C     
38   C        41.5031   44.3298   56.1917  C     
39   C        35.9207   45.3335   52.6427  C     
40   C        37.9010   44.2242   51.8165  C     
41   C        39.4554   44.8860   57.4138  C     
42   C        40.8795   54.2882   56.0876  C     
43   C        41.1577   54.4201   57.4564  C     
44   C        40.7814   44.3911   57.4037  C     
45   C        37.1100   43.2347   51.2130  C     
46   C        35.1218   44.3435   52.0378  C     
47   C        35.7119   43.2998   51.3108  C     
48   H        36.6746   47.8455   53.5299  H     
49   H        37.1068   46.8677   54.8817  H     
50   H        39.4769   48.0315   52.1924  H     
51   H        39.3512   46.6835   51.1477  H     
52   H        37.9343   49.6886   59.4795  H     
53   H        37.5538   51.1315   58.7083  H     
54   H        36.2867   51.0405   50.6921  H     
55   H        35.5100   47.4759   48.5494  H     
56   H        37.3428   51.4705   56.2448  H     
57   H        41.2147   50.0160   55.3782  H     
58   H        36.3911   49.5125   55.2496  H     
59   H        40.2775   48.1086   54.3646  H     
60   H        37.9986   49.9221   51.9225  H     
61   H        37.2245   46.3631   49.7877  H     
62   H        37.8847   45.6340   56.2666  H     
63   H        41.0624   53.4962   59.3312  H     
64   H        40.1018   53.0305   54.5997  H     
65   H        42.4581   43.9669   56.1652  H     
66   H        35.4339   46.0735   53.1467  H     
67   H        38.9109   44.1309   51.7102  H     
68   H        38.9360   44.9088   58.2987  H     
69   H        41.1124   55.0485   55.4421  H     
70   H        41.5983   55.2738   57.8078  H     
71   H        41.2128   44.0643   58.2699  H     
72   H        37.5524   42.4644   50.7003  H     
73   H        34.1006   44.3924   52.1133  H     
74   H        35.1299   42.5889   50.8584  H     
@<TRIPOS>BOND
     1    1    2 1
     2    1    4 1
     3    1    8 1
     4    2    7 2
     5    3    9 1
     6    3   13 2
     7    3   14 2
     8    3   20 am
     9    4   15 1
    10    4   16 1
    11    4   19 1
    12    5    6 1
    13    5   17 2
    14    5   23 1
    15    5   24 1
    16    6   12 1
    17    6   21 1
    18    6   22 1
    19    7   10 1
    20    8   10 2
    21    8   35 1
    22    9   11 2
    23    9   36 1
    24   10   38 1
    25   11   18 1
    26   11   37 1
    27   12   25 1
    28   12   26 2
    29   15   29 1
    30   16   30 1
    31   18   27 2
    32   18   28 1
    33   19   39 1
    34   19   40 2
    35   25   33 2
    36   26   34 1
    37   27   31 1
    38   28   32 2
    39   29   31 2
    40   29   32 1
    41   30   33 1
    42   30   34 2
    43   35   41 2
    44   36   43 2
    45   37   42 2
    46   38   44 2
    47   39   46 2
    48   40   45 1
    49   41   44 1
    50   42   43 1
    51   45   47 2
    52   46   47 1
    53   15   48 1
    54   15   49 1
    55   16   50 1
    56   16   51 1
    57   20   52 1
    58   20   53 1
    59   25   54 1
    60   26   55 1
    61   27   56 1
    62   28   57 1
    63   31   58 1
    64   32   59 1
    65   33   60 1
    66   34   61 1
    67   35   62 1
    68   36   63 1
    69   37   64 1
    70   38   65 1
    71   39   66 1
    72   40   67 1
    73   41   68 1
    74   42   69 1
    75   43   70 1
    76   44   71 1
    77   45   72 1
    78   46   73 1
    79   47   74 1
@<TRIPOS>PROPERTY_DATA
  Total_Score	| 13.1194
  Crash		| -1.3022
  Polar		| 7.3681
  FragIndex	| 1
  FragRMSD	| 0.594

