@<TRIPOS>MOLECULE
BindingDB_13605
 100 106 0 0 0
SMALL
NO_CHARGES


@<TRIPOS>ATOM
1    C        37.8411   50.2585   55.6346  C     
2    C        36.7067   49.5036   55.3005  C     
3    C        36.8353   48.3442   54.5114  C     
4    C        38.0988   47.9046   54.0264  C     
5    C        39.2249   48.6989   54.3844  C     
6    C        39.1033   49.8582   55.1716  C     
7    C        37.0615   45.6735   53.1042  C     
8    C        37.1611   44.4098   52.2975  C     
9    C        38.0122   43.3473   52.6856  C     
10   C        38.0513   42.1405   51.9632  C     
11   C        37.2384   41.9372   50.8210  C     
12   C        36.3723   42.9904   50.4406  C     
13   C        36.3230   44.1888   51.1754  C     
14   C        37.2687   40.6977   50.1065  C     
15   C        38.5005   40.0544   49.8474  C     
16   C        36.0916   38.8012   49.0151  C     
17   C        36.0803   40.0626   49.6640  C     
18   C        38.3038   46.6612   53.1638  C     
19   C        38.6385   47.1467   51.6896  C     
20   C        37.6062   47.9343   50.9436  C     
21   C        36.9023   47.3613   49.8607  C     
22   C        35.9118   48.0815   49.1721  C     
23   C        35.6236   49.4288   49.4972  C     
24   C        36.3788   50.0236   50.5363  C     
25   C        37.3557   49.2936   51.2381  C     
26   C        34.5709   50.1849   48.7481  C     
27   F        33.4143   49.4394   48.6947  F     
28   F        34.2083   51.3609   49.3691  F     
29   P        35.0422   50.5723   47.2001  P     
30   O        36.1354   51.5110   47.1583  O     
31   O        35.4863   49.3575   46.3680  O     
32   O        33.8928   51.2206   46.4136  O     
33   N        39.4246   45.9144   53.7493  N     
34   N        40.4411   45.4916   53.0855  N     
35   N        41.2965   44.8889   53.7905  N     
36   C        40.8504   44.8884   55.0467  C     
37   C        39.6265   45.5476   55.0380  C     
38   C        39.4531   45.1915   57.4396  C     
39   C        38.9137   45.7147   56.2436  C     
40   C        41.4077   44.3621   56.2241  C     
41   C        40.6949   44.5199   57.4291  C     
42   P        34.6958   38.1579   48.5303  P     
43   O        34.1910   38.8692   47.3862  O     
44   O        34.7241   36.6665   48.1293  O     
45   O        33.6009   38.2864   49.5998  O     
46   C        38.5526   38.8030   49.2020  C     
47   C        37.3458   38.1682   48.8005  C     
48   C        39.7902   38.1686   48.9465  C     
49   C        39.8267   36.9239   48.2992  C     
50   C        38.6176   36.3042   47.9306  C     
51   N        37.4551   36.9593   48.1934  N     
52   C        38.5598   34.9938   47.2327  C     
53   C        37.9535   33.8983   48.1605  C     
54   C        38.8186   33.5656   49.4338  C     
55   C        37.9481   33.1664   50.6563  C     
56   C        39.8932   32.4778   49.1553  C     
57   O        37.7422   35.1200   46.0400  O     
58   C        38.2257   35.9939   44.9893  C     
59   O        37.2151   36.9718   44.6847  O     
60   C        36.1584   36.5253   43.8085  C     
61   H        37.7482   51.0966   56.2129  H     
62   H        35.7851   49.7955   55.6349  H     
63   H        35.9784   47.8345   54.2993  H     
64   H        40.1604   48.4306   54.0750  H     
65   H        39.9333   50.4046   55.4107  H     
66   H        36.2080   46.2428   52.7288  H     
67   H        36.7927   45.3777   54.1205  H     
68   H        38.5840   43.4237   53.5262  H     
69   H        38.6619   41.3919   52.3004  H     
70   H        35.7640   42.8946   49.6203  H     
71   H        35.6483   44.9033   50.8893  H     
72   H        39.3722   40.5108   50.1267  H     
73   H        35.1853   40.5231   49.8485  H     
74   H        39.5523   47.7460   51.6956  H     
75   H        38.8886   46.2601   51.1043  H     
76   H        37.1022   46.4050   49.5616  H     
77   H        35.4050   47.6125   48.4173  H     
78   H        36.2377   51.0051   50.7856  H     
79   H        37.8966   49.7760   51.9580  H     
80   H        38.9431   45.3057   58.3173  H     
81   H        38.0185   46.2035   56.2610  H     
82   H        42.3098   43.8812   56.2044  H     
83   H        41.0784   44.1449   58.2995  H     
84   H        40.6760   38.6080   49.2180  H     
85   H        40.7247   36.4709   48.1064  H     
86   H        39.5596   34.6594   46.9289  H     
87   H        36.9546   34.2304   48.4599  H     
88   H        37.8023   32.9903   47.5698  H     
89   H        39.3651   34.4578   49.7397  H     
90   H        37.2487   33.9702   50.8976  H     
91   H        38.5753   32.9960   51.5260  H     
92   H        37.3796   32.2597   50.4476  H     
93   H        39.4231   31.5208   48.9239  H     
94   H        40.5351   32.3522   50.0259  H     
95   H        40.5224   32.7701   48.3146  H     
96   H        39.1231   36.5578   45.2863  H     
97   H        38.4940   35.3954   44.1159  H     
98   H        36.5523   36.3627   42.7955  H     
99   H        35.4090   37.3074   43.7676  H     
100  H        35.6857   35.6063   44.1745  H     
@<TRIPOS>BOND
     1    1    2 2
     2    1    6 1
     3    2    3 1
     4    3    4 2
     5    4    5 1
     6    4   18 1
     7    5    6 2
     8    7    8 1
     9    7   18 1
    10    8    9 1
    11    8   13 2
    12    9   10 2
    13   10   11 1
    14   11   12 2
    15   11   14 1
    16   12   13 1
    17   14   15 2
    18   14   17 1
    19   15   46 1
    20   16   17 2
    21   16   42 1
    22   16   47 1
    23   18   19 1
    24   18   33 1
    25   19   20 1
    26   20   21 1
    27   20   25 2
    28   21   22 2
    29   22   23 1
    30   23   24 2
    31   23   26 1
    32   24   25 1
    33   26   27 1
    34   26   28 1
    35   26   29 1
    36   29   30 2
    37   29   31 1
    38   29   32 1
    39   33   34 1
    40   33   37 1
    41   34   35 2
    42   35   36 1
    43   36   37 2
    44   36   40 1
    45   37   39 1
    46   38   39 2
    47   38   41 1
    48   40   41 2
    49   42   43 2
    50   42   44 1
    51   42   45 1
    52   46   47 2
    53   46   48 1
    54   47   51 1
    55   48   49 2
    56   49   50 1
    57   50   51 2
    58   50   52 1
    59   52   53 1
    60   52   57 1
    61   53   54 1
    62   54   55 1
    63   54   56 1
    64   57   58 1
    65   58   59 1
    66   59   60 1
    67    1   61 1
    68    2   62 1
    69    3   63 1
    70    5   64 1
    71    6   65 1
    72    7   66 1
    73    7   67 1
    74    9   68 1
    75   10   69 1
    76   12   70 1
    77   13   71 1
    78   15   72 1
    79   17   73 1
    80   19   74 1
    81   19   75 1
    82   21   76 1
    83   22   77 1
    84   24   78 1
    85   25   79 1
    86   38   80 1
    87   39   81 1
    88   40   82 1
    89   41   83 1
    90   48   84 1
    91   49   85 1
    92   52   86 1
    93   53   87 1
    94   53   88 1
    95   54   89 1
    96   55   90 1
    97   55   91 1
    98   55   92 1
    99   56   93 1
   100   56   94 1
   101   56   95 1
   102   58   96 1
   103   58   97 1
   104   60   98 1
   105   60   99 1
   106   60  100 1
@<TRIPOS>PROPERTY_DATA
  Total_Score	| 19.5959
  Crash		| -1.7821
  Polar		| 11.9610
  FragIndex	| 1
  FragRMSD	| 0.718

