@<TRIPOS>MOLECULE
BindingDB_13599
 72 77 0 0 0
SMALL
NO_CHARGES


@<TRIPOS>ATOM
1    C        37.8640   50.3704   55.5000  C     
2    C        39.1260   49.8958   55.1112  C     
3    C        39.2303   48.6918   54.3921  C     
4    C        38.0897   47.9255   54.0315  C     
5    C        36.8262   48.4259   54.4544  C     
6    C        36.7129   49.6306   55.1723  C     
7    C        37.0159   45.6999   53.1581  C     
8    C        37.0865   44.4237   52.3629  C     
9    C        37.9395   43.3619   52.7423  C     
10   C        37.9825   42.1609   52.0106  C     
11   C        37.1530   41.9613   50.8790  C     
12   C        36.2756   43.0123   50.5145  C     
13   C        36.2365   44.2092   51.2523  C     
14   C        37.1928   40.7339   50.1423  C     
15   C        38.4292   40.1367   49.7959  C     
16   C        38.4761   38.9185   49.0974  C     
17   C        37.2864   38.2713   48.7306  C     
18   C        36.0326   38.8352   49.0589  C     
19   C        36.0001   40.0711   49.7520  C     
20   C        38.2773   46.6596   53.1962  C     
21   C        38.6198   47.1219   51.7151  C     
22   C        37.6059   47.9141   50.9509  C     
23   C        37.3520   49.2755   51.2416  C     
24   C        36.3836   50.0058   50.5270  C     
25   C        35.6370   49.4059   49.4824  C     
26   C        35.9306   48.0593   49.1589  C     
27   C        36.9105   47.3384   49.8624  C     
28   C        34.5651   50.1508   48.7421  C     
29   F        33.4255   49.3836   48.6564  F     
30   F        34.1677   51.3071   49.3777  F     
31   P        35.0352   50.5716   47.1993  P     
32   O        36.1193   51.5162   47.1648  O     
33   O        35.4990   49.3655   46.3660  O     
34   O        33.8740   51.2103   46.4180  O     
35   N        39.3945   45.9058   53.7823  N     
36   N        40.4134   45.4906   53.1212  N     
37   N        41.2733   44.8847   53.8197  N     
38   C        40.8253   44.8800   55.0768  C     
39   C        39.5985   45.5339   55.0676  C     
40   C        39.4332   45.1809   57.4704  C     
41   C        38.8827   45.6885   56.2728  C     
42   C        41.3927   44.3624   56.2523  C     
43   C        40.6844   44.5252   57.4623  C     
44   P        34.6710   38.1172   48.6122  P     
45   O        33.6289   38.2480   49.5985  O     
46   O        34.1301   38.7890   47.3375  O     
47   O        34.8268   36.6156   48.2946  O     
48   H        37.7814   51.2499   56.0156  H     
49   H        39.9679   50.4270   55.3510  H     
50   H        40.1604   48.3772   54.1255  H     
51   H        35.9583   47.9279   54.2333  H     
52   H        35.7922   49.9792   55.4544  H     
53   H        36.1723   46.2879   52.7875  H     
54   H        36.7493   45.4194   54.1784  H     
55   H        38.5223   43.4333   53.5769  H     
56   H        38.6089   41.4169   52.3327  H     
57   H        35.6585   42.9171   49.7004  H     
58   H        35.5654   44.9232   50.9686  H     
59   H        39.3121   40.5881   50.0419  H     
60   H        39.3779   38.5093   48.8449  H     
61   H        37.3562   37.3898   48.2111  H     
62   H        35.1005   40.4866   50.0077  H     
63   H        39.5455   47.7010   51.7156  H     
64   H        38.8577   46.2247   51.1411  H     
65   H        37.8836   49.7595   51.9691  H     
66   H        36.2346   50.9862   50.7768  H     
67   H        35.4262   47.5890   48.4036  H     
68   H        37.1073   46.3789   49.5718  H     
69   H        38.9291   45.2979   58.3537  H     
70   H        37.9824   46.1661   56.2908  H     
71   H        42.2984   43.8891   56.2334  H     
72   H        41.0794   44.1639   58.3335  H     
@<TRIPOS>BOND
     1    1    2 2
     2    1    6 1
     3    2    3 1
     4    3    4 2
     5    4    5 1
     6    4   20 1
     7    5    6 2
     8    7    8 1
     9    7   20 1
    10    8    9 1
    11    8   13 2
    12    9   10 2
    13   10   11 1
    14   11   12 2
    15   11   14 1
    16   12   13 1
    17   14   15 2
    18   14   19 1
    19   15   16 1
    20   16   17 2
    21   17   18 1
    22   18   19 2
    23   18   44 1
    24   20   21 1
    25   20   35 1
    26   21   22 1
    27   22   23 1
    28   22   27 2
    29   23   24 2
    30   24   25 1
    31   25   26 2
    32   25   28 1
    33   26   27 1
    34   28   29 1
    35   28   30 1
    36   28   31 1
    37   31   32 2
    38   31   33 1
    39   31   34 1
    40   35   36 1
    41   35   39 1
    42   36   37 2
    43   37   38 1
    44   38   39 2
    45   38   42 1
    46   39   41 1
    47   40   41 2
    48   40   43 1
    49   42   43 2
    50   44   45 2
    51   44   46 1
    52   44   47 1
    53    1   48 1
    54    2   49 1
    55    3   50 1
    56    5   51 1
    57    6   52 1
    58    7   53 1
    59    7   54 1
    60    9   55 1
    61   10   56 1
    62   12   57 1
    63   13   58 1
    64   15   59 1
    65   16   60 1
    66   17   61 1
    67   19   62 1
    68   21   63 1
    69   21   64 1
    70   23   65 1
    71   24   66 1
    72   26   67 1
    73   27   68 1
    74   40   69 1
    75   41   70 1
    76   42   71 1
    77   43   72 1
@<TRIPOS>PROPERTY_DATA
  Total_Score	| 16.9807
  Crash		| -1.1064
  Polar		| 11.9746
  FragIndex	| 1
  FragRMSD	| 0.581

