@<TRIPOS>MOLECULE
BindingDB_50142328
 71 75 0 0 0
SMALL
NO_CHARGES


@<TRIPOS>ATOM
1    N        39.2560   45.6984   53.6705  N     
2    N        40.3006   45.3380   53.0253  N     
3    C        38.1370   46.4365   53.0818  C     
4    P        35.1630   39.8867   49.6601  P     
5    P        35.0542   50.5712   47.2241  P     
6    C        34.5520   50.2252   48.7748  C     
7    C        36.3843   40.0525   50.8041  C     
8    N        41.1867   44.7854   53.7393  N     
9    C        39.4588   45.3383   54.9611  C     
10   C        40.7216   44.7588   54.9881  C     
11   C        37.4485   51.4141   56.0312  C     
12   C        37.9272   47.7131   53.8953  C     
13   C        35.5455   49.3853   49.5170  C     
14   C        36.5409   41.4475   51.3427  C     
15   C        38.4729   46.9178   51.6108  C     
16   C        36.8776   45.4655   53.0819  C     
17   O        35.5998   39.1855   48.4715  O     
18   O        36.1495   51.5077   47.1676  O     
19   C        37.6046   50.1985   55.3211  C     
20   F        37.5520   39.5819   50.2423  F     
21   F        33.3333   49.5883   48.7071  F     
22   F        36.1279   39.1878   51.8455  F     
23   F        34.2892   51.4207   49.4034  F     
24   O        36.2168   51.8471   56.4011  O     
25   O        33.9468   39.0797   50.1765  O     
26   O        35.5151   49.3270   46.4446  O     
27   O        33.9114   51.1942   46.4021  O     
28   O        34.6249   41.2482   49.1623  O     
29   C        36.6592   48.1532   54.3564  C     
30   C        39.0320   48.5569   54.1844  C     
31   C        38.8779   49.7722   54.8762  C     
32   C        36.4995   49.3642   55.0504  C     
33   C        36.2899   49.8992   50.6067  C     
34   C        37.7462   42.1890   51.2094  C     
35   C        35.7900   48.0461   49.1273  C     
36   C        35.4770   42.0688   52.0398  C     
37   C        36.8228   44.0976   52.4677  C     
38   C        37.4607   47.7640   50.9071  C     
39   O        38.5258   52.1776   56.3517  O     
40   C        37.8769   43.4811   51.7535  C     
41   C        36.7319   47.2548   49.8105  C     
42   C        37.2368   49.1068   51.2853  C     
43   C        35.6151   43.3573   52.5851  C     
44   C        38.7326   45.4741   56.1599  C     
45   C        41.3053   44.2870   56.1752  C     
46   C        38.5063   53.4172   57.0716  C     
47   C        39.2967   45.0079   57.3659  C     
48   C        40.5760   44.4131   57.3744  C     
49   H        39.4165   47.4716   51.6075  H     
50   H        38.6740   46.0467   50.9969  H     
51   H        36.6374   45.2992   54.1375  H     
52   H        36.0307   46.0035   52.6559  H     
53   H        35.8149   47.6152   54.1777  H     
54   H        39.9766   48.2994   53.8727  H     
55   H        39.7125   50.3460   55.0391  H     
56   H        35.5552   49.6281   55.3483  H     
57   H        36.1642   50.8683   50.9108  H     
58   H        38.5470   41.7891   50.7190  H     
59   H        35.2916   47.6314   48.3358  H     
60   H        34.5935   41.5741   52.1735  H     
61   H        38.7666   43.9544   51.6293  H     
62   H        36.8775   46.2922   49.5023  H     
63   H        37.7653   49.5301   52.0516  H     
64   H        34.8200   43.7611   53.0954  H     
65   H        37.8065   45.9076   56.1670  H     
66   H        42.2358   43.8673   56.1691  H     
67   H        37.8977   54.1463   56.5365  H     
68   H        39.5221   53.7992   57.1538  H     
69   H        38.1003   53.2689   58.0739  H     
70   H        38.7781   45.1032   58.2384  H     
71   H        40.9763   44.0832   58.2487  H     
@<TRIPOS>BOND
     1    1    2 1
     2    1    3 1
     3    1    9 1
     4    2    8 2
     5    3   12 1
     6    3   15 1
     7    3   16 1
     8    4    7 1
     9    4   17 2
    10    4   25 1
    11    4   28 1
    12    5    6 1
    13    5   18 2
    14    5   26 1
    15    5   27 1
    16    6   13 1
    17    6   21 1
    18    6   23 1
    19    7   14 1
    20    7   20 1
    21    7   22 1
    22    8   10 1
    23    9   10 2
    24    9   44 1
    25   10   45 1
    26   11   19 1
    27   11   24 2
    28   11   39 1
    29   12   29 2
    30   12   30 1
    31   13   33 2
    32   13   35 1
    33   14   34 1
    34   14   36 2
    35   15   38 1
    36   16   37 1
    37   19   31 1
    38   19   32 2
    39   29   32 1
    40   30   31 2
    41   33   42 1
    42   34   40 2
    43   35   41 2
    44   36   43 1
    45   37   40 1
    46   37   43 2
    47   38   41 1
    48   38   42 2
    49   39   46 1
    50   44   47 2
    51   45   48 2
    52   47   48 1
    53   15   49 1
    54   15   50 1
    55   16   51 1
    56   16   52 1
    57   29   53 1
    58   30   54 1
    59   31   55 1
    60   32   56 1
    61   33   57 1
    62   34   58 1
    63   35   59 1
    64   36   60 1
    65   40   61 1
    66   41   62 1
    67   42   63 1
    68   43   64 1
    69   44   65 1
    70   45   66 1
    71   46   67 1
    72   46   68 1
    73   46   69 1
    74   47   70 1
    75   48   71 1
@<TRIPOS>PROPERTY_DATA
  Total_Score	| 15.2887
  Crash		| -1.2174
  Polar		| 11.3174
  FragIndex	| 1
  FragRMSD	| 0.799

