@<TRIPOS>MOLECULE
BindingDB_13603
 93 99 0 0 0
SMALL
NO_CHARGES


@<TRIPOS>ATOM
1    C        37.7904   50.3304   55.4908  C     
2    C        36.6529   49.5799   55.1577  C     
3    C        36.7885   48.3812   54.4359  C     
4    C        38.0583   47.9055   54.0029  C     
5    C        39.1825   48.7082   54.3367  C     
6    C        39.0585   49.8933   55.0808  C     
7    C        37.0083   45.6858   53.1658  C     
8    C        37.0972   44.4109   52.4006  C     
9    C        36.2818   44.1920   51.2659  C     
10   C        36.3387   42.9883   50.5463  C     
11   C        37.1937   41.9484   50.9688  C     
12   C        37.9792   42.1378   52.1266  C     
13   C        37.9246   43.3501   52.8337  C     
14   C        37.2433   40.7189   50.2686  C     
15   C        38.4799   40.0878   50.0195  C     
16   C        36.0782   38.8426   49.1710  C     
17   C        36.0582   40.1006   49.8151  C     
18   C        38.2722   46.6391   53.1841  C     
19   C        38.6384   47.0825   51.7041  C     
20   C        37.6460   47.8847   50.9241  C     
21   C        36.9477   47.3160   49.8359  C     
22   C        35.9575   48.0400   49.1517  C     
23   C        35.6661   49.3853   49.4882  C     
24   C        36.4288   49.9787   50.5225  C     
25   C        37.4105   49.2469   51.2141  C     
26   C        34.5946   50.1391   48.7612  C     
27   F        33.4532   49.3737   48.6917  F     
28   F        34.2095   51.2949   49.4016  F     
29   P        35.0425   50.5658   47.2151  P     
30   O        36.1330   51.5034   47.1741  O     
31   O        35.4745   49.3649   46.3573  O     
32   O        33.8766   51.2183   46.4535  O     
33   N        39.3856   45.8863   53.7778  N     
34   N        40.4086   45.4593   53.1257  N     
35   N        41.2694   44.8724   53.8378  N     
36   C        40.8192   44.8884   55.0923  C     
37   C        39.5902   45.5364   55.0694  C     
38   C        39.4167   45.2283   57.4760  C     
39   C        38.8678   45.7102   56.2677  C     
40   C        41.3843   44.3969   56.2804  C     
41   C        40.6694   44.5745   57.4817  C     
42   P        34.6872   38.1966   48.6819  P     
43   O        33.6383   38.3288   49.6597  O     
44   O        34.1839   38.8680   47.3847  O     
45   O        34.7649   36.6751   48.4648  O     
46   C        38.5399   38.8613   49.3341  C     
47   C        37.3370   38.2353   48.9164  C     
48   C        39.7795   38.2609   49.0131  C     
49   C        39.8199   37.0757   48.2569  C     
50   C        38.6076   36.4743   47.8525  C     
51   N        37.4563   37.0801   48.2260  N     
52   C        38.5386   35.2363   47.0311  C     
53   O        38.0379   34.1830   47.8469  O     
54   C        37.7192   35.3838   45.7084  C     
55   C        36.2369   35.9125   45.7870  C     
56   C        35.7704   36.4582   44.4111  C     
57   C        35.2240   34.8619   46.3221  C     
58   H        37.6915   51.1949   56.0271  H     
59   H        35.7245   49.9077   55.4391  H     
60   H        35.9287   47.8827   54.2195  H     
61   H        40.1179   48.4255   54.0448  H     
62   H        39.8899   50.4371   55.3202  H     
63   H        36.1606   46.2497   52.7689  H     
64   H        36.7360   45.4249   54.1911  H     
65   H        35.6224   44.9037   50.9529  H     
66   H        35.7453   42.8797   49.7167  H     
67   H        38.5752   41.3836   52.4834  H     
68   H        38.4771   43.4329   53.6851  H     
69   H        39.3464   40.5411   50.3203  H     
70   H        35.1664   40.5755   49.9801  H     
71   H        39.5711   47.6522   51.7139  H     
72   H        38.8654   46.1764   51.1405  H     
73   H        37.1455   46.3598   49.5369  H     
74   H        35.4445   47.5707   48.4017  H     
75   H        36.2793   50.9550   50.7856  H     
76   H        37.9559   49.7248   51.9332  H     
77   H        38.9054   45.3553   58.3516  H     
78   H        37.9646   46.1846   56.2712  H     
79   H        42.2917   43.9264   56.2712  H     
80   H        41.0607   44.2303   58.3616  H     
81   H        40.6645   38.6988   49.2921  H     
82   H        40.7277   36.6649   48.0012  H     
83   H        39.5534   34.9438   46.7364  H     
84   H        38.1559   33.3700   47.3093  H     
85   H        38.3104   36.0295   45.0521  H     
86   H        37.7051   34.4062   45.2210  H     
87   H        36.1680   36.7506   46.4595  H     
88   H        36.4544   37.2359   44.0628  H     
89   H        34.7749   36.8990   44.4894  H     
90   H        35.7464   35.6552   43.6720  H     
91   H        35.1186   34.0379   45.6153  H     
92   H        34.2443   35.3234   46.4634  H     
93   H        35.5465   34.4584   47.2816  H     
@<TRIPOS>BOND
     1    1    2 2
     2    1    6 1
     3    2    3 1
     4    3    4 2
     5    4    5 1
     6    4   18 1
     7    5    6 2
     8    7    8 1
     9    7   18 1
    10    8    9 1
    11    8   13 2
    12    9   10 2
    13   10   11 1
    14   11   12 2
    15   11   14 1
    16   12   13 1
    17   14   15 2
    18   14   17 1
    19   15   46 1
    20   16   17 2
    21   16   42 1
    22   16   47 1
    23   18   19 1
    24   18   33 1
    25   19   20 1
    26   20   21 1
    27   20   25 2
    28   21   22 2
    29   22   23 1
    30   23   24 2
    31   23   26 1
    32   24   25 1
    33   26   27 1
    34   26   28 1
    35   26   29 1
    36   29   30 2
    37   29   31 1
    38   29   32 1
    39   33   34 1
    40   33   37 1
    41   34   35 2
    42   35   36 1
    43   36   37 2
    44   36   40 1
    45   37   39 1
    46   38   39 2
    47   38   41 1
    48   40   41 2
    49   42   43 2
    50   42   44 1
    51   42   45 1
    52   46   47 2
    53   46   48 1
    54   47   51 1
    55   48   49 2
    56   49   50 1
    57   50   51 2
    58   50   52 1
    59   52   53 1
    60   52   54 1
    61   54   55 1
    62   55   56 1
    63   55   57 1
    64    1   58 1
    65    2   59 1
    66    3   60 1
    67    5   61 1
    68    6   62 1
    69    7   63 1
    70    7   64 1
    71    9   65 1
    72   10   66 1
    73   12   67 1
    74   13   68 1
    75   15   69 1
    76   17   70 1
    77   19   71 1
    78   19   72 1
    79   21   73 1
    80   22   74 1
    81   24   75 1
    82   25   76 1
    83   38   77 1
    84   39   78 1
    85   40   79 1
    86   41   80 1
    87   48   81 1
    88   49   82 1
    89   52   83 1
    90   53   84 1
    91   54   85 1
    92   54   86 1
    93   55   87 1
    94   56   88 1
    95   56   89 1
    96   56   90 1
    97   57   91 1
    98   57   92 1
    99   57   93 1
@<TRIPOS>PROPERTY_DATA
  Total_Score	| 18.8339
  Crash		| -2.0111
  Polar		| 11.9645
  FragIndex	| 1
  FragRMSD	| 0.526

