@<TRIPOS>MOLECULE
BindingDB_13600
 76 81 0 0 0
SMALL
NO_CHARGES


@<TRIPOS>ATOM
1    C        37.7938   50.2420   55.5273  C     
2    C        36.6673   49.4612   55.2129  C     
3    C        36.8129   48.2775   54.4662  C     
4    C        38.0819   47.8504   53.9870  C     
5    C        39.2014   48.6575   54.3410  C     
6    C        39.0649   49.8330   55.0977  C     
7    C        37.0595   45.6267   53.0412  C     
8    C        37.1843   44.3708   52.2317  C     
9    C        36.4337   44.1843   51.0441  C     
10   C        36.5076   42.9874   50.3061  C     
11   C        37.3004   41.9032   50.7511  C     
12   C        38.0636   42.0912   51.9311  C     
13   C        37.9881   43.2896   52.6626  C     
14   C        37.3069   40.6523   50.0589  C     
15   C        38.5200   39.9659   49.8035  C     
16   C        38.5245   38.7232   49.1507  C     
17   C        37.3229   38.1291   48.7181  C     
18   C        36.0828   38.7909   48.9612  C     
19   C        36.1000   40.0512   49.6087  C     
20   C        38.3012   46.6102   53.1311  C     
21   C        38.6644   47.1021   51.6651  C     
22   C        37.6419   47.8882   50.9068  C     
23   C        36.9197   47.3104   49.8371  C     
24   C        35.9223   48.0277   49.1543  C     
25   C        35.6382   49.3771   49.4750  C     
26   C        36.4104   49.9789   50.5021  C     
27   C        37.3918   49.2538   51.1935  C     
28   C        34.5728   50.1279   48.7392  C     
29   F        33.4303   49.3620   48.6566  F     
30   F        34.1827   51.2844   49.3840  F     
31   P        35.0378   50.5588   47.1991  P     
32   O        36.1333   51.4939   47.1616  O     
33   O        35.4745   49.3598   46.3471  O     
34   O        33.8843   51.2242   46.4316  O     
35   N        39.4120   45.8758   53.7453  N     
36   N        40.4556   45.4678   53.1131  N     
37   N        41.2981   44.8839   53.8455  N     
38   C        40.8173   44.8839   55.0909  C     
39   C        39.5875   45.5267   55.0381  C     
40   C        39.3387   45.1817   57.4356  C     
41   C        38.8355   45.6944   56.2238  C     
42   C        41.3476   44.3795   56.2854  C     
43   C        40.5924   44.5306   57.4719  C     
44   P        34.6836   38.1528   48.5094  P     
45   O        34.1690   38.8307   47.3492  O     
46   O        34.7379   36.6435   48.2201  O     
47   O        33.5996   38.2971   49.6011  O     
48   O        37.4288   36.8860   48.1408  O     
49   C        37.8261   36.9055   46.7553  C     
50   H        37.6852   51.1015   56.0676  H     
51   H        35.7360   49.7654   55.5183  H     
52   H        35.9643   47.7532   54.2697  H     
53   H        40.1420   48.3966   54.0391  H     
54   H        39.8923   50.3903   55.3330  H     
55   H        36.2109   46.1953   52.6523  H     
56   H        36.7728   45.3230   54.0496  H     
57   H        35.8092   44.9222   50.7068  H     
58   H        35.9595   42.9123   49.4439  H     
59   H        38.6499   41.3353   52.2958  H     
60   H        38.4997   43.3448   53.5414  H     
61   H        39.4116   40.3680   50.0878  H     
62   H        39.4132   38.2513   48.9746  H     
63   H        35.2164   40.5465   49.7803  H     
64   H        39.5764   47.7025   51.6829  H     
65   H        38.9201   46.2186   51.0840  H     
66   H        37.1121   46.3476   49.5496  H     
67   H        35.4050   47.5531   48.4096  H     
68   H        36.2636   50.9602   50.7507  H     
69   H        37.9343   49.7353   51.9116  H     
70   H        38.8060   45.2978   58.3019  H     
71   H        37.9376   46.1746   56.2116  H     
72   H        42.2590   43.9114   56.3022  H     
73   H        40.9508   44.1533   58.3551  H     
74   H        37.0577   37.4011   46.1370  H     
75   H        37.9144   35.8696   46.4143  H     
76   H        38.7930   37.4014   46.6170  H     
@<TRIPOS>BOND
     1    1    2 2
     2    1    6 1
     3    2    3 1
     4    3    4 2
     5    4    5 1
     6    4   20 1
     7    5    6 2
     8    7    8 1
     9    7   20 1
    10    8    9 1
    11    8   13 2
    12    9   10 2
    13   10   11 1
    14   11   12 2
    15   11   14 1
    16   12   13 1
    17   14   15 2
    18   14   19 1
    19   15   16 1
    20   16   17 2
    21   17   18 1
    22   17   48 1
    23   18   19 2
    24   18   44 1
    25   20   21 1
    26   20   35 1
    27   21   22 1
    28   22   23 1
    29   22   27 2
    30   23   24 2
    31   24   25 1
    32   25   26 2
    33   25   28 1
    34   26   27 1
    35   28   29 1
    36   28   30 1
    37   28   31 1
    38   31   32 2
    39   31   33 1
    40   31   34 1
    41   35   36 1
    42   35   39 1
    43   36   37 2
    44   37   38 1
    45   38   39 2
    46   38   42 1
    47   39   41 1
    48   40   41 2
    49   40   43 1
    50   42   43 2
    51   44   45 2
    52   44   46 1
    53   44   47 1
    54   48   49 1
    55    1   50 1
    56    2   51 1
    57    3   52 1
    58    5   53 1
    59    6   54 1
    60    7   55 1
    61    7   56 1
    62    9   57 1
    63   10   58 1
    64   12   59 1
    65   13   60 1
    66   15   61 1
    67   16   62 1
    68   19   63 1
    69   21   64 1
    70   21   65 1
    71   23   66 1
    72   24   67 1
    73   26   68 1
    74   27   69 1
    75   40   70 1
    76   41   71 1
    77   42   72 1
    78   43   73 1
    79   49   74 1
    80   49   75 1
    81   49   76 1
@<TRIPOS>PROPERTY_DATA
  Total_Score	| 17.4811
  Crash		| -1.3449
  Polar		| 11.9624
  FragIndex	| 1
  FragRMSD	| 0.587

