@<TRIPOS>MOLECULE
BindingDB_50308854
 93 99 0 0 0
SMALL
NO_CHARGES


@<TRIPOS>ATOM
1    C        38.4076   46.8516   53.2328  C     
2    C        37.2775   45.8224   53.1701  C     
3    C        36.9891   45.0812   51.9933  C     
4    C        35.8528   44.2622   51.8858  C     
5    C        35.0231   44.0353   53.0043  C     
6    C        35.4407   44.5554   54.2513  C     
7    C        36.5277   45.4435   54.3202  C     
8    C        38.7665   47.5055   51.8148  C     
9    C        37.6765   48.1906   51.0376  C     
10   C        37.3739   49.5574   51.2374  C     
11   C        36.3608   50.2024   50.4979  C     
12   C        35.6226   49.5087   49.5068  C     
13   C        35.9572   48.1523   49.2788  C     
14   C        36.9758   47.5219   50.0015  C     
15   C        34.5266   50.1496   48.7080  C     
16   P        35.0084   50.5625   47.1632  P     
17   O        36.1673   51.5721   47.1440  O     
18   F        33.4569   49.2862   48.6232  F     
19   F        34.0241   51.2921   49.2918  F     
20   O        33.9412   51.1623   46.4074  O     
21   O        35.4929   49.3685   46.3218  O     
22   C        38.1710   48.0680   54.1244  C     
23   C        36.8760   48.5588   54.4519  C     
24   C        36.6990   49.6836   55.2785  C     
25   C        37.8177   50.3763   55.7722  C     
26   C        39.1095   49.9567   55.4181  C     
27   C        39.2778   48.8310   54.5956  C     
28   C        33.8069   43.3076   52.8478  C     
29   C        33.9421   41.9886   52.3489  C     
30   C        32.8282   41.1941   52.0686  C     
31   C        32.4932   43.8355   53.1022  C     
32   C        31.3567   43.0106   52.8140  C     
33   C        31.5363   41.7002   52.2861  C     
34   C        30.4095   40.9399   51.9792  C     
35   C        29.1713   41.4320   52.1603  C     
36   C        28.9683   42.7031   52.6460  C     
37   N        30.0563   43.4084   52.9705  N     
38   C        27.6104   43.2403   52.8706  C     
39   C        27.4709   44.8104   52.8028  C     
40   O        26.7086   42.6747   51.8795  O     
41   C        25.3366   42.4745   52.2698  C     
42   C        26.8679   45.5273   54.0543  C     
43   C        27.7293   45.3784   55.3376  C     
44   C        26.6373   47.0384   53.7550  C     
45   P        32.2254   45.3326   53.6732  P     
46   O        31.7560   45.2417   55.0345  O     
47   O        33.3673   46.3620   53.6903  O     
48   O        31.1248   46.0551   52.8746  O     
49   N        39.5336   46.0569   53.7458  N     
50   N        41.2987   44.8596   53.6138  N     
51   N        40.4112   45.5054   52.9905  N     
52   C        41.0124   44.9444   54.9120  C     
53   C        39.8588   45.7089   55.0200  C     
54   C        39.3269   45.9714   56.3022  C     
55   C        39.9656   45.4449   57.4441  C     
56   C        41.1397   44.6725   57.3105  C     
57   C        41.6758   44.4165   56.0324  C     
58   H        37.5985   45.1237   51.1824  H     
59   H        35.6369   43.8325   50.9790  H     
60   H        34.8960   44.3627   55.0975  H     
61   H        36.7285   45.8631   55.2258  H     
62   H        39.5755   48.2261   51.9400  H     
63   H        39.2089   46.7430   51.1693  H     
64   H        37.9067   50.1073   51.9145  H     
65   H        36.1753   51.1910   50.6882  H     
66   H        35.4596   47.6129   48.5666  H     
67   H        37.2109   46.5611   49.7440  H     
68   H        36.0393   48.1111   54.0769  H     
69   H        35.7571   49.9998   55.5145  H     
70   H        37.6902   51.1922   56.3765  H     
71   H        39.9268   50.4665   55.7623  H     
72   H        40.2336   48.5577   54.3544  H     
73   H        34.8693   41.5910   52.1677  H     
74   H        32.9660   40.2505   51.6929  H     
75   H        30.5093   40.0273   51.6092  H     
76   H        28.4004   40.8559   51.9174  H     
77   H        27.3187   42.8841   53.8636  H     
78   H        28.4310   45.2738   52.5625  H     
79   H        26.8153   45.0616   51.9646  H     
80   H        25.2716   41.7009   53.0392  H     
81   H        24.7745   42.1403   51.3984  H     
82   H        24.8848   43.3958   52.6421  H     
83   H        25.8889   45.0795   54.2586  H     
84   H        27.8847   44.3302   55.5922  H     
85   H        27.2296   45.8551   56.1848  H     
86   H        28.6989   45.8518   55.1971  H     
87   H        27.5901   47.5432   53.5748  H     
88   H        26.1404   47.5266   54.5974  H     
89   H        26.0076   47.1663   52.8713  H     
90   H        38.4971   46.5485   56.4248  H     
91   H        39.5805   45.6286   58.3722  H     
92   H        41.6064   44.3068   58.1423  H     
93   H        42.5260   43.8600   55.9230  H     
@<TRIPOS>BOND
     1    1    2 1
     2    1    8 1
     3    1   22 1
     4    1   49 1
     5    2    3 2
     6    2    7 1
     7    3    4 1
     8    4    5 2
     9    5    6 1
    10    5   28 1
    11    6    7 2
    12    8    9 1
    13    9   10 2
    14    9   14 1
    15   10   11 1
    16   11   12 2
    17   12   13 1
    18   12   15 1
    19   13   14 2
    20   15   16 1
    21   15   18 1
    22   15   19 1
    23   16   17 1
    24   16   20 2
    25   16   21 1
    26   22   23 2
    27   22   27 1
    28   23   24 1
    29   24   25 2
    30   25   26 1
    31   26   27 2
    32   28   29 2
    33   28   31 1
    34   29   30 1
    35   30   33 2
    36   31   32 2
    37   31   45 1
    38   32   33 1
    39   32   37 1
    40   33   34 1
    41   34   35 2
    42   35   36 1
    43   36   37 2
    44   36   38 1
    45   38   39 1
    46   38   40 1
    47   39   42 1
    48   40   41 1
    49   42   43 1
    50   42   44 1
    51   45   46 2
    52   45   47 1
    53   45   48 1
    54   49   51 1
    55   49   53 1
    56   50   51 2
    57   50   52 1
    58   52   53 2
    59   52   57 1
    60   53   54 1
    61   54   55 2
    62   55   56 1
    63   56   57 2
    64    3   58 1
    65    4   59 1
    66    6   60 1
    67    7   61 1
    68    8   62 1
    69    8   63 1
    70   10   64 1
    71   11   65 1
    72   13   66 1
    73   14   67 1
    74   23   68 1
    75   24   69 1
    76   25   70 1
    77   26   71 1
    78   27   72 1
    79   29   73 1
    80   30   74 1
    81   34   75 1
    82   35   76 1
    83   38   77 1
    84   39   78 1
    85   39   79 1
    86   41   80 1
    87   41   81 1
    88   41   82 1
    89   42   83 1
    90   43   84 1
    91   43   85 1
    92   43   86 1
    93   44   87 1
    94   44   88 1
    95   44   89 1
    96   54   90 1
    97   55   91 1
    98   56   92 1
    99   57   93 1
@<TRIPOS>PROPERTY_DATA
  Total_Score	| 13.9458
  Crash		| -2.3356
  Polar		| 7.4530
  FragIndex	| 1
  FragRMSD	| 1.086

