@<TRIPOS>MOLECULE
BindingDB_13601
 88 93 0 0 0
SMALL
NO_CHARGES


@<TRIPOS>ATOM
1    C        37.8920   50.2813   55.6365  C     
2    C        39.1460   49.8175   55.2133  C     
3    C        39.2365   48.6511   54.4324  C     
4    C        38.0876   47.9016   54.0543  C     
5    C        36.8331   48.4008   54.5066  C     
6    C        36.7354   49.5718   55.2818  C     
7    C        36.9936   45.6949   53.1493  C     
8    C        37.0588   44.4312   52.3417  C     
9    C        36.2080   44.2228   51.2289  C     
10   C        36.2507   43.0310   50.4810  C     
11   C        37.1308   41.9846   50.8450  C     
12   C        37.9611   42.1756   51.9734  C     
13   C        37.9135   43.3694   52.7117  C     
14   C        37.1840   40.7568   50.1168  C     
15   C        38.4315   40.1899   49.7933  C     
16   C        38.5084   38.9652   49.1050  C     
17   C        37.3472   38.2589   48.7531  C     
18   C        36.0691   38.8293   49.0157  C     
19   C        36.0096   40.0769   49.6969  C     
20   C        38.2578   46.6513   53.1952  C     
21   C        38.5978   47.1275   51.7186  C     
22   C        37.5806   47.9227   50.9658  C     
23   C        37.3561   49.2877   51.2468  C     
24   C        36.4003   50.0300   50.5318  C     
25   C        35.6304   49.4326   49.5015  C     
26   C        35.9031   48.0817   49.1804  C     
27   C        36.8730   47.3470   49.8822  C     
28   C        34.5785   50.1933   48.7534  C     
29   F        33.4200   49.4526   48.6940  F     
30   F        34.2199   51.3734   49.3680  F     
31   P        35.0476   50.5742   47.2004  P     
32   O        36.1426   51.5062   47.1347  O     
33   O        35.4862   49.3555   46.3708  O     
34   O        33.8893   51.2175   46.4178  O     
35   N        39.3791   45.8812   53.7554  N     
36   N        40.3955   45.4823   53.0743  N     
37   N        41.2641   44.8727   53.7552  N     
38   C        40.8296   44.8402   55.0156  C     
39   C        39.6006   45.4896   55.0333  C     
40   C        39.4749   45.1032   57.4333  C     
41   C        38.9049   45.6280   56.2547  C     
42   C        41.4205   44.3162   56.1738  C     
43   C        40.7271   44.4488   57.3941  C     
44   P        34.7017   38.1362   48.5253  P     
45   O        34.1951   38.8556   47.3864  O     
46   O        34.7716   36.6474   48.1306  O     
47   O        33.5831   38.2602   49.5771  O     
48   O        37.5099   37.1050   48.0251  O     
49   C        38.2786   36.0269   48.6063  C     
50   C        39.2616   35.4387   47.5560  C     
51   C        38.6788   34.9224   46.2000  C     
52   C        37.5338   33.8884   46.3820  C     
53   C        38.2712   36.0551   45.2141  C     
54   H        37.8233   51.1320   56.2012  H     
55   H        39.9965   50.3286   55.4703  H     
56   H        40.1681   48.3384   54.1511  H     
57   H        35.9582   47.9339   54.2754  H     
58   H        35.8196   49.9109   55.5834  H     
59   H        36.1486   46.2770   52.7746  H     
60   H        36.7321   45.4081   54.1707  H     
61   H        35.5418   44.9436   50.9461  H     
62   H        35.6436   42.9418   49.6603  H     
63   H        38.5966   41.4382   52.2825  H     
64   H        38.4972   43.4386   53.5412  H     
65   H        39.3034   40.6533   50.0407  H     
66   H        39.4330   38.5902   48.8748  H     
67   H        35.0949   40.4812   49.9251  H     
68   H        39.5200   47.7143   51.7246  H     
69   H        38.8370   46.2371   51.1352  H     
70   H        37.9097   49.7688   51.9575  H     
71   H        36.2740   51.0140   50.7732  H     
72   H        35.3871   47.6131   48.4308  H     
73   H        37.0642   46.3864   49.5898  H     
74   H        38.9802   45.2008   58.3235  H     
75   H        38.0086   46.1165   56.2941  H     
76   H        42.3309   43.8546   56.1331  H     
77   H        41.1324   44.0733   58.2518  H     
78   H        38.8765   36.3140   49.4857  H     
79   H        37.5786   35.2552   48.9324  H     
80   H        40.0343   36.1865   47.3394  H     
81   H        39.7763   34.5952   48.0392  H     
82   H        39.5090   34.3937   45.7108  H     
83   H        37.8437   33.0920   47.0636  H     
84   H        37.2757   33.4417   45.4197  H     
85   H        36.6358   34.3706   46.7793  H     
86   H        37.3417   36.5470   45.5063  H     
87   H        38.1099   35.6276   44.2189  H     
88   H        39.0692   36.8065   45.1453  H     
@<TRIPOS>BOND
     1    1    2 2
     2    1    6 1
     3    2    3 1
     4    3    4 2
     5    4    5 1
     6    4   20 1
     7    5    6 2
     8    7    8 1
     9    7   20 1
    10    8    9 1
    11    8   13 2
    12    9   10 2
    13   10   11 1
    14   11   12 2
    15   11   14 1
    16   12   13 1
    17   14   15 2
    18   14   19 1
    19   15   16 1
    20   16   17 2
    21   17   18 1
    22   17   48 1
    23   18   19 2
    24   18   44 1
    25   20   21 1
    26   20   35 1
    27   21   22 1
    28   22   23 1
    29   22   27 2
    30   23   24 2
    31   24   25 1
    32   25   26 2
    33   25   28 1
    34   26   27 1
    35   28   29 1
    36   28   30 1
    37   28   31 1
    38   31   32 2
    39   31   33 1
    40   31   34 1
    41   35   36 1
    42   35   39 1
    43   36   37 2
    44   37   38 1
    45   38   39 2
    46   38   42 1
    47   39   41 1
    48   40   41 2
    49   40   43 1
    50   42   43 2
    51   44   45 2
    52   44   46 1
    53   44   47 1
    54   48   49 1
    55   49   50 1
    56   50   51 1
    57   51   52 1
    58   51   53 1
    59    1   54 1
    60    2   55 1
    61    3   56 1
    62    5   57 1
    63    6   58 1
    64    7   59 1
    65    7   60 1
    66    9   61 1
    67   10   62 1
    68   12   63 1
    69   13   64 1
    70   15   65 1
    71   16   66 1
    72   19   67 1
    73   21   68 1
    74   21   69 1
    75   23   70 1
    76   24   71 1
    77   26   72 1
    78   27   73 1
    79   40   74 1
    80   41   75 1
    81   42   76 1
    82   43   77 1
    83   49   78 1
    84   49   79 1
    85   50   80 1
    86   50   81 1
    87   51   82 1
    88   52   83 1
    89   52   84 1
    90   52   85 1
    91   53   86 1
    92   53   87 1
    93   53   88 1
@<TRIPOS>PROPERTY_DATA
  Total_Score	| 18.1359
  Crash		| -1.7207
  Polar		| 11.9998
  FragIndex	| 1
  FragRMSD	| 0.732

