@<TRIPOS>MOLECULE
BindingDB_13602
 80 86 0 0 0
SMALL
NO_CHARGES


@<TRIPOS>ATOM
1    C        37.8514   50.3203   55.5514  C     
2    C        36.7094   49.5558   55.2605  C     
3    C        36.8268   48.3645   54.5126  C     
4    C        38.0857   47.9079   54.0293  C     
5    C        39.2170   48.7079   54.3527  C     
6    C        39.1103   49.8953   55.0994  C     
7    C        37.0238   45.6723   53.1493  C     
8    C        37.1259   44.3914   52.3680  C     
9    C        37.9521   43.3246   52.7973  C     
10   C        38.0122   42.1101   52.0855  C     
11   C        37.2280   41.9001   50.9222  C     
12   C        36.3751   42.9524   50.5049  C     
13   C        36.3201   44.1622   51.2239  C     
14   C        37.2936   40.6613   50.2048  C     
15   C        38.5358   40.0338   49.9615  C     
16   C        36.1651   38.7848   49.0370  C     
17   C        36.1245   40.0237   49.7294  C     
18   C        38.2732   46.6484   53.1912  C     
19   C        38.6141   47.1130   51.7109  C     
20   C        37.6001   47.9079   50.9409  C     
21   C        37.3489   49.2708   51.2283  C     
22   C        36.3779   49.9964   50.5130  C     
23   C        35.6323   49.3967   49.4708  C     
24   C        35.9329   48.0513   49.1430  C     
25   C        36.9085   47.3283   49.8510  C     
26   C        34.5636   50.1416   48.7280  C     
27   F        33.4296   49.3648   48.6324  F     
28   F        34.1529   51.2900   49.3703  F     
29   P        35.0321   50.5755   47.1886  P     
30   O        36.1333   51.5040   47.1582  O     
31   O        35.4597   49.3714   46.3347  O     
32   O        33.8832   51.2442   46.4174  O     
33   N        39.4002   45.9057   53.7706  N     
34   N        40.4253   45.4964   53.1094  N     
35   N        41.2913   44.9021   53.8080  N     
36   C        40.8471   44.8945   55.0645  C     
37   C        39.6145   45.5358   55.0582  C     
38   C        39.4585   45.1805   57.4619  C     
39   C        38.8993   45.6826   56.2672  C     
40   C        41.4205   44.3825   56.2401  C     
41   C        40.7144   44.5330   57.4507  C     
42   P        34.7742   38.1288   48.5548  P     
43   O        34.8399   36.7284   48.2181  O     
44   O        33.6694   38.2704   49.6233  O     
45   O        34.2313   38.8727   47.3179  O     
46   C        38.6179   38.8208   49.2543  C     
47   C        37.4328   38.1923   48.7823  C     
48   C        39.8687   38.2198   48.9894  C     
49   C        39.9418   37.0275   48.2451  C     
50   C        38.7560   36.4331   47.7737  C     
51   N        37.5737   37.0375   48.0675  N     
52   C        38.7869   35.1952   46.9671  C     
53   H        37.7657   51.1858   56.0844  H     
54   H        35.7915   49.8697   55.5831  H     
55   H        35.9668   47.8451   54.3166  H     
56   H        40.1417   48.4195   54.0414  H     
57   H        39.9483   50.4501   55.3116  H     
58   H        36.1744   46.2453   52.7693  H     
59   H        36.7524   45.3936   54.1680  H     
60   H        38.5010   43.4055   53.6537  H     
61   H        38.6189   41.3665   52.4438  H     
62   H        35.7862   42.8548   49.6690  H     
63   H        35.6699   44.8765   50.8983  H     
64   H        39.3974   40.4764   50.2870  H     
65   H        35.2191   40.4714   49.9192  H     
66   H        39.5409   47.6946   51.7096  H     
67   H        38.8507   46.2167   51.1337  H     
68   H        37.8787   49.7576   51.9521  H     
69   H        36.2220   50.9743   50.7695  H     
70   H        35.4300   47.5794   48.3859  H     
71   H        37.1105   46.3701   49.5614  H     
72   H        38.9512   45.2881   58.3430  H     
73   H        37.9947   46.1527   56.2848  H     
74   H        42.3293   43.9111   56.2161  H     
75   H        41.1102   44.1733   58.3167  H     
76   H        40.7383   38.6491   49.3157  H     
77   H        40.8547   36.6063   48.0382  H     
78   H        39.3702   35.3655   46.0606  H     
79   H        37.7802   34.8837   46.6786  H     
80   H        39.2473   34.3879   47.5398  H     
@<TRIPOS>BOND
     1    1    2 2
     2    1    6 1
     3    2    3 1
     4    3    4 2
     5    4    5 1
     6    4   18 1
     7    5    6 2
     8    7    8 1
     9    7   18 1
    10    8    9 1
    11    8   13 2
    12    9   10 2
    13   10   11 1
    14   11   12 2
    15   11   14 1
    16   12   13 1
    17   14   15 2
    18   14   17 1
    19   15   46 1
    20   16   17 2
    21   16   42 1
    22   16   47 1
    23   18   19 1
    24   18   33 1
    25   19   20 1
    26   20   21 1
    27   20   25 2
    28   21   22 2
    29   22   23 1
    30   23   24 2
    31   23   26 1
    32   24   25 1
    33   26   27 1
    34   26   28 1
    35   26   29 1
    36   29   30 2
    37   29   31 1
    38   29   32 1
    39   33   34 1
    40   33   37 1
    41   34   35 2
    42   35   36 1
    43   36   37 2
    44   36   40 1
    45   37   39 1
    46   38   39 2
    47   38   41 1
    48   40   41 2
    49   42   43 2
    50   42   44 1
    51   42   45 1
    52   46   47 2
    53   46   48 1
    54   47   51 1
    55   48   49 2
    56   49   50 1
    57   50   51 2
    58   50   52 1
    59    1   53 1
    60    2   54 1
    61    3   55 1
    62    5   56 1
    63    6   57 1
    64    7   58 1
    65    7   59 1
    66    9   60 1
    67   10   61 1
    68   12   62 1
    69   13   63 1
    70   15   64 1
    71   17   65 1
    72   19   66 1
    73   19   67 1
    74   21   68 1
    75   22   69 1
    76   24   70 1
    77   25   71 1
    78   38   72 1
    79   39   73 1
    80   40   74 1
    81   41   75 1
    82   48   76 1
    83   49   77 1
    84   52   78 1
    85   52   79 1
    86   52   80 1
@<TRIPOS>PROPERTY_DATA
  Total_Score	| 17.5416
  Crash		| -1.3602
  Polar		| 11.8912
  FragIndex	| 1
  FragRMSD	| 0.582

