@<TRIPOS>MOLECULE
BindingDB_50142325
 70 75 0 0 0
SMALL
NO_CHARGES


@<TRIPOS>ATOM
1    N        39.3991   45.8893   53.8095  N     
2    C        38.2682   46.6142   53.2125  C     
3    N        40.4508   45.5224   53.1697  N     
4    P        36.0922   40.3412   48.9734  P     
5    P        35.0377   50.5548   47.2093  P     
6    C        34.5876   50.1324   48.7591  C     
7    C        37.4702   41.2644   49.1590  C     
8    N        41.3202   44.9459   53.8822  N     
9    C        39.5915   45.5033   55.0932  C     
10   C        37.9936   47.8074   54.0683  C     
11   N        39.0393   48.5418   54.4467  N     
12   C        40.8455   44.9033   55.1280  C     
13   C        35.6633   49.4006   49.5059  C     
14   C        37.3414   42.3220   50.2128  C     
15   C        38.6587   47.1525   51.7678  C     
16   C        37.0567   45.5923   53.1057  C     
17   C        38.9580   49.6853   55.1798  C     
18   O        36.1408   39.6068   47.7335  O     
19   O        36.1248   51.4989   47.1803  O     
20   C        36.7343   48.2491   54.4638  C     
21   F        33.4520   49.3545   48.6909  F     
22   F        37.7707   41.8534   47.9484  F     
23   F        34.1908   51.2905   49.3906  F     
24   F        38.5068   40.3923   49.4063  F     
25   O        35.9713   39.3116   50.1171  O     
26   O        35.4758   49.3589   46.3491  O     
27   O        33.8714   51.2133   46.4517  O     
28   O        34.8120   41.2032   48.9523  O     
29   C        37.6687   50.1607   55.5375  C     
30   C        36.5721   49.3961   55.1473  C     
31   C        36.4132   50.0147   50.5409  C     
32   C        38.1964   42.3768   51.3429  C     
33   C        35.9655   48.0523   49.1991  C     
34   C        36.3611   43.3357   50.0929  C     
35   C        37.1499   44.4553   52.1342  C     
36   C        37.6468   47.9332   50.9857  C     
37   C        36.2547   44.3649   51.0433  C     
38   C        38.0989   43.4190   52.2863  C     
39   C        36.9552   47.3460   49.9023  C     
40   C        37.3862   49.2963   51.2639  C     
41   C        38.8414   45.6208   56.2853  C     
42   C        41.4032   44.4013   56.3127  C     
43   C        40.1115   50.3898   55.5726  C     
44   C        37.5522   51.3623   56.2699  C     
45   C        39.3860   45.1273   57.4904  C     
46   C        40.6631   44.5264   57.5078  C     
47   C        39.9819   51.5790   56.3147  C     
48   C        38.7066   52.0695   56.6542  C     
49   H        39.5507   47.7815   51.8493  H     
50   H        38.9753   46.2995   51.1674  H     
51   H        36.8649   45.1590   54.0909  H     
52   H        36.1629   46.1608   52.8520  H     
53   H        35.9166   47.7340   54.2525  H     
54   H        35.6512   49.6904   55.3897  H     
55   H        36.2539   50.9946   50.7841  H     
56   H        38.9087   41.6568   51.4881  H     
57   H        35.4526   47.5669   48.4586  H     
58   H        35.7200   43.3394   49.2973  H     
59   H        35.5120   45.0578   50.9237  H     
60   H        38.7248   43.4047   53.0929  H     
61   H        37.1560   46.3852   49.6171  H     
62   H        37.9129   49.7818   51.9902  H     
63   H        37.9233   46.0684   56.2811  H     
64   H        42.3325   43.9697   56.3143  H     
65   H        41.0399   50.0404   55.3232  H     
66   H        36.6321   51.7308   56.5250  H     
67   H        38.8574   45.2235   58.3602  H     
68   H        41.0528   44.1824   58.3849  H     
69   H        40.8199   52.0898   56.6062  H     
70   H        38.6210   52.9391   57.1858  H     
@<TRIPOS>BOND
     1    1    2 1
     2    1    3 1
     3    1    9 1
     4    2   10 1
     5    2   15 1
     6    2   16 1
     7    3    8 2
     8    4    7 1
     9    4   18 2
    10    4   25 1
    11    4   28 1
    12    5    6 1
    13    5   19 2
    14    5   26 1
    15    5   27 1
    16    6   13 1
    17    6   21 1
    18    6   23 1
    19    7   14 1
    20    7   22 1
    21    7   24 1
    22    8   12 1
    23    9   12 2
    24    9   41 1
    25   10   11 2
    26   10   20 1
    27   11   17 1
    28   12   42 1
    29   13   31 2
    30   13   33 1
    31   14   32 1
    32   14   34 2
    33   15   36 1
    34   16   35 1
    35   17   29 1
    36   17   43 2
    37   20   30 2
    38   29   30 1
    39   29   44 2
    40   31   40 1
    41   32   38 2
    42   33   39 2
    43   34   37 1
    44   35   37 2
    45   35   38 1
    46   36   39 1
    47   36   40 2
    48   41   45 2
    49   42   46 2
    50   43   47 1
    51   44   48 1
    52   45   46 1
    53   47   48 2
    54   15   49 1
    55   15   50 1
    56   16   51 1
    57   16   52 1
    58   20   53 1
    59   30   54 1
    60   31   55 1
    61   32   56 1
    62   33   57 1
    63   34   58 1
    64   37   59 1
    65   38   60 1
    66   39   61 1
    67   40   62 1
    68   41   63 1
    69   42   64 1
    70   43   65 1
    71   44   66 1
    72   45   67 1
    73   46   68 1
    74   47   69 1
    75   48   70 1
@<TRIPOS>PROPERTY_DATA
  Total_Score	| 15.5502
  Crash		| -1.0224
  Polar		| 9.0141
  FragIndex	| 1
  FragRMSD	| 0.670

