@<TRIPOS>MOLECULE
BindingDB_50142326
 71 77 0 0 0
SMALL
NO_CHARGES


@<TRIPOS>ATOM
1    N        39.7889   46.3367   53.7690  N     
2    N        40.6688   45.6555   53.1290  N     
3    P        35.0512   50.5575   47.1493  P     
4    C        34.5746   50.1285   48.6862  C     
5    N        41.2922   44.8328   53.8630  N     
6    C        36.6819   41.4345   55.1203  C     
7    C        39.0113   47.3682   53.1014  C     
8    C        39.7917   45.9082   55.0463  C     
9    N        36.5754   42.2639   56.1681  N     
10   N        37.7424   42.4271   56.5951  N     
11   N        37.9797   41.1650   54.9814  N     
12   N        38.5433   41.7873   55.9139  N     
13   C        35.6592   41.0693   54.2331  C     
14   C        40.8069   44.9450   55.1043  C     
15   C        38.1991   46.7755   51.8737  C     
16   C        35.2963   41.8926   53.1270  C     
17   C        35.6090   49.3359   49.4305  C     
18   O        36.1371   51.5048   47.1515  O     
19   C        36.0008   43.0963   52.8173  C     
20   C        37.4175   45.5228   52.2410  C     
21   C        37.4023   47.7173   50.9915  C     
22   C        38.3438   48.3282   54.0759  C     
23   F        33.4189   49.3855   48.5921  F     
24   F        34.2192   51.2861   49.3470  F     
25   O        35.5146   49.3479   46.3196  O     
26   O        33.8921   51.2212   46.3823  O     
27   C        36.3864   49.9055   50.4688  C     
28   C        35.8478   47.9805   49.0972  C     
29   C        35.3131   44.3229   52.7616  C     
30   C        37.3957   43.0794   52.5728  C     
31   C        37.2767   49.1148   51.2157  C     
32   C        36.7390   47.1920   49.8544  C     
33   C        38.0896   44.2720   52.3089  C     
34   C        36.0155   45.5191   52.4076  C     
35   C        39.0478   46.2199   56.2065  C     
36   C        34.9627   39.8654   54.4740  C     
37   C        34.2375   41.4798   52.2886  C     
38   C        41.1652   44.3210   56.3104  C     
39   C        39.1498   49.2679   54.7895  C     
40   C        36.9544   48.3946   54.2611  C     
41   C        39.3988   45.6047   57.4336  C     
42   C        33.5469   40.2777   52.5323  C     
43   C        33.9098   39.4752   53.6291  C     
44   C        40.4589   44.6657   57.4883  C     
45   C        36.3441   49.3509   55.0974  C     
46   C        38.5552   50.2467   55.6188  C     
47   C        37.1491   50.2879   55.7751  C     
48   H        39.7609   47.9986   52.6112  H     
49   H        39.4693   41.9016   55.9607  H     
50   H        38.9821   46.4491   51.1698  H     
51   H        36.3224   50.9075   50.6918  H     
52   H        35.3390   47.5327   48.3309  H     
53   H        34.3039   44.3792   52.9159  H     
54   H        37.9177   42.1963   52.5875  H     
55   H        37.8131   49.5884   51.9453  H     
56   H        36.8571   46.2068   49.5949  H     
57   H        39.1001   44.2169   52.1472  H     
58   H        35.4477   46.3350   52.2514  H     
59   H        38.2793   46.9059   56.1689  H     
60   H        35.2068   39.2662   55.2738  H     
61   H        33.9631   42.0442   51.4776  H     
62   H        41.9422   43.6482   56.3332  H     
63   H        40.1772   49.2745   54.6767  H     
64   H        36.3335   47.7264   53.7651  H     
65   H        38.8735   45.8277   58.2852  H     
66   H        32.7834   39.9824   51.9133  H     
67   H        33.4068   38.6074   53.8152  H     
68   H        40.7027   44.2130   58.3766  H     
69   H        35.3238   49.3783   55.2003  H     
70   H        39.1396   50.9382   56.1045  H     
71   H        36.7166   50.9953   56.3862  H     
@<TRIPOS>BOND
     1    1    2 1
     2    1    7 1
     3    1    8 1
     4    2    5 2
     5    3    4 1
     6    3   18 2
     7    3   25 1
     8    3   26 1
     9    4   17 1
    10    4   23 1
    11    4   24 1
    12    5   14 1
    13    6    9 1
    14    6   11 2
    15    6   13 1
    16    7   15 1
    17    7   22 1
    18    8   14 2
    19    8   35 1
    20    9   10 2
    21   10   12 1
    22   11   12 1
    23   13   16 2
    24   13   36 1
    25   14   38 1
    26   15   20 1
    27   15   21 1
    28   16   19 1
    29   16   37 1
    30   17   27 2
    31   17   28 1
    32   19   29 1
    33   19   30 2
    34   20   33 2
    35   20   34 1
    36   21   31 2
    37   21   32 1
    38   22   39 2
    39   22   40 1
    40   27   31 1
    41   28   32 2
    42   29   34 2
    43   30   33 1
    44   35   41 2
    45   36   43 2
    46   37   42 2
    47   38   44 2
    48   39   46 1
    49   40   45 2
    50   41   44 1
    51   42   43 1
    52   45   47 1
    53   46   47 2
    54    7   48 1
    55   12   49 1
    56   15   50 1
    57   27   51 1
    58   28   52 1
    59   29   53 1
    60   30   54 1
    61   31   55 1
    62   32   56 1
    63   33   57 1
    64   34   58 1
    65   35   59 1
    66   36   60 1
    67   37   61 1
    68   38   62 1
    69   39   63 1
    70   40   64 1
    71   41   65 1
    72   42   66 1
    73   43   67 1
    74   44   68 1
    75   45   69 1
    76   46   70 1
    77   47   71 1
@<TRIPOS>PROPERTY_DATA
  Total_Score	| 12.4980
  Crash		| -1.4512
  Polar		| 8.7417
  FragIndex	| 1
  FragRMSD	| 0.747

