@<TRIPOS>MOLECULE
BindingDB_13595
 65 69 0 0 0
SMALL
NO_CHARGES


@<TRIPOS>ATOM
1    C        38.8730   45.6563   56.2266  C     
2    C        39.4337   45.1881   57.4369  C     
3    C        40.6667   44.4956   57.4311  C     
4    C        41.3573   44.2787   56.2232  C     
5    C        39.5684   45.4450   55.0155  C     
6    C        40.7845   44.7724   55.0347  C     
7    N        41.2189   44.7361   53.7756  N     
8    N        40.3667   45.3315   53.0614  N     
9    N        39.3604   45.7814   53.7210  N     
10   C        38.1349   47.8575   53.9300  C     
11   C        39.2960   48.5850   54.2990  C     
12   C        39.2234   49.8292   54.9494  C     
13   C        37.9750   50.3879   55.2576  C     
14   C        36.8029   49.6836   54.9380  C     
15   C        36.8829   48.4366   54.2938  C     
16   C        38.6169   47.0288   51.6482  C     
17   C        37.5879   47.8176   50.9092  C     
18   C        37.3097   49.1586   51.2574  C     
19   C        36.3311   49.8957   50.5701  C     
20   C        35.5908   49.3257   49.5063  C     
21   C        35.8834   47.9838   49.1480  C     
22   C        36.8579   47.2417   49.8400  C     
23   C        34.5353   50.1081   48.7820  C     
24   F        33.3544   49.4023   48.7220  F     
25   F        34.2155   51.2828   49.4285  F     
26   P        35.0054   50.4992   47.2332  P     
27   O        35.4375   49.3565   46.4713  O     
28   O        33.8648   51.1602   46.4394  O     
29   O        36.1633   51.5103   47.2002  O     
30   C        38.2708   46.5687   53.1295  C     
31   C        36.9723   45.6612   53.1514  C     
32   C        36.8898   44.2748   52.5866  C     
33   C        37.9021   43.6564   51.8127  C     
34   C        37.7447   42.3525   51.2928  C     
35   C        35.5767   42.2030   52.3374  C     
36   C        35.7256   43.5080   52.8404  C     
37   C        36.5666   41.5992   51.5341  C     
38   P        35.1922   40.0360   49.8365  P     
39   O        34.6300   41.2998   49.4056  O     
40   O        35.7505   39.3479   48.5661  O     
41   O        34.0044   39.1509   50.2846  O     
42   C        36.3730   40.2014   51.0215  C     
43   F        37.5381   39.6643   50.5127  F     
44   F        36.0421   39.3966   52.0913  F     
45   H        37.9785   46.1436   56.2399  H     
46   H        38.9463   45.3526   58.3207  H     
47   H        41.0574   44.1463   58.3104  H     
48   H        42.2532   43.7865   56.2078  H     
49   H        40.2212   48.2194   54.0733  H     
50   H        40.0853   50.3310   55.1929  H     
51   H        37.9180   51.3045   55.7153  H     
52   H        35.8911   50.0904   55.1620  H     
53   H        35.9993   47.9760   54.0704  H     
54   H        38.8460   46.1416   51.0560  H     
55   H        39.5487   47.6072   51.6394  H     
56   H        37.8245   49.6150   52.0137  H     
57   H        36.1607   50.8664   50.8553  H     
58   H        35.3808   47.5283   48.3804  H     
59   H        37.0263   46.2714   49.5678  H     
60   H        36.6806   45.5649   54.1976  H     
61   H        36.1686   46.2155   52.6687  H     
62   H        38.7830   44.1345   51.6311  H     
63   H        38.5146   41.9622   50.7488  H     
64   H        34.7259   41.6857   52.5676  H     
65   H        34.9715   43.8964   53.4119  H     
@<TRIPOS>BOND
     1    1    2 2
     2    1    5 1
     3    2    3 1
     4    3    4 2
     5    4    6 1
     6    5    6 2
     7    5    9 1
     8    6    7 1
     9    7    8 2
    10    8    9 1
    11    9   30 1
    12   10   11 1
    13   10   15 2
    14   30   10 1
    15   11   12 2
    16   12   13 1
    17   13   14 2
    18   14   15 1
    19   16   17 1
    20   16   30 1
    21   17   18 2
    22   17   22 1
    23   18   19 1
    24   19   20 2
    25   20   21 1
    26   20   23 1
    27   21   22 2
    28   23   24 1
    29   23   25 1
    30   23   26 1
    31   26   27 2
    32   26   28 1
    33   26   29 1
    34   30   31 1
    35   31   32 1
    36   32   33 1
    37   32   36 2
    38   33   34 2
    39   34   37 1
    40   35   36 1
    41   35   37 2
    42   37   42 1
    43   38   39 2
    44   38   40 1
    45   38   41 1
    46   38   42 1
    47   42   43 1
    48   42   44 1
    49    1   45 1
    50    2   46 1
    51    3   47 1
    52    4   48 1
    53   11   49 1
    54   12   50 1
    55   13   51 1
    56   14   52 1
    57   15   53 1
    58   16   54 1
    59   16   55 1
    60   18   56 1
    61   19   57 1
    62   21   58 1
    63   22   59 1
    64   31   60 1
    65   31   61 1
    66   33   62 1
    67   34   63 1
    68   35   64 1
    69   36   65 1
@<TRIPOS>PROPERTY_DATA
  Total_Score	| 15.1167
  Crash		| -1.1265
  Polar		| 11.0236
  FragIndex	| 1
  FragRMSD	| 0.490

