@<TRIPOS>MOLECULE
BindingDB_13598
 69 74 0 0 0
SMALL
NO_CHARGES


@<TRIPOS>ATOM
1    C        37.8154   50.4221   55.4893  C     
2    C        39.0921   49.9502   55.1381  C     
3    C        39.2213   48.7280   54.4511  C     
4    C        38.0853   47.9464   54.0816  C     
5    C        36.8123   48.4330   54.4893  C     
6    C        36.6816   49.6534   55.1760  C     
7    C        37.0482   45.7316   53.1359  C     
8    C        37.1458   44.5183   52.2625  C     
9    C        38.0609   43.4770   52.5411  C     
10   C        38.1161   42.3187   51.7470  C     
11   C        37.2771   42.1440   50.6061  C     
12   C        36.3567   43.1956   50.3415  C     
13   C        36.2643   44.3202   51.1713  C     
14   C        37.3408   40.9668   49.7700  C     
15   C        38.2953   39.9319   50.0047  C     
16   C        38.3810   38.8034   49.1723  C     
17   C        37.5303   38.6763   48.0596  C     
18   C        36.5632   39.6652   47.8111  C     
19   C        36.4580   40.7782   48.6599  C     
20   C        38.2969   46.7085   53.2204  C     
21   C        38.6615   47.2125   51.7543  C     
22   C        37.6462   47.9933   50.9788  C     
23   C        36.9516   47.3923   49.9038  C     
24   C        35.9400   48.0759   49.2161  C     
25   C        35.6396   49.4314   49.4989  C     
26   C        36.4020   50.0651   50.5112  C     
27   C        37.3866   49.3629   51.2300  C     
28   C        34.5630   50.1442   48.7367  C     
29   F        33.4499   49.3351   48.6516  F     
30   F        34.1382   51.3025   49.3557  F     
31   P        35.0373   50.5644   47.1909  P     
32   O        36.1226   51.5056   47.1496  O     
33   O        35.4830   49.3676   46.3358  O     
34   O        33.8859   51.2247   46.4170  O     
35   N        39.4017   45.9335   53.8022  N     
36   N        40.4122   45.5048   53.1364  N     
37   N        41.2660   44.8877   53.8315  N     
38   C        40.8222   44.8797   55.0878  C     
39   C        39.6006   45.5427   55.0863  C     
40   C        39.4409   45.1835   57.4896  C     
41   C        38.8864   45.6904   56.2924  C     
42   C        41.3914   44.3581   56.2634  C     
43   C        40.6897   44.5237   57.4735  C     
44   H        37.7155   51.3135   55.9874  H     
45   H        39.9272   50.4971   55.3699  H     
46   H        40.1683   48.4195   54.1942  H     
47   H        35.9478   47.9374   54.2713  H     
48   H        35.7517   49.9951   55.4433  H     
49   H        36.1876   46.3133   52.7960  H     
50   H        36.7915   45.3890   54.1454  H     
51   H        38.6685   43.5314   53.3621  H     
52   H        38.7694   41.5863   52.0396  H     
53   H        35.7296   43.1614   49.5302  H     
54   H        35.5257   44.9958   50.9779  H     
55   H        38.9694   39.9902   50.7742  H     
56   H        39.0892   38.0872   49.3618  H     
57   H        37.6132   37.8673   47.4401  H     
58   H        35.9335   39.5753   47.0069  H     
59   H        35.7080   41.4438   48.4504  H     
60   H        39.5680   47.8189   51.7938  H     
61   H        38.9466   46.3352   51.1680  H     
62   H        37.1775   46.4426   49.6028  H     
63   H        35.4314   47.5706   48.4871  H     
64   H        36.2552   51.0538   50.7332  H     
65   H        37.9237   49.8796   51.9282  H     
66   H        38.9389   45.3004   58.3719  H     
67   H        37.9804   46.1622   56.3082  H     
68   H        42.2986   43.8879   56.2417  H     
69   H        41.0922   44.1737   58.3447  H     
@<TRIPOS>BOND
     1    1    2 2
     2    1    6 1
     3    2    3 1
     4    3    4 2
     5    4    5 1
     6    4   20 1
     7    5    6 2
     8    7    8 1
     9    7   20 1
    10    8    9 1
    11    8   13 2
    12    9   10 2
    13   10   11 1
    14   11   12 2
    15   11   14 1
    16   12   13 1
    17   14   15 2
    18   14   19 1
    19   15   16 1
    20   16   17 2
    21   17   18 1
    22   18   19 2
    23   20   21 1
    24   20   35 1
    25   21   22 1
    26   22   23 1
    27   22   27 2
    28   23   24 2
    29   24   25 1
    30   25   26 2
    31   25   28 1
    32   26   27 1
    33   28   29 1
    34   28   30 1
    35   28   31 1
    36   31   32 2
    37   31   33 1
    38   31   34 1
    39   35   36 1
    40   35   39 1
    41   36   37 2
    42   37   38 1
    43   38   39 2
    44   38   42 1
    45   39   41 1
    46   40   41 2
    47   40   43 1
    48   42   43 2
    49    1   44 1
    50    2   45 1
    51    3   46 1
    52    5   47 1
    53    6   48 1
    54    7   49 1
    55    7   50 1
    56    9   51 1
    57   10   52 1
    58   12   53 1
    59   13   54 1
    60   15   55 1
    61   16   56 1
    62   17   57 1
    63   18   58 1
    64   19   59 1
    65   21   60 1
    66   21   61 1
    67   23   62 1
    68   24   63 1
    69   26   64 1
    70   27   65 1
    71   40   66 1
    72   41   67 1
    73   42   68 1
    74   43   69 1
@<TRIPOS>PROPERTY_DATA
  Total_Score	| 14.0965
  Crash		| -1.0844
  Polar		| 7.5714
  FragIndex	| 1
  FragRMSD	| 0.675

