@<TRIPOS>MOLECULE
BindingDB_13604
 96 102 0 0 0
SMALL
NO_CHARGES


@<TRIPOS>ATOM
1    C        37.7634   50.3692   55.5975  C     
2    C        36.6317   49.6141   55.2557  C     
3    C        36.7661   48.4346   54.5035  C     
4    C        38.0517   47.9744   54.0687  C     
5    C        39.1692   48.7482   54.4533  C     
6    C        39.0357   49.9357   55.1985  C     
7    C        37.0010   45.7916   53.0542  C     
8    C        37.1094   44.4902   52.3044  C     
9    C        36.3249   44.2361   51.1552  C     
10   C        36.3671   42.9975   50.4870  C     
11   C        37.1869   41.9439   50.9584  C     
12   C        37.9409   42.1794   52.1387  C     
13   C        37.9054   43.4239   52.7901  C     
14   C        37.2383   40.6718   50.2960  C     
15   C        38.4853   40.0475   50.0635  C     
16   C        36.1395   38.7647   49.1324  C     
17   C        36.0812   40.0093   49.8100  C     
18   C        38.2595   46.7521   53.1732  C     
19   C        38.6351   47.2783   51.7203  C     
20   C        37.6008   48.0393   50.9512  C     
21   C        37.3441   49.4072   51.2009  C     
22   C        36.3561   50.1066   50.4843  C     
23   C        35.5985   49.4679   49.4735  C     
24   C        35.8934   48.1125   49.1901  C     
25   C        36.8879   47.4214   49.8989  C     
26   C        34.5327   50.1863   48.7034  C     
27   F        33.4025   49.4024   48.6158  F     
28   F        34.1203   51.3534   49.3115  F     
29   P        35.0298   50.5845   47.1631  P     
30   O        36.1160   51.5297   47.1476  O     
31   O        35.4916   49.3683   46.3386  O     
32   O        33.8765   51.2282   46.3718  O     
33   N        39.3598   45.9715   53.7532  N     
34   N        40.3620   45.5246   53.0850  N     
35   N        41.2078   44.8963   53.7812  N     
36   C        40.7743   44.9133   55.0398  C     
37   C        39.5692   45.6104   55.0408  C     
38   C        39.4048   45.2595   57.4458  C     
39   C        38.8660   45.7895   56.2489  C     
40   C        41.3281   44.3796   56.2172  C     
41   C        40.6272   44.5527   57.4248  C     
42   P        34.7622   38.0994   48.6337  P     
43   O        33.7066   38.2567   49.6172  O     
44   O        34.2383   38.8412   47.3853  O     
45   O        34.8075   36.6037   48.2815  O     
46   C        38.5792   38.8338   49.3640  C     
47   C        37.4150   38.1776   48.8827  C     
48   C        39.8410   38.2543   49.0999  C     
49   C        39.9469   37.0963   48.3209  C     
50   C        38.7738   36.4756   47.8321  C     
51   N        37.5712   37.0387   48.1315  N     
52   C        38.8719   35.3001   46.9129  C     
53   C        38.1303   34.0207   47.3813  C     
54   C        38.5102   33.4211   48.7775  C     
55   C        37.9016   31.9953   48.9490  C     
56   C        40.0399   33.3766   49.0525  C     
57   O        38.5469   35.6406   45.5431  O     
58   C        37.2465   36.1528   45.1745  C     
59   H        37.6606   51.2364   56.1322  H     
60   H        35.7017   49.9229   55.5439  H     
61   H        35.9135   47.9249   54.2701  H     
62   H        40.1143   48.4659   54.1776  H     
63   H        39.8612   50.4880   55.4368  H     
64   H        36.1935   46.3697   52.5986  H     
65   H        36.6525   45.5405   54.0592  H     
66   H        35.6908   44.9467   50.7943  H     
67   H        35.8099   42.8718   49.6423  H     
68   H        38.5145   41.4388   52.5482  H     
69   H        38.4268   43.5308   53.6593  H     
70   H        39.3465   40.4993   50.3727  H     
71   H        35.1730   40.4525   50.0071  H     
72   H        39.5220   47.9143   51.7694  H     
73   H        38.9449   46.4143   51.1310  H     
74   H        37.8871   49.9201   51.8951  H     
75   H        36.2049   51.0960   50.7021  H     
76   H        35.3820   47.6148   48.4549  H     
77   H        37.0871   46.4534   49.6365  H     
78   H        38.9037   45.3832   58.3279  H     
79   H        37.9857   46.3035   56.2761  H     
80   H        42.2177   43.8726   56.1894  H     
81   H        41.0111   44.1713   58.2940  H     
82   H        40.6947   38.7044   49.4241  H     
83   H        40.8730   36.7138   48.1048  H     
84   H        39.9147   34.9959   46.8335  H     
85   H        37.0579   34.2267   47.3936  H     
86   H        38.3058   33.2434   46.6271  H     
87   H        38.0637   34.0519   49.5615  H     
88   H        36.8205   32.0278   48.7889  H     
89   H        38.0858   31.6111   49.9600  H     
90   H        38.3498   31.3032   48.2274  H     
91   H        40.5682   32.8098   48.2767  H     
92   H        40.2428   32.9079   50.0214  H     
93   H        40.4546   34.3889   49.0873  H     
94   H        36.4529   35.4425   45.4086  H     
95   H        37.2513   36.3136   44.0957  H     
96   H        37.0383   37.1077   45.6522  H     
@<TRIPOS>BOND
     1    1    2 2
     2    1    6 1
     3    2    3 1
     4    3    4 2
     5    4    5 1
     6    4   18 1
     7    5    6 2
     8    7    8 1
     9    7   18 1
    10    8    9 1
    11    8   13 2
    12    9   10 2
    13   10   11 1
    14   11   12 2
    15   11   14 1
    16   12   13 1
    17   14   15 2
    18   14   17 1
    19   15   46 1
    20   16   17 2
    21   16   42 1
    22   16   47 1
    23   18   19 1
    24   18   33 1
    25   19   20 1
    26   20   21 1
    27   20   25 2
    28   21   22 2
    29   22   23 1
    30   23   24 2
    31   23   26 1
    32   24   25 1
    33   26   27 1
    34   26   28 1
    35   26   29 1
    36   29   30 2
    37   29   31 1
    38   29   32 1
    39   33   34 1
    40   33   37 1
    41   34   35 2
    42   35   36 1
    43   36   37 2
    44   36   40 1
    45   37   39 1
    46   38   39 2
    47   38   41 1
    48   40   41 2
    49   42   43 2
    50   42   44 1
    51   42   45 1
    52   46   47 2
    53   46   48 1
    54   47   51 1
    55   48   49 2
    56   49   50 1
    57   50   51 2
    58   50   52 1
    59   52   53 1
    60   52   57 1
    61   53   54 1
    62   54   55 1
    63   54   56 1
    64   57   58 1
    65    1   59 1
    66    2   60 1
    67    3   61 1
    68    5   62 1
    69    6   63 1
    70    7   64 1
    71    7   65 1
    72    9   66 1
    73   10   67 1
    74   12   68 1
    75   13   69 1
    76   15   70 1
    77   17   71 1
    78   19   72 1
    79   19   73 1
    80   21   74 1
    81   22   75 1
    82   24   76 1
    83   25   77 1
    84   38   78 1
    85   39   79 1
    86   40   80 1
    87   41   81 1
    88   48   82 1
    89   49   83 1
    90   52   84 1
    91   53   85 1
    92   53   86 1
    93   54   87 1
    94   55   88 1
    95   55   89 1
    96   55   90 1
    97   56   91 1
    98   56   92 1
    99   56   93 1
   100   58   94 1
   101   58   95 1
   102   58   96 1
@<TRIPOS>PROPERTY_DATA
  Total_Score	| 18.4558
  Crash		| -1.2884
  Polar		| 11.8344
  FragIndex	| 1
  FragRMSD	| 0.537

