@<TRIPOS>MOLECULE
BindingDB_50325145
 31 34 0 0 0
SMALL
NO_CHARGES


@<TRIPOS>ATOM
1    C         3.2328   -6.8480   16.5544  C     
2    C         4.5692   -6.4343   16.6918  C     
3    C         4.8818   -5.3720   17.5602  C     
4    C         2.2135   -6.1838   17.2510  C     
5    C         2.4998   -5.0909   18.1167  C     
6    C         3.8684   -4.6987   18.2824  C     
7    C         1.8136   -3.2930   19.5641  C     
8    C         1.4808   -4.3608   18.7988  C     
9    C         3.1374   -2.9335   19.7018  C     
10   N         4.1359   -3.6251   19.1136  N     
11   C         5.2435   -3.0240   19.5089  C     
12   N         4.9307   -1.9918   20.2582  N     
13   N         3.6488   -1.9118   20.4071  N     
14   O         6.4000   -3.3120   19.2507  O     
15   C         0.0662   -4.7080   18.6849  C     
16   C         5.5787   -7.0782   15.9624  C     
17   C         6.1834   -6.6713   14.7776  C     
18   N         7.0879   -7.6072   14.4524  N     
19   N         7.1067   -8.5579   15.3413  N     
20   C         6.1918   -8.2791   16.2863  C     
21   H         2.9927   -7.6212   15.9248  H     
22   H         5.8603   -5.0901   17.6472  H     
23   H         1.2555   -6.5090   17.1097  H     
24   H         1.1269   -2.7600   20.0445  H     
25   H         5.5712   -1.3654   20.6296  H     
26   H        -0.2534   -4.5994   17.6462  H     
27   H        -0.5927   -4.0840   19.2952  H     
28   H        -0.0862   -5.7409   19.0038  H     
29   H         5.9755   -5.8160   14.2500  H     
30   H         7.6595   -7.5752   13.6746  H     
31   H         5.9910   -8.8425   17.1172  H     
@<TRIPOS>BOND
     1    1    2 2
     2    1    4 1
     3    2    3 1
     4    2   16 1
     5    3    6 2
     6    4    5 2
     7    5    6 1
     8    5    8 1
     9    6   10 1
    10    7    8 2
    11    7    9 1
    12    8   15 1
    13    9   10 1
    14    9   13 2
    15   10   11 1
    16   11   12 1
    17   11   14 2
    18   12   13 1
    19   16   17 2
    20   16   20 1
    21   17   18 1
    22   18   19 1
    23   19   20 2
    24    1   21 1
    25    3   22 1
    26    4   23 1
    27    7   24 1
    28   12   25 1
    29   15   26 1
    30   15   27 1
    31   15   28 1
    32   17   29 1
    33   18   30 1
    34   20   31 1
@<TRIPOS>PROPERTY_DATA
  Total_Score	| 5.9993
  Crash		| -0.4464
  Polar		| 3.4321
  FragIndex	| 1
  FragRMSD	| 1.053

