@<TRIPOS>MOLECULE
BindingDB_50325165
 43 46 0 0 0
SMALL
NO_CHARGES


@<TRIPOS>ATOM
1    C         2.7443   -7.0589   16.8650  C     
2    C         4.1119   -6.7393   16.7271  C     
3    C         4.6090   -5.6173   17.4328  C     
4    C         1.8876   -6.2638   17.6357  C     
5    C         2.3612   -5.1148   18.3135  C     
6    C         3.7619   -4.8122   18.2419  C     
7    C         1.9949   -3.1521   19.6516  C     
8    C         1.4908   -4.2463   19.0386  C     
9    C         3.3478   -2.9011   19.6096  C     
10   N         4.2112   -3.7009   18.9491  N     
11   C         5.3999   -3.1687   19.1771  C     
12   N         5.2561   -2.0870   19.9113  N     
13   N         4.0121   -1.8962   20.1966  N     
14   O         6.4938   -3.5704   18.8128  O     
15   C         0.0503   -4.4872   19.1324  C     
16   C         4.8837   -7.4850   15.7854  C     
17   C         4.9868   -8.8928   15.8951  C     
18   C         5.4421   -9.6728   14.8172  C     
19   C         5.8140   -9.0677   13.5962  C     
20   C         5.8194   -7.6550   13.5222  C     
21   C         5.3601   -6.8728   14.6020  C     
22   C         6.0581   -9.8933   12.3801  C     
23   N         7.3829   -9.6985   11.7526  N     
24   C         8.4769  -10.5437   12.2611  C     
25   H         2.3384   -7.8501   16.3566  H     
26   H         5.5961   -5.3784   17.3324  H     
27   H         0.9020   -6.5300   17.6660  H     
28   H         1.4177   -2.5223   20.1605  H     
29   H         5.9783   -1.5024   20.1984  H     
30   H        -0.3887   -4.4899   18.1324  H     
31   H        -0.4862   -3.7367   19.7192  H     
32   H        -0.1286   -5.4549   19.6057  H     
33   H         4.6622   -9.3707   16.7394  H     
34   H         5.4359  -10.6917   14.9104  H     
35   H         6.0902   -7.1880   12.6527  H     
36   H         5.2912   -5.8586   14.4796  H     
37   H         5.9139  -10.9590   12.5819  H     
38   H         5.3051   -9.6178   11.6382  H     
39   H         7.2887   -9.8811   10.7510  H     
40   H         7.6650   -8.7285   11.8758  H     
41   H         8.6905  -10.2914   13.2999  H     
42   H         9.3723  -10.3563   11.6685  H     
43   H         8.2198  -11.6008   12.1791  H     
@<TRIPOS>BOND
     1    1    2 2
     2    1    4 1
     3    2    3 1
     4    2   16 1
     5    3    6 2
     6    4    5 2
     7    5    6 1
     8    5    8 1
     9    6   10 1
    10    7    8 2
    11    7    9 1
    12    8   15 1
    13    9   10 1
    14    9   13 2
    15   10   11 1
    16   11   12 1
    17   11   14 2
    18   12   13 1
    19   16   17 2
    20   16   21 1
    21   17   18 1
    22   18   19 2
    23   19   20 1
    24   19   22 1
    25   20   21 2
    26   22   23 1
    27   23   24 1
    28    1   25 1
    29    3   26 1
    30    4   27 1
    31    7   28 1
    32   12   29 1
    33   15   30 1
    34   15   31 1
    35   15   32 1
    36   17   33 1
    37   18   34 1
    38   20   35 1
    39   21   36 1
    40   22   37 1
    41   22   38 1
    42   23   39 1
    43   23   40 1
    44   24   41 1
    45   24   42 1
    46   24   43 1
@<TRIPOS>PROPERTY_DATA
  Total_Score	| 5.6646
  Crash		| -0.8006
  Polar		| 2.5356
  FragIndex	| 1
  FragRMSD	| 1.168

