@<TRIPOS>MOLECULE
BindingDB_50325160
 36 39 0 0 0
SMALL
NO_CHARGES


@<TRIPOS>ATOM
1    C         3.0878   -6.7059   16.4647  C     
2    C         4.4556   -6.4636   16.6938  C     
3    C         4.7996   -5.5040   17.6681  C     
4    C         2.0844   -6.0114   17.1865  C     
5    C         2.4221   -5.0160   18.1348  C     
6    C         3.7995   -4.7402   18.3602  C     
7    C         1.8224   -3.2587   19.6606  C     
8    C         1.4399   -4.2643   18.8481  C     
9    C         3.1619   -2.9712   19.8076  C     
10   N         4.1255   -3.6924   19.1993  N     
11   C         5.2671   -3.0937   19.5381  C     
12   N         4.9908   -2.0656   20.3083  N     
13   N         3.7182   -1.9604   20.4925  N     
14   O         6.3915   -3.3610   19.1700  O     
15   C         0.0044   -4.5507   18.7427  C     
16   C         5.4700   -7.1875   15.9548  C     
17   C         5.2419   -8.5507   15.6369  C     
18   C         6.1832   -9.3028   14.8926  C     
19   C         7.3981   -8.7177   14.5126  C     
20   C         7.6632   -7.3789   14.8338  C     
21   C         6.6923   -6.6035   15.5129  C     
22   N         6.9687   -5.2977   15.6396  N     
23   H         2.7750   -7.3597   15.7551  H     
24   H         5.7725   -5.3354   17.8833  H     
25   H         1.1135   -6.2291   16.9733  H     
26   H         1.1675   -2.7019   20.1555  H     
27   H         5.6514   -1.4317   20.6329  H     
28   H        -0.3425   -4.3857   17.7220  H     
29   H        -0.6128   -3.9319   19.3971  H     
30   H        -0.1817   -5.5871   19.0215  H     
31   H         4.4029   -9.0382   15.9460  H     
32   H         5.9711  -10.2627   14.6426  H     
33   H         8.0852   -9.2621   13.9927  H     
34   H         8.5472   -6.9626   14.5426  H     
35   H         7.8351   -4.9457   15.3149  H     
36   H         6.3448   -4.6772   15.9996  H     
@<TRIPOS>BOND
     1    1    2 2
     2    1    4 1
     3    2    3 1
     4    2   16 1
     5    3    6 2
     6    4    5 2
     7    5    6 1
     8    5    8 1
     9    6   10 1
    10    7    8 2
    11    7    9 1
    12    8   15 1
    13    9   10 1
    14    9   13 2
    15   10   11 1
    16   11   12 1
    17   11   14 2
    18   12   13 1
    19   16   17 2
    20   16   21 1
    21   17   18 1
    22   18   19 2
    23   19   20 1
    24   20   21 2
    25   21   22 1
    26    1   23 1
    27    3   24 1
    28    4   25 1
    29    7   26 1
    30   12   27 1
    31   15   28 1
    32   15   29 1
    33   15   30 1
    34   17   31 1
    35   18   32 1
    36   19   33 1
    37   20   34 1
    38   22   35 1
    39   22   36 1
@<TRIPOS>PROPERTY_DATA
  Total_Score	| 5.6463
  Crash		| -0.7215
  Polar		| 2.0387
  FragIndex	| 1
  FragRMSD	| 1.074

