@<TRIPOS>MOLECULE
BindingDB_50325171
 33 36 0 0 0
SMALL
NO_CHARGES


@<TRIPOS>ATOM
1    C         2.9666   -7.0239   16.8205  C     
2    C         4.3635   -6.7655   16.9190  C     
3    C         4.6961   -5.6574   17.7657  C     
4    C         1.9943   -6.2709   17.4827  C     
5    C         2.3375   -5.1523   18.2774  C     
6    C         3.7287   -4.8415   18.4124  C     
7    C         1.7486   -3.2203   19.5814  C     
8    C         1.3607   -4.3295   18.9131  C     
9    C         3.0887   -2.9210   19.6948  C     
10   N         4.0493   -3.7079   19.1582  N     
11   C         5.1871   -3.1167   19.4846  C     
12   N         4.9287   -2.0209   20.1560  N     
13   N         3.6581   -1.8755   20.3060  N     
14   O         6.3319   -3.4547   19.2295  O     
15   C        -0.0646   -4.6476   18.8714  C     
16   C         5.3398   -7.5544   16.1576  C     
17   C         6.7074   -7.1637   16.0241  C     
18   C         7.6183   -7.9184   15.2522  C     
19   N         7.2110   -9.0270   14.6000  N     
20   C         5.9291   -9.4557   14.6668  C     
21   C         4.9907   -8.7556   15.4547  C     
22   H         2.5926   -7.7645   16.2351  H     
23   H         5.6664   -5.4083   17.9204  H     
24   H         1.0156   -6.5367   17.3442  H     
25   H         1.0960   -2.6091   20.0111  H     
26   H         5.5963   -1.3889   20.4729  H     
27   H        -0.4190   -4.6122   17.8391  H     
28   H        -0.6899   -3.9624   19.4560  H     
29   H        -0.2266   -5.6489   19.2760  H     
30   H         7.0902   -6.3322   16.4663  H     
31   H         8.5975   -7.6312   15.1713  H     
32   H         5.6511  -10.3034   14.1580  H     
33   H         4.0622   -9.1751   15.4850  H     
@<TRIPOS>BOND
     1    1    2 2
     2    1    4 1
     3    2    3 1
     4    2   16 1
     5    3    6 2
     6    4    5 2
     7    5    6 1
     8    5    8 1
     9    6   10 1
    10    7    8 2
    11    7    9 1
    12    8   15 1
    13    9   10 1
    14    9   13 2
    15   10   11 1
    16   11   12 1
    17   11   14 2
    18   12   13 1
    19   16   17 2
    20   16   21 1
    21   17   18 1
    22   18   19 2
    23   19   20 1
    24   20   21 2
    25    1   22 1
    26    3   23 1
    27    4   24 1
    28    7   25 1
    29   12   26 1
    30   15   27 1
    31   15   28 1
    32   15   29 1
    33   17   30 1
    34   18   31 1
    35   20   32 1
    36   21   33 1
@<TRIPOS>PROPERTY_DATA
  Total_Score	| 5.4657
  Crash		| -0.3081
  Polar		| 2.0564
  FragIndex	| 1
  FragRMSD	| 1.039

