@<TRIPOS>MOLECULE
BindingDB_50325143
 35 38 0 0 0
SMALL
NO_CHARGES


@<TRIPOS>ATOM
1    C         3.1129   -6.7370   16.5788  C     
2    C         4.4731   -6.4270   16.8079  C     
3    C         4.7643   -5.4355   17.7711  C     
4    C         2.0880   -6.0789   17.2854  C     
5    C         2.3713   -5.0598   18.2301  C     
6    C         3.7444   -4.7187   18.4467  C     
7    C         1.7080   -3.3136   19.7398  C     
8    C         1.3586   -4.3521   18.9464  C     
9    C         3.0321   -2.9575   19.8727  C     
10   N         4.0245   -3.6454   19.2770  N     
11   C         5.1360   -3.0145   19.6193  C     
12   N         4.8272   -1.9803   20.3627  N     
13   N         3.5504   -1.9202   20.5445  N     
14   O         6.2946   -3.2498   19.3120  O     
15   C        -0.0583   -4.7158   18.8586  C     
16   C         5.5267   -7.0677   16.0775  C     
17   C         6.7488   -6.4060   15.7875  C     
18   C         7.8160   -7.0661   15.1418  C     
19   C         7.6574   -8.4044   14.7312  C     
20   C         6.4348   -9.0554   14.9433  C     
21   C         5.3909   -8.4057   15.6250  C     
22   O         9.0129   -6.4506   14.9467  O     
23   H         2.8509   -7.4292   15.8698  H     
24   H         5.7410   -5.2241   17.9707  H     
25   H         1.1218   -6.3371   17.0656  H     
26   H         1.0320   -2.7871   20.2394  H     
27   H         5.4647   -1.3183   20.6775  H     
28   H        -0.4173   -4.5534   17.8413  H     
29   H        -0.6964   -4.1332   19.5286  H     
30   H        -0.1903   -5.7661   19.1252  H     
31   H         6.8753   -5.4290   16.0540  H     
32   H         8.4319   -8.9023   14.2799  H     
33   H         6.3091  -10.0172   14.6128  H     
34   H         4.5366   -8.9279   15.8149  H     
35   H         8.8134   -5.5309   14.6859  H     
@<TRIPOS>BOND
     1    1    2 2
     2    1    4 1
     3    2    3 1
     4    2   16 1
     5    3    6 2
     6    4    5 2
     7    5    6 1
     8    5    8 1
     9    6   10 1
    10    7    8 2
    11    7    9 1
    12    8   15 1
    13    9   10 1
    14    9   13 2
    15   10   11 1
    16   11   12 1
    17   11   14 2
    18   12   13 1
    19   16   17 2
    20   16   21 1
    21   17   18 1
    22   18   19 2
    23   18   22 1
    24   19   20 1
    25   20   21 2
    26    1   23 1
    27    3   24 1
    28    4   25 1
    29    7   26 1
    30   12   27 1
    31   15   28 1
    32   15   29 1
    33   15   30 1
    34   17   31 1
    35   19   32 1
    36   20   33 1
    37   21   34 1
    38   22   35 1
@<TRIPOS>PROPERTY_DATA
  Total_Score	| 6.2293
  Crash		| -0.8448
  Polar		| 2.8840
  FragIndex	| 1
  FragRMSD	| 0.486

