@<TRIPOS>MOLECULE
BindingDB_50325166
 38 41 0 0 0
SMALL
NO_CHARGES


@<TRIPOS>ATOM
1    C         2.7230   -7.0123   16.8359  C     
2    C         4.0816   -6.6538   16.7027  C     
3    C         4.5552   -5.5422   17.4476  C     
4    C         1.8591   -6.2764   17.6550  C     
5    C         2.3127   -5.1506   18.3873  C     
6    C         3.6979   -4.7981   18.2968  C     
7    C         1.9111   -3.2587   19.8178  C     
8    C         1.4368   -4.3555   19.1800  C     
9    C         3.2573   -2.9556   19.7488  C     
10   N         4.1310   -3.7043   19.0371  N     
11   C         5.3008   -3.1346   19.2699  C     
12   N         5.1390   -2.0883   20.0485  N     
13   N         3.8966   -1.9546   20.3676  N     
14   O         6.4034   -3.4709   18.8518  O     
15   C         0.0281   -4.6958   19.3650  C     
16   C         4.8892   -7.3827   15.7787  C     
17   C         5.6127   -6.7087   14.7622  C     
18   C         6.2933   -7.4448   13.7685  C     
19   C         6.2749   -8.8617   13.7594  C     
20   C         5.5752   -9.5280   14.7969  C     
21   C         4.8806   -8.8011   15.7803  C     
22   C         7.0479   -9.6311   12.7361  C     
23   C         6.4323  -10.7819   12.3216  C     
24   N         5.9328  -11.7720   11.9884  N     
25   H         2.3352   -7.7892   16.2979  H     
26   H         5.5365   -5.2774   17.3463  H     
27   H         0.8834   -6.5690   17.6817  H     
28   H         1.3245   -2.6802   20.3833  H     
29   H         5.8506   -1.4928   20.3501  H     
30   H        -0.4852   -4.6790   18.3998  H     
31   H        -0.5125   -4.0192   20.0327  H     
32   H        -0.0464   -5.6987   19.7938  H     
33   H         5.6260   -5.6837   14.7211  H     
34   H         6.7898   -6.9290   13.0340  H     
35   H         5.5271  -10.5451   14.8185  H     
36   H         4.3527   -9.3212   16.4927  H     
37   H         7.2199   -9.0294   11.8338  H     
38   H         8.0205   -9.8971   13.1717  H     
@<TRIPOS>BOND
     1    1    2 2
     2    1    4 1
     3    2    3 1
     4    2   16 1
     5    3    6 2
     6    4    5 2
     7    5    6 1
     8    5    8 1
     9    6   10 1
    10    7    8 2
    11    7    9 1
    12    8   15 1
    13    9   10 1
    14    9   13 2
    15   10   11 1
    16   11   12 1
    17   11   14 2
    18   12   13 1
    19   16   17 2
    20   16   21 1
    21   17   18 1
    22   18   19 2
    23   19   20 1
    24   19   22 1
    25   20   21 2
    26   22   23 1
    27   23   24 3
    28    1   25 1
    29    3   26 1
    30    4   27 1
    31    7   28 1
    32   12   29 1
    33   15   30 1
    34   15   31 1
    35   15   32 1
    36   17   33 1
    37   18   34 1
    38   20   35 1
    39   21   36 1
    40   22   37 1
    41   22   38 1
@<TRIPOS>PROPERTY_DATA
  Total_Score	| 5.0116
  Crash		| -0.6489
  Polar		| 1.9882
  FragIndex	| 1
  FragRMSD	| 1.177

