@<TRIPOS>MOLECULE
BindingDB_50243262
 24 26 0 0 0
SMALL
NO_CHARGES


@<TRIPOS>ATOM
1    C         2.6699   -7.0607   17.3098  C     
2    C         4.0475   -6.8055   17.3508  C     
3    C         4.5322   -5.6662   18.0093  C     
4    C         1.7678   -6.1860   17.9302  C     
5    C         2.2289   -5.0260   18.6071  C     
6    C         3.6415   -4.7674   18.6406  C     
7    C         1.8338   -3.0325   19.8827  C     
8    C         1.3369   -4.1244   19.2525  C     
9    C         3.1910   -2.8006   19.8949  C     
10   N         4.0734   -3.6287   19.3059  N     
11   C         5.2592   -3.0909   19.5383  C     
12   N         5.1046   -1.9860   20.2329  N     
13   N         3.8514   -1.7836   20.4681  N     
14   C        -0.1102   -4.3326   19.2626  C     
15   O         6.3600   -3.4916   19.1942  O     
16   H         2.3234   -7.8933   16.8322  H     
17   H         4.7022   -7.4479   16.8926  H     
18   H         5.5404   -5.5040   18.0147  H     
19   H         0.7730   -6.4205   17.8828  H     
20   H         1.2425   -2.3817   20.3458  H     
21   H         5.8221   -1.3867   20.5091  H     
22   H        -0.4889   -4.3434   18.2376  H     
23   H        -0.6581   -3.5574   19.8068  H     
24   H        -0.3441   -5.2834   19.7461  H     
@<TRIPOS>BOND
     1    1    2 2
     2    1    4 1
     3    2    3 1
     4    3    6 2
     5    4    5 2
     6    5    6 1
     7    5    8 1
     8    6   10 1
     9    7    8 2
    10    7    9 1
    11    8   14 1
    12    9   10 1
    13    9   13 2
    14   10   11 1
    15   11   12 1
    16   11   15 2
    17   12   13 1
    18    1   16 1
    19    2   17 1
    20    3   18 1
    21    4   19 1
    22    7   20 1
    23   12   21 1
    24   14   22 1
    25   14   23 1
    26   14   24 1
@<TRIPOS>PROPERTY_DATA
  Total_Score	| 4.6217
  Crash		| -0.1700
  Polar		| 2.1069
  FragIndex	| 1
  FragRMSD	| 1.083

