@<TRIPOS>MOLECULE
BindingDB_50325172
 33 36 0 0 0
SMALL
NO_CHARGES


@<TRIPOS>ATOM
1    C         3.1972   -6.9096   16.6017  C     
2    C         4.5653   -6.6025   16.7987  C     
3    C         4.8717   -5.5638   17.7117  C     
4    C         2.1871   -6.2275   17.2978  C     
5    C         2.4899   -5.1541   18.1742  C     
6    C         3.8660   -4.8026   18.3615  C     
7    C         1.8407   -3.3292   19.5899  C     
8    C         1.4838   -4.4003   18.8462  C     
9    C         3.1684   -2.9828   19.7231  C     
10   N         4.1566   -3.6972   19.1536  N     
11   C         5.2641   -3.0673   19.4936  C     
12   N         4.9588   -2.0142   20.2177  N     
13   N         3.6819   -1.9376   20.3837  N     
14   O         6.4250   -3.3232   19.1984  O     
15   C         0.0634   -4.7490   18.7632  C     
16   C         5.5914   -7.2939   16.0610  C     
17   C         6.7739   -6.6411   15.6187  C     
18   C         7.7670   -7.3386   14.9049  C     
19   C         7.5667   -8.6953   14.6050  C     
20   N         6.4211   -9.3033   15.0024  N     
21   C         5.4545   -8.6644   15.7119  C     
22   H         2.9068   -7.6210   15.9255  H     
23   H         5.8523   -5.3402   17.8886  H     
24   H         1.2186   -6.4983   17.1116  H     
25   H         1.1627   -2.7705   20.0582  H     
26   H         5.5954   -1.3586   20.5502  H     
27   H        -0.2689   -4.6695   17.7265  H     
28   H        -0.5771   -4.0987   19.3645  H     
29   H        -0.0827   -5.7691   19.1165  H     
30   H         6.9211   -5.6426   15.7989  H     
31   H         8.6167   -6.8635   14.5883  H     
32   H         8.2733   -9.2309   14.0960  H     
33   H         4.6392   -9.2049   15.9991  H     
@<TRIPOS>BOND
     1    1    2 2
     2    1    4 1
     3    2    3 1
     4    2   16 1
     5    3    6 2
     6    4    5 2
     7    5    6 1
     8    5    8 1
     9    6   10 1
    10    7    8 2
    11    7    9 1
    12    8   15 1
    13    9   10 1
    14    9   13 2
    15   10   11 1
    16   11   12 1
    17   11   14 2
    18   12   13 1
    19   16   17 2
    20   16   21 1
    21   17   18 1
    22   18   19 2
    23   19   20 1
    24   20   21 2
    25    1   22 1
    26    3   23 1
    27    4   24 1
    28    7   25 1
    29   12   26 1
    30   15   27 1
    31   15   28 1
    32   15   29 1
    33   17   30 1
    34   18   31 1
    35   19   32 1
    36   21   33 1
@<TRIPOS>PROPERTY_DATA
  Total_Score	| 5.6586
  Crash		| -0.4236
  Polar		| 2.0998
  FragIndex	| 1
  FragRMSD	| 1.037

