@<TRIPOS>MOLECULE
BindingDB_50325170
 38 41 0 0 0
SMALL
NO_CHARGES


@<TRIPOS>ATOM
1    C         3.2906   -6.5718   16.3162  C     
2    C         4.6324   -6.4929   16.7638  C     
3    C         4.8683   -5.6064   17.8380  C     
4    C         2.2470   -5.8819   16.9508  C     
5    C         2.5074   -4.9835   18.0101  C     
6    C         3.8668   -4.7752   18.3860  C     
7    C         1.8229   -3.2862   19.5671  C     
8    C         1.4869   -4.2727   18.7039  C     
9    C         3.1518   -2.9859   19.7821  C     
10   N         4.1453   -3.7179   19.2386  N     
11   C         5.2623   -3.1037   19.5897  C     
12   N         4.9578   -2.0497   20.3099  N     
13   N         3.6775   -1.9477   20.4489  N     
14   O         6.4097   -3.3597   19.2568  O     
15   C         0.0726   -4.6065   18.5310  C     
16   C         5.6391   -7.3243   16.1388  C     
17   C         5.1927   -8.6027   15.6936  C     
18   C         5.9387   -9.3922   14.8093  C     
19   C         7.1822   -8.9395   14.3640  C     
20   C         7.6995   -7.7404   14.8661  C     
21   C         6.9854   -6.9398   15.7978  C     
22   C         7.7117   -5.7112   16.2528  C     
23   O         9.1076   -5.9413   16.4765  O     
24   H         3.0385   -7.1666   15.5231  H     
25   H         5.7824   -5.5664   18.2563  H     
26   H         1.3013   -6.0189   16.5968  H     
27   H         1.1351   -2.7467   20.0395  H     
28   H         5.5976   -1.3869   20.6150  H     
29   H        -0.2621   -4.2681   17.5474  H     
30   H        -0.5729   -4.1486   19.2819  H     
31   H        -0.0747   -5.6869   18.6109  H     
32   H         4.2758   -8.9642   15.9680  H     
33   H         5.5631  -10.2796   14.4678  H     
34   H         7.7204   -9.4888   13.6887  H     
35   H         8.6235   -7.4587   14.5293  H     
36   H         7.6115   -4.9334   15.4944  H     
37   H         7.3589   -5.3314   17.2038  H     
38   H         9.2247   -5.8557   17.4424  H     
@<TRIPOS>BOND
     1    1    2 2
     2    1    4 1
     3    2    3 1
     4    2   16 1
     5    3    6 2
     6    4    5 2
     7    5    6 1
     8    5    8 1
     9    6   10 1
    10    7    8 2
    11    7    9 1
    12    8   15 1
    13    9   10 1
    14    9   13 2
    15   10   11 1
    16   11   12 1
    17   11   14 2
    18   12   13 1
    19   16   17 2
    20   16   21 1
    21   17   18 1
    22   18   19 2
    23   19   20 1
    24   20   21 2
    25   21   22 1
    26   22   23 1
    27    1   24 1
    28    3   25 1
    29    4   26 1
    30    7   27 1
    31   12   28 1
    32   15   29 1
    33   15   30 1
    34   15   31 1
    35   17   32 1
    36   18   33 1
    37   19   34 1
    38   20   35 1
    39   22   36 1
    40   22   37 1
    41   23   38 1
@<TRIPOS>PROPERTY_DATA
  Total_Score	| 7.3085
  Crash		| -0.9240
  Polar		| 3.3830
  FragIndex	| 1
  FragRMSD	| 0.499

