@<TRIPOS>MOLECULE
BindingDB_50379571
 34 37 0 0 0
SMALL
NO_CHARGES


@<TRIPOS>ATOM
1    C         1.2313   -6.1133   18.0578  C     
2    C         0.9824   -4.8946   18.7264  C     
3    C         2.1063   -4.0893   19.0362  C     
4    C         2.5258   -6.4992   17.6808  C     
5    C         3.6507   -5.6860   17.9631  C     
6    C         3.4285   -4.4696   18.6919  C     
7    C         5.9971   -5.1677   17.8307  C     
8    C         4.9781   -6.0114   17.5375  C     
9    C         4.7167   -2.6055   19.7429  C     
10   N         5.9896   -2.2900   19.7319  N     
11   N         6.6600   -3.1475   19.0362  N     
12   C         5.7662   -4.0383   18.5864  C     
13   N         4.5345   -3.6978   19.0196  N     
14   O         3.8978   -1.9442   20.3612  O     
15   C         5.2752   -7.2250   16.7620  C     
16   O         5.0631   -8.3790   17.5676  O     
17   C        -0.3546   -4.5075   19.0948  C     
18   C        -0.6019   -3.6994   20.2371  C     
19   C        -1.9197   -3.3556   20.5948  C     
20   N        -2.9615   -3.8003   19.8514  N     
21   C        -2.7842   -4.5696   18.7493  C     
22   C        -1.4845   -4.9290   18.3442  C     
23   H         0.4627   -6.7501   17.8418  H     
24   H         1.9560   -3.1982   19.5018  H     
25   H         2.6247   -7.3931   17.1961  H     
26   H         6.9293   -5.3465   17.5288  H     
27   H         6.3755   -1.5193   20.1803  H     
28   H         4.6346   -7.2679   15.8770  H     
29   H         6.3062   -7.2700   16.4018  H     
30   H         5.5812   -9.1038   17.1252  H     
31   H         0.1627   -3.3684   20.8295  H     
32   H        -2.0987   -2.7731   21.4186  H     
33   H        -3.5997   -4.8767   18.2146  H     
34   H        -1.3767   -5.4894   17.4943  H     
@<TRIPOS>BOND
     1    1    2 2
     2    1    4 1
     3    2    3 1
     4    2   17 1
     5    3    6 2
     6    4    5 2
     7    5    6 1
     8    5    8 1
     9    6   13 1
    10    7    8 2
    11    7   12 1
    12    8   15 1
    13    9   10 1
    14    9   13 1
    15    9   14 2
    16   10   11 1
    17   11   12 2
    18   12   13 1
    19   15   16 1
    20   17   18 2
    21   17   22 1
    22   18   19 1
    23   19   20 2
    24   20   21 1
    25   21   22 2
    26    1   23 1
    27    3   24 1
    28    4   25 1
    29    7   26 1
    30   10   27 1
    31   15   28 1
    32   15   29 1
    33   16   30 1
    34   18   31 1
    35   19   32 1
    36   21   33 1
    37   22   34 1
@<TRIPOS>PROPERTY_DATA
  Total_Score	| 6.1530
  Crash		| -0.4756
  Polar		| 2.9792
  FragIndex	| 1
  FragRMSD	| 1.405

