@<TRIPOS>MOLECULE
BindingDB_50325169
 38 41 0 0 0
SMALL
NO_CHARGES


@<TRIPOS>ATOM
1    C         2.4740   -6.8628   16.7434  C     
2    C         3.8333   -6.5419   16.5469  C     
3    C         4.3893   -5.4984   17.3266  C     
4    C         1.6864   -6.1509   17.6537  C     
5    C         2.2233   -5.0861   18.4233  C     
6    C         3.6091   -4.7597   18.2559  C     
7    C         1.9764   -3.2505   19.9625  C     
8    C         1.4368   -4.3277   19.3459  C     
9    C         3.3039   -2.9475   19.7635  C     
10   N         4.1178   -3.6849   18.9815  N     
11   C         5.3063   -3.1268   19.1009  C     
12   N         5.2075   -2.0675   19.8756  N     
13   N         3.9948   -1.9386   20.3068  N     
14   O         6.3673   -3.4727   18.5932  O     
15   C         0.0557   -4.6982   19.6726  C     
16   C         4.5782   -7.2174   15.5314  C     
17   C         4.1588   -7.1728   14.1786  C     
18   C         4.8479   -7.8732   13.1762  C     
19   C         5.9929   -8.6400   13.4888  C     
20   C         6.4419   -8.6643   14.8290  C     
21   C         5.7410   -7.9651   15.8336  C     
22   C         6.6284   -9.3955   12.3808  C     
23   O         7.7330  -10.2184   12.7646  O     
24   H         2.0331   -7.6207   16.2193  H     
25   H         5.3635   -5.2447   17.1703  H     
26   H         0.7011   -6.4251   17.7494  H     
27   H         1.4494   -2.6784   20.5788  H     
28   H         5.9388   -1.4679   20.1031  H     
29   H        -0.5631   -4.6218   18.7750  H     
30   H        -0.4021   -4.0689   20.4429  H     
31   H         0.0300   -5.7286   20.0413  H     
32   H         3.3397   -6.6105   13.9105  H     
33   H         4.5098   -7.8235   12.2148  H     
34   H         7.2715   -9.2078   15.0922  H     
35   H         6.0709   -8.0439   16.7969  H     
36   H         5.8757  -10.0225   11.9076  H     
37   H         6.9997   -8.6779   11.6412  H     
38   H         8.4840   -9.5795   12.7917  H     
@<TRIPOS>BOND
     1    1    2 2
     2    1    4 1
     3    2    3 1
     4    2   16 1
     5    3    6 2
     6    4    5 2
     7    5    6 1
     8    5    8 1
     9    6   10 1
    10    7    8 2
    11    7    9 1
    12    8   15 1
    13    9   10 1
    14    9   13 2
    15   10   11 1
    16   11   12 1
    17   11   14 2
    18   12   13 1
    19   16   17 2
    20   16   21 1
    21   17   18 1
    22   18   19 2
    23   19   20 1
    24   19   22 1
    25   20   21 2
    26   22   23 1
    27    1   24 1
    28    3   25 1
    29    4   26 1
    30    7   27 1
    31   12   28 1
    32   15   29 1
    33   15   30 1
    34   15   31 1
    35   17   32 1
    36   18   33 1
    37   20   34 1
    38   21   35 1
    39   22   36 1
    40   22   37 1
    41   23   38 1
@<TRIPOS>PROPERTY_DATA
  Total_Score	| 5.8731
  Crash		| -0.4105
  Polar		| 3.2390
  FragIndex	| 1
  FragRMSD	| 0.846

