@<TRIPOS>MOLECULE
BindingDB_50325168
 38 41 0 0 0
SMALL
NO_CHARGES


@<TRIPOS>ATOM
1    C         2.9300   -6.9575   16.8607  C     
2    C         4.3124   -6.6252   16.8086  C     
3    C         4.6650   -5.4931   17.6025  C     
4    C         1.9848   -6.2265   17.5940  C     
5    C         2.3571   -5.1017   18.3613  C     
6    C         3.7425   -4.7455   18.3705  C     
7    C         1.8670   -3.2601   19.8257  C     
8    C         1.4263   -4.3229   19.1158  C     
9    C         3.2045   -2.9360   19.8260  C     
10   N         4.1206   -3.6510   19.1388  N     
11   C         5.2749   -3.0628   19.4072  C     
12   N         5.0638   -2.0346   20.1944  N     
13   N         3.8086   -1.9320   20.4751  N     
14   O         6.3996   -3.3586   19.0332  O     
15   C        -0.0042   -4.6326   19.1510  C     
16   C         5.2884   -7.3758   16.0010  C     
17   C         4.9173   -8.5015   15.2033  C     
18   C         5.8256   -9.2571   14.4299  C     
19   C         7.1796   -8.8785   14.4173  C     
20   C         7.6024   -7.7779   15.1702  C     
21   C         6.6774   -7.0534   15.9384  C     
22   C         5.3577  -10.4651   13.7057  C     
23   O         4.8442  -11.4109   14.6407  O     
24   H         2.5448   -7.7490   16.3633  H     
25   H         5.6152   -5.1686   17.6269  H     
26   H         1.0091   -6.5331   17.5602  H     
27   H         1.2503   -2.7005   20.3701  H     
28   H         5.7523   -1.4259   20.5129  H     
29   H        -0.4209   -4.5791   18.1439  H     
30   H        -0.5815   -3.9468   19.7752  H     
31   H        -0.1574   -5.6365   19.5496  H     
32   H         3.9607   -8.8235   15.1615  H     
33   H         7.8693   -9.4066   13.8739  H     
34   H         8.5921   -7.5172   15.1609  H     
35   H         7.0833   -6.2844   16.4525  H     
36   H         4.5684  -10.1927   13.0024  H     
37   H         6.1588  -10.9456   13.1355  H     
38   H         5.3230  -11.2240   15.4778  H     
@<TRIPOS>BOND
     1    1    2 2
     2    1    4 1
     3    2    3 1
     4    2   16 1
     5    3    6 2
     6    4    5 2
     7    5    6 1
     8    5    8 1
     9    6   10 1
    10    7    8 2
    11    7    9 1
    12    8   15 1
    13    9   10 1
    14    9   13 2
    15   10   11 1
    16   11   12 1
    17   11   14 2
    18   12   13 1
    19   16   17 2
    20   16   21 1
    21   17   18 1
    22   18   19 2
    23   18   22 1
    24   19   20 1
    25   20   21 2
    26   22   23 1
    27    1   24 1
    28    3   25 1
    29    4   26 1
    30    7   27 1
    31   12   28 1
    32   15   29 1
    33   15   30 1
    34   15   31 1
    35   17   32 1
    36   19   33 1
    37   20   34 1
    38   21   35 1
    39   22   36 1
    40   22   37 1
    41   23   38 1
@<TRIPOS>PROPERTY_DATA
  Total_Score	| 6.4030
  Crash		| -0.6087
  Polar		| 2.9405
  FragIndex	| 1
  FragRMSD	| 0.569

