@<TRIPOS>MOLECULE
BindingDB_50325144
 32 35 0 0 0
SMALL
NO_CHARGES


@<TRIPOS>ATOM
1    C         3.1887   -6.7752   16.4483  C     
2    C         4.5273   -6.3646   16.5729  C     
3    C         4.8456   -5.3125   17.4502  C     
4    C         2.1773   -6.1186   17.1762  C     
5    C         2.4729   -5.0525   18.0636  C     
6    C         3.8423   -4.6501   18.2062  C     
7    C         1.8171   -3.3502   19.6383  C     
8    C         1.4647   -4.3693   18.8136  C     
9    C         3.1345   -2.9774   19.7479  C     
10   N         4.1195   -3.6017   19.0739  N     
11   C         5.2316   -2.9786   19.4405  C     
12   N         4.9218   -2.0216   20.2858  N     
13   N         3.6521   -1.9956   20.5036  N     
14   O         6.3736   -3.1921   19.0800  O     
15   C         0.0489   -4.7258   18.7407  C     
16   C         5.5201   -7.0089   15.8234  C     
17   C         6.2445   -8.1191   16.2237  C     
18   C         7.1295   -8.4170   15.1894  C     
19   N         6.9316   -7.5340   14.1947  N     
20   C         5.9657   -6.6649   14.5523  C     
21   H         2.9330   -7.5344   15.8120  H     
22   H         5.8207   -5.0295   17.5381  H     
23   H         1.2205   -6.4516   17.0393  H     
24   H         1.1437   -2.8665   20.1817  H     
25   H         5.5642   -1.4063   20.6771  H     
26   H        -0.3110   -4.6002   17.7191  H     
27   H        -0.5948   -4.1189   19.3832  H     
28   H        -0.0835   -5.7637   19.0468  H     
29   H         6.1553   -8.6147   17.1070  H     
30   H         7.8137   -9.1733   15.1765  H     
31   H         7.4250   -7.5274   13.3581  H     
32   H         5.6269   -5.8947   13.9804  H     
@<TRIPOS>BOND
     1    1    2 2
     2    1    4 1
     3    2    3 1
     4    2   16 1
     5    3    6 2
     6    4    5 2
     7    5    6 1
     8    5    8 1
     9    6   10 1
    10    7    8 2
    11    7    9 1
    12    8   15 1
    13    9   10 1
    14    9   13 2
    15   10   11 1
    16   11   12 1
    17   11   14 2
    18   12   13 1
    19   16   17 1
    20   16   20 2
    21   17   18 2
    22   18   19 1
    23   19   20 1
    24    1   21 1
    25    3   22 1
    26    4   23 1
    27    7   24 1
    28   12   25 1
    29   15   26 1
    30   15   27 1
    31   15   28 1
    32   17   29 1
    33   18   30 1
    34   19   31 1
    35   20   32 1
@<TRIPOS>PROPERTY_DATA
  Total_Score	| 6.0139
  Crash		| -0.4504
  Polar		| 3.3151
  FragIndex	| 1
  FragRMSD	| 1.094

