@<TRIPOS>MOLECULE
BindingDB_50325159
 35 38 0 0 0
SMALL
NO_CHARGES


@<TRIPOS>ATOM
1    C         3.1693   -6.7827   16.5397  C     
2    C         4.5543   -6.5234   16.7637  C     
3    C         4.8484   -5.5251   17.7339  C     
4    C         2.1602   -6.1132   17.2383  C     
5    C         2.4618   -5.0802   18.1585  C     
6    C         3.8402   -4.7616   18.3742  C     
7    C         1.8153   -3.2724   19.5938  C     
8    C         1.4583   -4.3324   18.8392  C     
9    C         3.1414   -2.9338   19.7334  C     
10   N         4.1333   -3.6548   19.1742  N     
11   C         5.2476   -3.0246   19.5074  C     
12   N         4.9398   -1.9676   20.2294  N     
13   N         3.6660   -1.8874   20.3850  N     
14   O         6.4003   -3.2824   19.2088  O     
15   C         0.0443   -4.6833   18.7568  C     
16   C         5.5876   -7.2216   16.0145  C     
17   C         6.8519   -6.6245   15.7163  C     
18   C         7.8549   -7.3065   14.9994  C     
19   C         7.6210   -8.6119   14.5195  C     
20   C         6.3596   -9.2085   14.7417  C     
21   C         5.3857   -8.5370   15.4942  C     
22   C         8.5536   -9.2630   13.8869  C     
23   N         9.3817   -9.8418   13.3341  N     
24   H         2.8610   -7.4536   15.8350  H     
25   H         5.8186   -5.3345   17.9781  H     
26   H         1.1909   -6.3591   17.0258  H     
27   H         1.1421   -2.7186   20.0629  H     
28   H         5.5671   -1.2997   20.5545  H     
29   H        -0.3033   -4.5976   17.7220  H     
30   H        -0.5991   -4.0470   19.3721  H     
31   H        -0.0931   -5.7141   19.0987  H     
32   H         7.0755   -5.6684   16.0026  H     
33   H         8.7521   -6.8307   14.8237  H     
34   H         6.1444  -10.1501   14.3796  H     
35   H         4.5160   -9.0543   15.6623  H     
@<TRIPOS>BOND
     1    1    2 2
     2    1    4 1
     3    2    3 1
     4    2   16 1
     5    3    6 2
     6    4    5 2
     7    5    6 1
     8    5    8 1
     9    6   10 1
    10    7    8 2
    11    7    9 1
    12    8   15 1
    13    9   10 1
    14    9   13 2
    15   10   11 1
    16   11   12 1
    17   11   14 2
    18   12   13 1
    19   16   17 2
    20   16   21 1
    21   17   18 1
    22   18   19 2
    23   19   20 1
    24   19   22 1
    25   20   21 2
    26   22   23 3
    27    1   24 1
    28    3   25 1
    29    4   26 1
    30    7   27 1
    31   12   28 1
    32   15   29 1
    33   15   30 1
    34   15   31 1
    35   17   32 1
    36   18   33 1
    37   20   34 1
    38   21   35 1
@<TRIPOS>PROPERTY_DATA
  Total_Score	| 4.7493
  Crash		| -1.7629
  Polar		| 2.1493
  FragIndex	| 1
  FragRMSD	| 1.050

