@<TRIPOS>MOLECULE
BindingDB_50325167
 41 44 0 0 0
SMALL
NO_CHARGES


@<TRIPOS>ATOM
1    C         2.6885   -7.0019   16.8163  C     
2    C         4.0542   -6.6724   16.6922  C     
3    C         4.5491   -5.5859   17.4508  C     
4    C         1.8402   -6.2726   17.6539  C     
5    C         2.3121   -5.1691   18.4018  C     
6    C         3.7026   -4.8292   18.3039  C     
7    C         1.9452   -3.2822   19.8430  C     
8    C         1.4554   -4.3843   19.2275  C     
9    C         3.2869   -2.9758   19.7505  C     
10   N         4.1471   -3.7323   19.0359  N     
11   C         5.3324   -3.1756   19.2262  C     
12   N         5.1909   -2.1108   19.9867  N     
13   N         3.9519   -1.9681   20.3307  N     
14   O         6.4215   -3.5359   18.8047  O     
15   C         0.0632   -4.7578   19.4700  C     
16   C         4.8527   -7.3916   15.7545  C     
17   C         5.5753   -6.7179   14.7428  C     
18   C         6.2666   -7.4377   13.7468  C     
19   C         6.2447   -8.8499   13.7341  C     
20   C         5.5457   -9.5248   14.7564  C     
21   C         4.8529   -8.8080   15.7467  C     
22   C         6.9895   -9.6071   12.7089  C     
23   O         8.3318   -9.7812   13.1893  O     
24   C         9.1887  -10.5121   12.3025  C     
25   H         2.2869   -7.7625   16.2586  H     
26   H         5.5367   -5.3415   17.3685  H     
27   H         0.8612   -6.5604   17.6953  H     
28   H         1.3700   -2.6915   20.3990  H     
29   H         5.9084   -1.5109   20.2556  H     
30   H        -0.4934   -4.7400   18.5322  H     
31   H        -0.4536   -4.0955   20.1690  H     
32   H         0.0256   -5.7641   19.8927  H     
33   H         5.5700   -5.6974   14.6960  H     
34   H         6.7754   -6.9222   13.0251  H     
35   H         5.5210  -10.5491   14.7746  H     
36   H         4.3431   -9.3369   16.4573  H     
37   H         6.5115  -10.5732   12.5360  H     
38   H         6.9881   -9.0622   11.7583  H     
39   H         8.8200  -11.5298   12.1566  H     
40   H        10.1806  -10.5610   12.7518  H     
41   H         9.2776  -10.0142   11.3346  H     
@<TRIPOS>BOND
     1    1    2 2
     2    1    4 1
     3    2    3 1
     4    2   16 1
     5    3    6 2
     6    4    5 2
     7    5    6 1
     8    5    8 1
     9    6   10 1
    10    7    8 2
    11    7    9 1
    12    8   15 1
    13    9   10 1
    14    9   13 2
    15   10   11 1
    16   11   12 1
    17   11   14 2
    18   12   13 1
    19   16   17 2
    20   16   21 1
    21   17   18 1
    22   18   19 2
    23   19   20 1
    24   19   22 1
    25   20   21 2
    26   22   23 1
    27   23   24 1
    28    1   25 1
    29    3   26 1
    30    4   27 1
    31    7   28 1
    32   12   29 1
    33   15   30 1
    34   15   31 1
    35   15   32 1
    36   17   33 1
    37   18   34 1
    38   20   35 1
    39   21   36 1
    40   22   37 1
    41   22   38 1
    42   24   39 1
    43   24   40 1
    44   24   41 1
@<TRIPOS>PROPERTY_DATA
  Total_Score	| 5.2733
  Crash		| -1.0392
  Polar		| 1.9247
  FragIndex	| 1
  FragRMSD	| 0.688

