@<TRIPOS>MOLECULE
BindingDB_50332126
 46 49 0 0 0
SMALL
NO_CHARGES


@<TRIPOS>ATOM
1    N        15.2908   -2.7295   11.9058  N     
2    C        14.5916   -1.7839   11.2271  C     
3    C        15.1900   -1.0476   10.1734  C     
4    C        16.5715   -3.0869   11.6313  C     
5    C        17.2026   -2.4569   10.5346  C     
6    C        16.5153   -1.4362    9.8485  C     
7    S        17.6223   -0.8049    8.6892  S     
8    C        18.9527   -1.8392    9.0401  C     
9    C        18.5218   -2.6760   10.0794  C     
10   C        20.2251   -1.8152    8.4128  C     
11   C        21.0159   -2.9874    8.3224  C     
12   C        22.2782   -2.9608    7.7016  C     
13   C        22.7778   -1.7587    7.1668  C     
14   C        22.0027   -0.5863    7.2438  C     
15   C        20.7359   -0.6182    7.8547  C     
16   Cl       24.3033   -1.7244    6.4347  Cl    
17   C        14.5275    0.0113    9.5407  C     
18   N        13.3669    0.4898    9.9343  N     
19   O        15.0303    0.6161    8.6065  O     
20   N        17.2794   -3.9604   12.3899  N     
21   C        17.1060   -4.4310   13.7380  C     
22   C        15.9054   -3.9386   14.6038  C     
23   N        14.6519   -4.6834   14.3541  N     
24   C        14.7744   -6.1555   14.4488  C     
25   C        15.8807   -6.6868   13.5056  C     
26   C        17.2282   -5.9817   13.7977  C     
27   H        13.6360   -1.5959   11.5324  H     
28   H        19.1410   -3.3684   10.5041  H     
29   H        20.6730   -3.8804    8.6863  H     
30   H        22.8302   -3.8204    7.6434  H     
31   H        22.3573    0.2978    6.8704  H     
32   H        20.2009    0.2518    7.9023  H     
33   H        12.9897    1.2648    9.4846  H     
34   H        12.9039    0.1047   10.6930  H     
35   H        18.1349   -4.2100   12.0109  H     
36   H        17.9921   -4.0327   14.2383  H     
37   H        16.1574   -4.0541   15.6632  H     
38   H        15.7266   -2.8754   14.4334  H     
39   H        13.9547   -4.3742   15.0291  H     
40   H        14.3053   -4.4459   13.4285  H     
41   H        14.9931   -6.4385   15.4829  H     
42   H        13.8169   -6.6015   14.1716  H     
43   H        15.9939   -7.7629   13.6501  H     
44   H        15.5933   -6.5130   12.4649  H     
45   H        17.9842   -6.3332   13.0913  H     
46   H        17.5614   -6.2738   14.7983  H     
@<TRIPOS>BOND
     1    1    2 1
     2    1    4 2
     3    2    3 2
     4    3    6 1
     5    3   17 1
     6    4    5 1
     7    4   20 1
     8    5    6 2
     9    5    9 1
    10    6    7 1
    11    7    8 1
    12    8    9 2
    13    8   10 1
    14   10   11 2
    15   10   15 1
    16   11   12 1
    17   12   13 2
    18   13   14 1
    19   13   16 1
    20   14   15 2
    21   17   18 am
    22   17   19 2
    23   21   20 1
    24   21   22 1
    25   21   26 1
    26   22   23 1
    27   23   24 1
    28   24   25 1
    29   25   26 1
    30    2   27 1
    31    9   28 1
    32   11   29 1
    33   12   30 1
    34   14   31 1
    35   15   32 1
    36   18   33 1
    37   18   34 1
    38   20   35 1
    39   21   36 1
    40   22   37 1
    41   22   38 1
    42   23   39 1
    43   23   40 1
    44   24   41 1
    45   24   42 1
    46   25   43 1
    47   25   44 1
    48   26   45 1
    49   26   46 1
@<TRIPOS>PROPERTY_DATA
  Total_Score	| 7.3156
  Crash		| -1.0205
  Polar		| 4.7327
  FragIndex	| 1
  FragRMSD	| 0.768

