@<TRIPOS>MOLECULE
BindingDB_50332159
 50 53 0 0 0
SMALL
NO_CHARGES


@<TRIPOS>ATOM
1    N        14.6128   -3.0470   11.8970  N     
2    C        13.9802   -1.9648   11.3885  C     
3    C        14.6095   -1.1301   10.4316  C     
4    C        15.8602   -3.4450   11.5278  C     
5    C        16.5436   -2.6785   10.5608  C     
6    C        15.9190   -1.5264   10.0503  C     
7    S        17.0787   -0.7780    9.0292  S     
8    C        18.3575   -1.9193    9.2146  C     
9    C        17.8588   -2.8922   10.0936  C     
10   C        19.6605   -1.8301    8.6496  C     
11   C        20.5631   -2.9218    8.6609  C     
12   C        21.8664   -2.7949    8.1492  C     
13   C        22.3307   -1.5700    7.6090  C     
14   C        21.4128   -0.4887    7.5708  C     
15   C        20.1093   -0.6203    8.0713  C     
16   C        13.9682    0.0223    9.9799  C     
17   N        14.3422    0.7008    8.9208  N     
18   O        12.9935    0.4743   10.5654  O     
19   N        16.4660   -4.4981   12.1248  N     
20   C        16.0578   -5.1245   13.3458  C     
21   C        16.3613   -4.1516   14.5171  C     
22   N        15.9046   -4.7096   15.8079  N     
23   C        16.5138   -6.0176   16.1434  C     
24   C        16.2986   -7.0566   15.0145  C     
25   C        16.7288   -6.5009   13.6282  C     
26   C        23.6378   -1.4326    7.1345  C     
27   N        24.1589   -0.2755    6.7794  N     
28   O        24.3937   -2.3941    7.0483  O     
29   H        13.0396   -1.7599   11.7359  H     
30   H        18.4174   -3.6839   10.4190  H     
31   H        20.2849   -3.8291    9.0378  H     
32   H        22.4833   -3.6134    8.1907  H     
33   H        21.6734    0.4130    7.1650  H     
34   H        19.4932    0.1906    8.0110  H     
35   H        13.8671    1.5076    8.6778  H     
36   H        15.0692    0.3870    8.3676  H     
37   H        17.3514   -4.7284   11.7988  H     
38   H        14.9727   -5.2662   13.3130  H     
39   H        17.4360   -3.9383   14.5711  H     
40   H        15.8402   -3.2040   14.3479  H     
41   H        16.1341   -4.0441   16.5522  H     
42   H        14.8867   -4.8180   15.7698  H     
43   H        17.5825   -5.8763   16.3189  H     
44   H        16.0699   -6.3849   17.0700  H     
45   H        16.8675   -7.9654   15.2427  H     
46   H        15.2385   -7.3215   14.9784  H     
47   H        16.4418   -7.2227   12.8603  H     
48   H        17.8171   -6.3962   13.5962  H     
49   H        25.0776   -0.2374    6.4705  H     
50   H        23.6500    0.5457    6.8715  H     
@<TRIPOS>BOND
     1    1    2 1
     2    1    4 2
     3    2    3 2
     4    3    6 1
     5    3   16 1
     6    4    5 1
     7    4   19 1
     8    5    6 2
     9    5    9 1
    10    6    7 1
    11    7    8 1
    12    8    9 2
    13    8   10 1
    14   10   11 2
    15   10   15 1
    16   11   12 1
    17   12   13 2
    18   13   14 1
    19   13   26 1
    20   14   15 2
    21   16   17 am
    22   16   18 2
    23   20   19 1
    24   20   21 1
    25   20   25 1
    26   21   22 1
    27   22   23 1
    28   23   24 1
    29   24   25 1
    30   26   27 am
    31   26   28 2
    32    2   29 1
    33    9   30 1
    34   11   31 1
    35   12   32 1
    36   14   33 1
    37   15   34 1
    38   17   35 1
    39   17   36 1
    40   19   37 1
    41   20   38 1
    42   21   39 1
    43   21   40 1
    44   22   41 1
    45   22   42 1
    46   23   43 1
    47   23   44 1
    48   24   45 1
    49   24   46 1
    50   25   47 1
    51   25   48 1
    52   27   49 1
    53   27   50 1
@<TRIPOS>PROPERTY_DATA
  Total_Score	| 7.5009
  Crash		| -0.6844
  Polar		| 4.5176
  FragIndex	| 1
  FragRMSD	| 0.752

