@<TRIPOS>MOLECULE
BindingDB_50332177
 49 52 0 0 0
SMALL
NO_CHARGES


@<TRIPOS>ATOM
1    N        14.8483   -3.1181   11.6100  N     
2    C        14.2832   -2.0061   11.0753  C     
3    C        15.0346   -1.1289   10.2550  C     
4    C        16.1432   -3.4918   11.4375  C     
5    C        16.9434   -2.6893   10.5902  C     
6    C        16.3717   -1.5371   10.0142  C     
7    S        17.5871   -0.8371    9.0176  S     
8    C        18.8278   -1.9980    9.2952  C     
9    C        18.2780   -2.9304   10.1937  C     
10   C        20.1024   -2.0014    8.6628  C     
11   C        20.8356   -3.2044    8.4988  C     
12   C        22.0807   -3.2120    7.8421  C     
13   C        22.6213   -2.0131    7.3358  C     
14   C        21.9066   -0.8088    7.4853  C     
15   C        20.6610   -0.8061    8.1391  C     
16   Cl       24.1190   -2.0194    6.5464  Cl    
17   C        14.4819    0.0446    9.7292  C     
18   N        13.3115    0.5272   10.0912  N     
19   O        15.0878    0.7329    8.9212  O     
20   N        16.6584   -4.5821   12.0658  N     
21   C        15.9620   -5.6726   12.7080  C     
22   C        14.7252   -5.3168   13.5871  C     
23   N        14.9355   -4.1656   14.4871  N     
24   C        16.9764   -6.5939   13.4606  C     
25   C        17.2548   -6.3457   14.9711  C     
26   C        17.1674   -4.8766   15.4667  C     
27   C        15.7201   -4.3920   15.7102  C     
28   H        13.3014   -1.8266   11.2892  H     
29   H        18.8051   -3.7404   10.5269  H     
30   H        20.4612   -4.0959    8.8324  H     
31   H        22.5866   -4.0964    7.7297  H     
32   H        22.2896    0.0718    7.1245  H     
33   H        20.1727    0.0878    8.2344  H     
34   H        13.0092    1.3761    9.7292  H     
35   H        12.7652    0.0673   10.7464  H     
36   H        17.6142   -4.7036   11.9634  H     
37   H        15.5801   -6.2764   11.8795  H     
38   H        13.8862   -5.0657   12.9380  H     
39   H        14.4011   -6.1880   14.1642  H     
40   H        15.3530   -3.3948   13.9609  H     
41   H        14.0132   -3.8655   14.8034  H     
42   H        16.6123   -7.6214   13.3820  H     
43   H        17.9344   -6.5811   12.9316  H     
44   H        16.5639   -6.9521   15.5656  H     
45   H        18.2599   -6.7225   15.1888  H     
46   H        17.7001   -4.8073   16.4201  H     
47   H        17.6644   -4.2063   14.7622  H     
48   H        15.7535   -3.4341   16.2336  H     
49   H        15.1892   -5.0940   16.3602  H     
@<TRIPOS>BOND
     1    1    2 1
     2    1    4 2
     3    2    3 2
     4    3    6 1
     5    3   17 1
     6    4    5 1
     7    4   20 1
     8    5    6 2
     9    5    9 1
    10    6    7 1
    11    7    8 1
    12    8    9 2
    13    8   10 1
    14   10   11 2
    15   10   15 1
    16   11   12 1
    17   12   13 2
    18   13   14 1
    19   13   16 1
    20   14   15 2
    21   17   18 am
    22   17   19 2
    23   21   20 1
    24   21   22 1
    25   21   24 1
    26   22   23 1
    27   23   27 1
    28   24   25 1
    29   25   26 1
    30   26   27 1
    31    2   28 1
    32    9   29 1
    33   11   30 1
    34   12   31 1
    35   14   32 1
    36   15   33 1
    37   18   34 1
    38   18   35 1
    39   20   36 1
    40   21   37 1
    41   22   38 1
    42   22   39 1
    43   23   40 1
    44   23   41 1
    45   24   42 1
    46   24   43 1
    47   25   44 1
    48   25   45 1
    49   26   46 1
    50   26   47 1
    51   27   48 1
    52   27   49 1
@<TRIPOS>PROPERTY_DATA
  Total_Score	| 7.1523
  Crash		| -1.4657
  Polar		| 4.1636
  FragIndex	| 1
  FragRMSD	| 0.659

