@<TRIPOS>MOLECULE
BindingDB_50332151
 47 50 0 0 0
SMALL
NO_CHARGES


@<TRIPOS>ATOM
1    N        14.8265   -2.8837   11.7042  N     
2    C        14.2799   -1.7871   11.1252  C     
3    C        15.0122   -1.0146   10.1908  C     
4    C        16.0750   -3.3521   11.4365  C     
5    C        16.8567   -2.6491   10.4938  C     
6    C        16.3203   -1.4862    9.9078  C     
7    S        17.5598   -0.8338    8.9059  S     
8    C        18.7601   -2.0294    9.2074  C     
9    C        18.1779   -2.9466   10.0951  C     
10   C        20.0638   -2.0536    8.6510  C     
11   C        20.7529   -0.8509    8.3737  C     
12   C        22.0444   -0.8704    7.8187  C     
13   C        22.6664   -2.0934    7.5154  C     
14   C        21.9936   -3.3041    7.7701  C     
15   C        20.7033   -3.2775    8.3448  C     
16   C        14.4733    0.1367    9.6122  C     
17   N        13.3179    0.6611    9.9688  N     
18   O        15.0601    0.7435    8.7301  O     
19   N        16.5651   -4.4322   12.0939  N     
20   C        15.9921   -5.0167   13.2729  C     
21   C        16.3362   -4.1302   14.5060  C     
22   N        15.8681   -4.7413   15.7691  N     
23   C        16.4273   -6.0900   16.0170  C     
24   C        16.1190   -7.0609   14.8476  C     
25   C        16.5341   -6.4626   13.4756  C     
26   C        22.5679   -4.4414    7.4973  C     
27   N        23.0777   -5.4455    7.2661  N     
28   H        13.3301   -1.5360   11.4023  H     
29   H        18.6899   -3.7537   10.4547  H     
30   H        20.3322    0.0551    8.5939  H     
31   H        22.5366    0.0061    7.6437  H     
32   H        23.6072   -2.0871    7.1092  H     
33   H        20.2120   -4.1583    8.5154  H     
34   H        13.0038    1.4723    9.5398  H     
35   H        12.7846    0.2581   10.6705  H     
36   H        17.4473   -4.7403   11.8395  H     
37   H        14.9021   -5.0753   13.1771  H     
38   H        17.4203   -3.9800   14.5647  H     
39   H        15.8730   -3.1437   14.4115  H     
40   H        16.1586   -4.1238   16.5282  H     
41   H        14.8440   -4.8001   15.7614  H     
42   H        17.5092   -6.0145   16.1565  H     
43   H        15.9989   -6.4815   16.9418  H     
44   H        16.6649   -7.9940   15.0105  H     
45   H        15.0492   -7.2913   14.8346  H     
46   H        16.1514   -7.1065   12.6762  H     
47   H        17.6280   -6.4632   13.4082  H     
@<TRIPOS>BOND
     1    1    2 1
     2    1    4 2
     3    2    3 2
     4    3    6 1
     5    3   16 1
     6    4    5 1
     7    4   19 1
     8    5    6 2
     9    5    9 1
    10    6    7 1
    11    7    8 1
    12    8    9 2
    13    8   10 1
    14   10   11 2
    15   10   15 1
    16   11   12 1
    17   12   13 2
    18   13   14 1
    19   14   15 2
    20   14   26 1
    21   16   17 am
    22   16   18 2
    23   20   19 1
    24   20   21 1
    25   20   25 1
    26   21   22 1
    27   22   23 1
    28   23   24 1
    29   24   25 1
    30   26   27 3
    31    2   28 1
    32    9   29 1
    33   11   30 1
    34   12   31 1
    35   13   32 1
    36   15   33 1
    37   17   34 1
    38   17   35 1
    39   19   36 1
    40   20   37 1
    41   21   38 1
    42   21   39 1
    43   22   40 1
    44   22   41 1
    45   23   42 1
    46   23   43 1
    47   24   44 1
    48   24   45 1
    49   25   46 1
    50   25   47 1
@<TRIPOS>PROPERTY_DATA
  Total_Score	| 7.6917
  Crash		| -0.5555
  Polar		| 4.5739
  FragIndex	| 1
  FragRMSD	| 0.153

