@<TRIPOS>MOLECULE
BindingDB_50332174
 43 46 0 0 0
SMALL
NO_CHARGES


@<TRIPOS>ATOM
1    N        14.8492   -3.0420   11.6233  N     
2    C        14.2976   -1.9080   11.1219  C     
3    C        15.0230   -1.0754   10.2346  C     
4    C        16.1025   -3.4855   11.3442  C     
5    C        16.8912   -2.6965   10.4728  C     
6    C        16.3389   -1.5143    9.9409  C     
7    S        17.5617   -0.8033    8.9598  S     
8    C        18.7881   -1.9862    9.2062  C     
9    C        18.2203   -2.9463   10.0611  C     
10   C        20.0876   -1.9649    8.6282  C     
11   C        20.8289   -3.1583    8.4458  C     
12   C        22.1047   -3.1369    7.8526  C     
13   C        22.6697   -1.9180    7.4340  C     
14   C        21.9496   -0.7219    7.6067  C     
15   C        20.6718   -0.7481    8.1945  C     
16   Cl       24.2061   -1.8920    6.7245  Cl    
17   C        14.4703    0.0925    9.6991  C     
18   N        13.3313    0.6144   10.1033  N     
19   O        15.0312    0.7169    8.8116  O     
20   N        16.6023   -4.6397   11.8560  N     
21   C        16.0637   -5.6165   12.7703  C     
22   C        14.7948   -5.3310   13.6050  C     
23   N        15.2628   -4.4928   14.7153  N     
24   C        16.6361   -4.9173   15.0416  C     
25   C        17.0863   -5.8600   13.9033  C     
26   H        13.3410   -1.6854   11.4016  H     
27   H        18.7447   -3.7615   10.3821  H     
28   H        20.4397   -4.0624    8.7196  H     
29   H        22.6164   -4.0135    7.7254  H     
30   H        22.3494    0.1727    7.3089  H     
31   H        20.1802    0.1400    8.3124  H     
32   H        13.0055    1.4342    9.6966  H     
33   H        12.8234    0.2020   10.8186  H     
34   H        17.4917   -4.8603   11.5408  H     
35   H        15.9180   -6.5366   12.1960  H     
36   H        13.9918   -4.8581   13.0441  H     
37   H        14.3973   -6.2660   14.0142  H     
38   H        15.2790   -3.5160   14.4130  H     
39   H        14.6392   -4.5910   15.5204  H     
40   H        17.2799   -4.0352   15.0919  H     
41   H        16.6555   -5.4284   16.0074  H     
42   H        17.0236   -6.9003   14.2401  H     
43   H        18.1179   -5.6633   13.5966  H     
@<TRIPOS>BOND
     1    1    2 1
     2    1    4 2
     3    2    3 2
     4    3    6 1
     5    3   17 1
     6    4    5 1
     7    4   20 1
     8    5    6 2
     9    5    9 1
    10    6    7 1
    11    7    8 1
    12    8    9 2
    13    8   10 1
    14   10   11 2
    15   10   15 1
    16   11   12 1
    17   12   13 2
    18   13   14 1
    19   13   16 1
    20   14   15 2
    21   17   18 am
    22   17   19 2
    23   21   20 1
    24   21   22 1
    25   21   25 1
    26   22   23 1
    27   23   24 1
    28   24   25 1
    29    2   26 1
    30    9   27 1
    31   11   28 1
    32   12   29 1
    33   14   30 1
    34   15   31 1
    35   18   32 1
    36   18   33 1
    37   20   34 1
    38   21   35 1
    39   22   36 1
    40   22   37 1
    41   23   38 1
    42   23   39 1
    43   24   40 1
    44   24   41 1
    45   25   42 1
    46   25   43 1
@<TRIPOS>PROPERTY_DATA
  Total_Score	| 7.0417
  Crash		| -0.3823
  Polar		| 4.0266
  FragIndex	| 1
  FragRMSD	| 0.639

