@<TRIPOS>MOLECULE
BindingDB_50332125
 46 49 0 0 0
SMALL
NO_CHARGES


@<TRIPOS>ATOM
1    N        14.3381   -2.7404   11.8049  N     
2    C        13.8791   -1.6336   11.1847  C     
3    C        14.6968   -0.9401   10.2678  C     
4    C        15.5704   -3.3075   11.6727  C     
5    C        16.4756   -2.6179   10.8011  C     
6    C        16.0000   -1.4760   10.1094  C     
7    S        17.2775   -0.8977    9.1117  S     
8    C        18.4668   -2.0444    9.5756  C     
9    C        17.8498   -2.8650   10.5352  C     
10   C        19.7679   -2.1220    9.0114  C     
11   C        20.3944   -3.3732    8.8143  C     
12   C        21.6431   -3.4654    8.1703  C     
13   C        22.2993   -2.3012    7.7299  C     
14   C        21.6963   -1.0485    7.9292  C     
15   C        20.4371   -0.9633    8.5502  C     
16   Cl       23.8022   -2.4058    6.9586  Cl    
17   C        14.2339    0.2004    9.6044  C     
18   N        13.0596    0.7486    9.8393  N     
19   O        14.9096    0.7766    8.7654  O     
20   N        15.7401   -4.4913   12.3623  N     
21   C        14.8209   -4.9401   13.4130  C     
22   C        15.5752   -5.0695   14.7656  C     
23   C        16.8652   -5.9274   14.6143  C     
24   C        17.7068   -5.5318   13.3686  C     
25   C        16.8060   -5.4352   12.1102  C     
26   N        15.8608   -3.7157   15.2702  N     
27   H        12.9226   -1.3402   11.3922  H     
28   H        18.3977   -3.5627   11.0372  H     
29   H        19.9300   -4.2323    9.1079  H     
30   H        22.0654   -4.3838    8.0194  H     
31   H        22.1633   -0.1955    7.6151  H     
32   H        20.0210   -0.0410    8.6751  H     
33   H        12.8038    1.5543    9.3693  H     
34   H        12.4526    0.3695   10.4929  H     
35   H        13.9682   -4.2790   13.5801  H     
36   H        14.3946   -5.9101   13.1399  H     
37   H        14.9179   -5.5512   15.4952  H     
38   H        17.4763   -5.8370   15.5160  H     
39   H        16.5763   -6.9784   14.5168  H     
40   H        18.1866   -4.5661   13.5480  H     
41   H        18.4914   -6.2740   13.2055  H     
42   H        16.3734   -6.4217   11.9111  H     
43   H        17.3865   -5.2129   11.2168  H     
44   H        16.4464   -3.2146   14.5991  H     
45   H        16.3429   -3.7550   16.1699  H     
46   H        14.9728   -3.2155   15.3873  H     
@<TRIPOS>BOND
     1    1    2 1
     2    1    4 2
     3    2    3 2
     4    3    6 1
     5    3   17 1
     6    4    5 1
     7    4   20 1
     8    5    6 2
     9    5    9 1
    10    6    7 1
    11    7    8 1
    12    8    9 2
    13    8   10 1
    14   10   11 2
    15   10   15 1
    16   11   12 1
    17   12   13 2
    18   13   14 1
    19   13   16 1
    20   14   15 2
    21   17   18 am
    22   17   19 2
    23   20   21 1
    24   20   25 1
    25   21   22 1
    26   22   23 1
    27   22   26 1
    28   23   24 1
    29   24   25 1
    30    2   27 1
    31    9   28 1
    32   11   29 1
    33   12   30 1
    34   14   31 1
    35   15   32 1
    36   18   33 1
    37   18   34 1
    38   21   35 1
    39   21   36 1
    40   22   37 1
    41   23   38 1
    42   23   39 1
    43   24   40 1
    44   24   41 1
    45   25   42 1
    46   25   43 1
    47   26   44 1
    48   26   45 1
    49   26   46 1
@<TRIPOS>PROPERTY_DATA
  Total_Score	| 6.9867
  Crash		| -1.6035
  Polar		| 4.5952
  FragIndex	| 1
  FragRMSD	| 0.783

