@<TRIPOS>MOLECULE
BindingDB_50332173
 46 49 0 0 0
SMALL
NO_CHARGES


@<TRIPOS>ATOM
1    C        18.0592   -2.8731   10.1145  C     
2    C        18.5720   -1.9813    9.2527  C     
3    S        17.4413   -0.7475    8.8702  S     
4    C        16.2450   -1.4876    9.8878  C     
5    C        16.7623   -2.6378   10.4909  C     
6    C        14.9178   -1.0380   10.1356  C     
7    C        14.1463   -1.8610   10.9945  C     
8    N        14.6784   -2.9696   11.5629  N     
9    C        15.9539   -3.3952   11.3701  C     
10   N        16.4194   -4.4982   12.0049  N     
11   C        19.8655   -2.0103    8.6877  C     
12   C        14.3850    0.1410    9.6021  C     
13   C        15.9517   -5.0301   13.2557  C     
14   C        16.2714   -4.0464   14.4187  C     
15   N        15.8894   -4.6277   15.7294  N     
16   C        16.5392   -5.9302   16.0231  C     
17   C        16.2340   -6.9650   14.9111  C     
18   C        16.6204   -6.4132   13.5108  C     
19   C        20.6465   -3.1997    8.6578  C     
20   C        21.9364   -3.2214    8.0963  C     
21   C        22.4863   -2.0511    7.5357  C     
22   C        21.7339   -0.8655    7.5372  C     
23   C        20.4466   -0.8474    8.1034  C     
24   Cl       24.0416   -2.0664    6.8643  Cl    
25   N        13.2135    0.6328    9.9510  N     
26   O        15.0119    0.8319    8.8109  O     
27   H        18.5725   -3.6351   10.4804  H     
28   H        13.1755   -1.6438   11.2241  H     
29   H        17.1160   -4.9973   11.5677  H     
30   H        14.8678   -5.1857   13.2479  H     
31   H        17.3327   -3.7971   14.4279  H     
32   H        15.7079   -3.1179   14.2755  H     
33   H        16.1338   -3.9626   16.4678  H     
34   H        14.8777   -4.7641   15.7339  H     
35   H        17.6199   -5.7938   16.1192  H     
36   H        16.1576   -6.3007   16.9834  H     
37   H        16.7863   -7.8871   15.1003  H     
38   H        15.1662   -7.1981   14.9245  H     
39   H        16.2969   -7.1256   12.7411  H     
40   H        17.7103   -6.3204   13.4495  H     
41   H        20.2829   -4.0768    9.0356  H     
42   H        22.4737   -4.0933    8.0996  H     
43   H        22.1214   -0.0092    7.1282  H     
44   H        19.9470    0.0434    8.0847  H     
45   H        12.9208    1.4844    9.5936  H     
46   H        12.6543    0.1778   10.5983  H     
@<TRIPOS>BOND
     1    1    2 2
     2    1    5 1
     3    2    3 1
     4    2   11 1
     5    3    4 1
     6    4    5 1
     7    4    6 2
     8    5    9 2
     9    6    7 1
    10    6   12 1
    11    7    8 2
    12    8    9 1
    13    9   10 1
    14   13   10 1
    15   11   19 2
    16   11   23 1
    17   12   25 am
    18   12   26 2
    19   13   14 1
    20   13   18 1
    21   14   15 1
    22   15   16 1
    23   16   17 1
    24   17   18 1
    25   19   20 1
    26   20   21 2
    27   21   22 1
    28   21   24 1
    29   22   23 2
    30    1   27 1
    31    7   28 1
    32   10   29 1
    33   13   30 1
    34   14   31 1
    35   14   32 1
    36   15   33 1
    37   15   34 1
    38   16   35 1
    39   16   36 1
    40   17   37 1
    41   17   38 1
    42   18   39 1
    43   18   40 1
    44   19   41 1
    45   20   42 1
    46   22   43 1
    47   23   44 1
    48   25   45 1
    49   25   46 1
@<TRIPOS>PROPERTY_DATA
  Total_Score	| 7.7963
  Crash		| -0.4311
  Polar		| 4.7026
  FragIndex	| 1
  FragRMSD	| 0.211

