@<TRIPOS>MOLECULE
BindingDB_50332152
 46 49 0 0 0
SMALL
NO_CHARGES


@<TRIPOS>ATOM
1    N        14.7616   -3.1939   11.5006  N     
2    C        14.2199   -2.0517   11.0074  C     
3    C        14.9960   -1.1575   10.2313  C     
4    C        16.0469   -3.5915   11.3195  C     
5    C        16.8682   -2.7668   10.5141  C     
6    C        16.3283   -1.5773    9.9905  C     
7    S        17.5750   -0.8569    9.0498  S     
8    C        18.7975   -2.0449    9.2889  C     
9    C        18.2078   -3.0051   10.1316  C     
10   C        20.0969   -2.0326    8.6923  C     
11   C        20.5310   -0.9266    7.9150  C     
12   C        21.8025   -0.9040    7.3135  C     
13   C        22.6747   -1.9940    7.4680  C     
14   C        22.2721   -3.0981    8.2346  C     
15   C        20.9986   -3.1181    8.8342  C     
16   C        14.4692    0.0401    9.7345  C     
17   N        13.3021    0.5305   10.0963  N     
18   O        15.0912    0.7356    8.9448  O     
19   N        16.5418   -4.7111   11.9068  N     
20   C        15.8477   -5.7628   12.6165  C     
21   C        14.6422   -5.3338   13.5100  C     
22   N        15.0918   -4.4924   14.6437  N     
23   C        16.0314   -5.1895   15.5553  C     
24   C        17.2644   -5.7020   14.7724  C     
25   C        16.8606   -6.5375   13.5258  C     
26   F        23.8553   -1.9702    6.9149  F     
27   H        13.2360   -1.8706   11.2109  H     
28   H        18.7073   -3.8363   10.4385  H     
29   H        19.9314   -0.1084    7.7751  H     
30   H        22.0899   -0.0863    6.7639  H     
31   H        22.9053   -3.8907    8.3654  H     
32   H        20.7421   -3.9477    9.3721  H     
33   H        13.0053    1.3859    9.7470  H     
34   H        12.7465    0.0665   10.7362  H     
35   H        17.4931   -4.8577   11.7753  H     
36   H        15.4812   -6.4719   11.8673  H     
37   H        13.8943   -4.7871   12.9402  H     
38   H        14.1332   -6.2227   13.8971  H     
39   H        15.5634   -3.6615   14.2774  H     
40   H        14.2610   -4.1951   15.1590  H     
41   H        16.3530   -4.4880   16.3324  H     
42   H        15.5201   -6.0230   16.0446  H     
43   H        17.8466   -4.8376   14.4453  H     
44   H        17.8945   -6.3057   15.4364  H     
45   H        16.4097   -7.4785   13.8615  H     
46   H        17.7606   -6.7980   12.9656  H     
@<TRIPOS>BOND
     1    1    2 1
     2    1    4 2
     3    2    3 2
     4    3    6 1
     5    3   16 1
     6    4    5 1
     7    4   19 1
     8    5    6 2
     9    5    9 1
    10    6    7 1
    11    7    8 1
    12    8    9 2
    13    8   10 1
    14   10   11 2
    15   10   15 1
    16   11   12 1
    17   12   13 2
    18   13   14 1
    19   13   26 1
    20   14   15 2
    21   16   17 am
    22   16   18 2
    23   20   19 1
    24   20   21 1
    25   20   25 1
    26   21   22 1
    27   22   23 1
    28   23   24 1
    29   24   25 1
    30    2   27 1
    31    9   28 1
    32   11   29 1
    33   12   30 1
    34   14   31 1
    35   15   32 1
    36   17   33 1
    37   17   34 1
    38   19   35 1
    39   20   36 1
    40   21   37 1
    41   21   38 1
    42   22   39 1
    43   22   40 1
    44   23   41 1
    45   23   42 1
    46   24   43 1
    47   24   44 1
    48   25   45 1
    49   25   46 1
@<TRIPOS>PROPERTY_DATA
  Total_Score	| 6.8796
  Crash		| -1.2123
  Polar		| 4.8885
  FragIndex	| 1
  FragRMSD	| 0.753

