@<TRIPOS>MOLECULE
BindingDB_50332137
 46 49 0 0 0
SMALL
NO_CHARGES


@<TRIPOS>ATOM
1    N        14.9089   -2.8689   11.7713  N     
2    C        14.3238   -1.8236   11.1151  C     
3    C        15.0457   -1.0291   10.1861  C     
4    C        16.1997   -3.2459   11.5794  C     
5    C        16.9870   -2.5025   10.6661  C     
6    C        16.4011   -1.4114    9.9972  C     
7    S        17.6614   -0.7509    9.0257  S     
8    C        18.9547   -1.8190    9.4458  C     
9    C        18.3485   -2.7160   10.3483  C     
10   C        20.3053   -1.7665    8.9424  C     
11   C        20.5210   -1.1602    7.6742  C     
12   C        21.7939   -1.0811    7.0861  C     
13   C        22.9050   -1.6323    7.7442  C     
14   C        22.7385   -2.2278    9.0041  C     
15   C        21.4649   -2.2788    9.6121  C     
16   C        14.4613    0.0543    9.5295  C     
17   N        13.2435    0.4845    9.7580  N     
18   O        15.0879    0.7023    8.7068  O     
19   N        16.7210   -4.2915   12.2680  N     
20   C        16.1166   -4.9555   13.3938  C     
21   C        16.2529   -4.0673   14.6683  C     
22   N        15.7662   -4.7465   15.8838  N     
23   C        16.3869   -6.0614   16.1480  C     
24   C        16.2503   -7.0126   14.9343  C     
25   C        16.7825   -6.3468   13.6358  C     
26   Cl       21.4793   -2.9204   11.1792  Cl    
27   H        13.3489   -1.6301   11.3319  H     
28   H        18.8428   -3.4962   10.7522  H     
29   H        19.7418   -0.7551    7.1421  H     
30   H        21.9263   -0.6338    6.1729  H     
31   H        23.8369   -1.5928    7.3184  H     
32   H        23.5520   -2.6209    9.4816  H     
33   H        12.9227    1.2813    9.3059  H     
34   H        12.6687    0.0312   10.3960  H     
35   H        17.6260   -4.5724   12.0256  H     
36   H        15.0563   -5.1243   13.1850  H     
37   H        17.2985   -3.7724   14.8137  H     
38   H        15.6679   -3.1490   14.5401  H     
39   H        15.9539   -4.1342   16.6805  H     
40   H        14.7536   -4.8664   15.8072  H     
41   H        17.4428   -5.9171   16.3955  H     
42   H        15.8959   -6.5077   17.0162  H     
43   H        16.8068   -7.9288   15.1257  H     
44   H        15.1987   -7.2724   14.7999  H     
45   H        16.5666   -7.0017   12.7873  H     
46   H        17.8659   -6.2327   13.7084  H     
@<TRIPOS>BOND
     1    1    2 1
     2    1    4 2
     3    2    3 2
     4    3    6 1
     5    3   16 1
     6    4    5 1
     7    4   19 1
     8    5    6 2
     9    5    9 1
    10    6    7 1
    11    7    8 1
    12    8    9 2
    13    8   10 1
    14   10   11 2
    15   10   15 1
    16   11   12 1
    17   12   13 2
    18   13   14 1
    19   14   15 2
    20   15   26 1
    21   16   17 am
    22   16   18 2
    23   20   19 1
    24   20   21 1
    25   20   25 1
    26   21   22 1
    27   22   23 1
    28   23   24 1
    29   24   25 1
    30    2   27 1
    31    9   28 1
    32   11   29 1
    33   12   30 1
    34   13   31 1
    35   14   32 1
    36   17   33 1
    37   17   34 1
    38   19   35 1
    39   20   36 1
    40   21   37 1
    41   21   38 1
    42   22   39 1
    43   22   40 1
    44   23   41 1
    45   23   42 1
    46   24   43 1
    47   24   44 1
    48   25   45 1
    49   25   46 1
@<TRIPOS>PROPERTY_DATA
  Total_Score	| 6.2715
  Crash		| -0.8969
  Polar		| 4.0348
  FragIndex	| 1
  FragRMSD	| 0.550

