@<TRIPOS>MOLECULE
BindingDB_50332148
 46 49 0 0 0
SMALL
NO_CHARGES


@<TRIPOS>ATOM
1    N        14.7987   -2.8818   11.7575  N     
2    C        14.2272   -1.8023   11.1684  C     
3    C        14.9314   -1.0302   10.2069  C     
4    C        16.0486   -3.3351   11.4671  C     
5    C        16.8050   -2.6257   10.5053  C     
6    C        16.2402   -1.4845    9.9089  C     
7    S        17.4530   -0.8407    8.8691  S     
8    C        18.6841   -2.0080    9.1636  C     
9    C        18.1281   -2.9038   10.0925  C     
10   C        19.9825   -2.0294    8.5712  C     
11   C        20.8051   -3.1874    8.6205  C     
12   C        22.0713   -3.2123    8.0073  C     
13   C        22.5548   -2.0785    7.3305  C     
14   C        21.7562   -0.9125    7.2699  C     
15   C        20.4874   -0.8963    7.8829  C     
16   C        14.3709    0.1109    9.6273  C     
17   N        13.2213    0.6344    9.9958  N     
18   O        14.9540    0.7300    8.7505  O     
19   N        16.5839   -4.4046   12.1050  N     
20   C        16.0996   -5.0146   13.3083  C     
21   C        16.4022   -4.0663   14.5031  C     
22   N        15.8421   -4.6010   15.7647  N     
23   C        16.3423   -5.9516   16.1203  C     
24   C        16.1216   -6.9613   14.9636  C     
25   C        16.6876   -6.4249   13.6234  C     
26   F        22.1704    0.1524    6.6343  F     
27   Cl       24.0849   -2.1368    6.6036  Cl    
28   H        13.2795   -1.5533   11.4572  H     
29   H        18.6562   -3.6885   10.4758  H     
30   H        20.4965   -4.0388    9.0901  H     
31   H        22.6368   -4.0651    8.0602  H     
32   H        19.9360   -0.0373    7.8212  H     
33   H        12.8989    1.4454    9.5694  H     
34   H        12.6933    0.2280   10.7014  H     
35   H        17.4559   -4.6927   11.8006  H     
36   H        15.0089   -5.0969   13.2181  H     
37   H        17.4848   -3.9344   14.6189  H     
38   H        15.9591   -3.0833   14.3173  H     
39   H        16.0870   -3.9580   16.5217  H     
40   H        14.8213   -4.6393   15.6822  H     
41   H        17.4095   -5.8919   16.3539  H     
42   H        15.8095   -6.2947   17.0114  H     
43   H        16.6099   -7.9139   15.2104  H     
44   H        15.0474   -7.1472   14.8585  H     
45   H        16.4259   -7.1329   12.8353  H     
46   H        17.7787   -6.3735   13.6817  H     
@<TRIPOS>BOND
     1    1    2 1
     2    1    4 2
     3    2    3 2
     4    3    6 1
     5    3   16 1
     6    4    5 1
     7    4   19 1
     8    5    6 2
     9    5    9 1
    10    6    7 1
    11    7    8 1
    12    8    9 2
    13    8   10 1
    14   10   11 2
    15   10   15 1
    16   11   12 1
    17   12   13 2
    18   13   14 1
    19   13   27 1
    20   14   15 2
    21   14   26 1
    22   16   17 am
    23   16   18 2
    24   20   19 1
    25   20   21 1
    26   20   25 1
    27   21   22 1
    28   22   23 1
    29   23   24 1
    30   24   25 1
    31    2   28 1
    32    9   29 1
    33   11   30 1
    34   12   31 1
    35   15   32 1
    36   17   33 1
    37   17   34 1
    38   19   35 1
    39   20   36 1
    40   21   37 1
    41   21   38 1
    42   22   39 1
    43   22   40 1
    44   23   41 1
    45   23   42 1
    46   24   43 1
    47   24   44 1
    48   25   45 1
    49   25   46 1
@<TRIPOS>PROPERTY_DATA
  Total_Score	| 7.3137
  Crash		| -0.4564
  Polar		| 4.4867
  FragIndex	| 1
  FragRMSD	| 0.192

