@<TRIPOS>MOLECULE
BindingDB_50332123
 46 49 0 0 0
SMALL
NO_CHARGES


@<TRIPOS>ATOM
1    N        14.5855   -2.9091   11.7196  N     
2    C        14.0544   -1.7996   11.1407  C     
3    C        14.8116   -1.0062   10.2423  C     
4    C        15.8577   -3.3441   11.5116  C     
5    C        16.6813   -2.5944   10.6396  C     
6    C        16.1437   -1.4457   10.0216  C     
7    S        17.3944   -0.8173    9.0156  S     
8    C        18.6101   -1.9893    9.3674  C     
9    C        18.0215   -2.8743   10.2870  C     
10   C        19.9178   -2.0268    8.7964  C     
11   C        20.4499   -0.9041    8.1129  C     
12   C        21.7369   -0.9389    7.5366  C     
13   C        22.5179   -2.1045    7.6201  C     
14   C        22.0014   -3.2343    8.2745  C     
15   C        20.7207   -3.1963    8.8530  C     
16   Cl       24.0654   -2.1429    6.9332  Cl    
17   C        14.2850    0.1310    9.6236  C     
18   N        13.1048    0.6458    9.9031  N     
19   O        14.9307    0.7657    8.7940  O     
20   N        16.3301   -4.4662   12.1082  N     
21   C        15.6105   -5.3997   12.9274  C     
22   C        16.3423   -5.6485   14.2765  C     
23   N        15.7430   -4.9447   15.4294  N     
24   C        16.2535   -5.5984   16.6466  C     
25   C        16.7059   -7.0152   16.2282  C     
26   C        16.3275   -7.1194   14.7434  C     
27   H        13.0862   -1.5602   11.3602  H     
28   H        18.5248   -3.6712   10.6799  H     
29   H        19.9141   -0.0325    8.0324  H     
30   H        22.1005   -0.1059    7.0634  H     
31   H        22.5507   -4.0927    8.3339  H     
32   H        20.3759   -4.0419    9.3079  H     
33   H        12.8207    1.4584    9.4549  H     
34   H        12.5247    0.2390   10.5691  H     
35   H        17.2569   -4.6962   11.9271  H     
36   H        14.5739   -5.1145   13.1164  H     
37   H        15.5766   -6.3269   12.3508  H     
38   H        17.3926   -5.3389   14.1843  H     
39   H        15.9893   -3.9524   15.4186  H     
40   H        14.7214   -5.0473   15.4225  H     
41   H        17.0988   -5.0334   17.0381  H     
42   H        15.4657   -5.6406   17.4010  H     
43   H        17.7896   -7.1139   16.3405  H     
44   H        16.2126   -7.7905   16.8188  H     
45   H        15.3276   -7.5534   14.6372  H     
46   H        17.0474   -7.7212   14.1799  H     
@<TRIPOS>BOND
     1    1    2 1
     2    1    4 2
     3    2    3 2
     4    3    6 1
     5    3   17 1
     6    4    5 1
     7    4   20 1
     8    5    6 2
     9    5    9 1
    10    6    7 1
    11    7    8 1
    12    8    9 2
    13    8   10 1
    14   10   11 2
    15   10   15 1
    16   11   12 1
    17   12   13 2
    18   13   14 1
    19   13   16 1
    20   14   15 2
    21   17   18 am
    22   17   19 2
    23   20   21 1
    24   22   21 1
    25   22   23 1
    26   22   26 1
    27   23   24 1
    28   24   25 1
    29   25   26 1
    30    2   27 1
    31    9   28 1
    32   11   29 1
    33   12   30 1
    34   14   31 1
    35   15   32 1
    36   18   33 1
    37   18   34 1
    38   20   35 1
    39   21   36 1
    40   21   37 1
    41   22   38 1
    42   23   39 1
    43   23   40 1
    44   24   41 1
    45   24   42 1
    46   25   43 1
    47   25   44 1
    48   26   45 1
    49   26   46 1
@<TRIPOS>PROPERTY_DATA
  Total_Score	| 6.1824
  Crash		| -0.3282
  Polar		| 3.5007
  FragIndex	| 1
  FragRMSD	| 0.566

