@<TRIPOS>MOLECULE
BindingDB_50332122
 49 52 0 0 0
SMALL
NO_CHARGES


@<TRIPOS>ATOM
1    N        14.9971   -3.2122   11.4154  N     
2    C        14.3804   -2.1072   10.9254  C     
3    C        15.1017   -1.1627   10.1538  C     
4    C        16.3125   -3.5225   11.2253  C     
5    C        17.0719   -2.6572   10.4050  C     
6    C        16.4528   -1.5054    9.8854  C     
7    S        17.6381   -0.7283    8.9106  S     
8    C        18.9376   -1.8345    9.1500  C     
9    C        18.4208   -2.8248   10.0081  C     
10   C        20.2360   -1.7210    8.5672  C     
11   C        21.2185   -2.7225    8.7654  C     
12   C        22.5006   -2.6142    8.1955  C     
13   C        22.8345   -1.5015    7.4049  C     
14   C        21.8796   -0.4851    7.2061  C     
15   C        20.5992   -0.5971    7.7766  C     
16   Cl       24.3722   -1.3877    6.7079  Cl    
17   C        14.5155    0.0231    9.7071  C     
18   N        13.3120    0.4345   10.0525  N     
19   O        15.1172    0.7969    8.9810  O     
20   N        16.8760   -4.6099   11.8160  N     
21   C        16.1989   -5.5724   12.6344  C     
22   C        15.4087   -4.9752   13.8519  C     
23   N        14.2534   -5.8265   14.2453  N     
24   C        14.6017   -7.0608   14.9873  C     
25   C        15.3927   -6.7155   16.2747  C     
26   C        16.6465   -5.8618   15.9464  C     
27   C        16.2792   -4.6163   15.0968  C     
28   H        13.3866   -1.9832   11.1399  H     
29   H        18.9645   -3.6329   10.3089  H     
30   H        21.0230   -3.5459    9.3327  H     
31   H        23.1890   -3.3500    8.3617  H     
32   H        22.1214    0.3411    6.6551  H     
33   H        19.9390    0.1643    7.6092  H     
34   H        13.0001    1.2995    9.7409  H     
35   H        12.7376   -0.1121   10.6115  H     
36   H        17.8210   -4.7619   11.6581  H     
37   H        15.5315   -6.1392   11.9879  H     
38   H        16.9478   -6.2783   12.9941  H     
39   H        14.9564   -4.0387   13.5303  H     
40   H        13.6397   -5.2651   14.8382  H     
41   H        13.7227   -6.0776   13.4070  H     
42   H        13.6789   -7.5801   15.2471  H     
43   H        15.1922   -7.7219   14.3447  H     
44   H        14.7412   -6.1641   16.9616  H     
45   H        15.6966   -7.6365   16.7757  H     
46   H        17.1196   -5.5321   16.8745  H     
47   H        17.3726   -6.4708   15.3991  H     
48   H        17.1880   -4.1037   14.7731  H     
49   H        15.7289   -3.9212   15.7399  H     
@<TRIPOS>BOND
     1    1    2 1
     2    1    4 2
     3    2    3 2
     4    3    6 1
     5    3   17 1
     6    4    5 1
     7    4   20 1
     8    5    6 2
     9    5    9 1
    10    6    7 1
    11    7    8 1
    12    8    9 2
    13    8   10 1
    14   10   11 2
    15   10   15 1
    16   11   12 1
    17   12   13 2
    18   13   14 1
    19   13   16 1
    20   14   15 2
    21   17   18 am
    22   17   19 2
    23   20   21 1
    24   21   22 1
    25   22   23 1
    26   22   27 1
    27   23   24 1
    28   24   25 1
    29   25   26 1
    30   26   27 1
    31    2   28 1
    32    9   29 1
    33   11   30 1
    34   12   31 1
    35   14   32 1
    36   15   33 1
    37   18   34 1
    38   18   35 1
    39   20   36 1
    40   21   37 1
    41   21   38 1
    42   22   39 1
    43   23   40 1
    44   23   41 1
    45   24   42 1
    46   24   43 1
    47   25   44 1
    48   25   45 1
    49   26   46 1
    50   26   47 1
    51   27   48 1
    52   27   49 1
@<TRIPOS>PROPERTY_DATA
  Total_Score	| 7.1868
  Crash		| -0.4868
  Polar		| 4.0974
  FragIndex	| 1
  FragRMSD	| 0.337

