@<TRIPOS>MOLECULE
BindingDB_50332136
 46 49 0 0 0
SMALL
NO_CHARGES


@<TRIPOS>ATOM
1    N        14.8567   -2.8410   11.8231  N     
2    C        14.2617   -1.7929   11.2042  C     
3    C        14.9732   -0.9856   10.2822  C     
4    C        16.1430   -3.2337   11.6061  C     
5    C        16.9017   -2.5009   10.6610  C     
6    C        16.3083   -1.3904   10.0348  C     
7    S        17.5007   -0.7425    8.9797  S     
8    C        18.7669   -1.8601    9.3059  C     
9    C        18.2362   -2.7438   10.2686  C     
10   C        20.0408   -1.8701    8.6638  C     
11   C        20.9503   -2.9437    8.8523  C     
12   C        22.1866   -2.9808    8.1796  C     
13   C        22.5440   -1.9377    7.3044  C     
14   C        21.6661   -0.8583    7.1142  C     
15   C        20.4311   -0.8251    7.7865  C     
16   C        14.3860    0.1250    9.6753  C     
17   N        13.2242    0.6357   10.0371  N     
18   O        14.9441    0.7381    8.7792  O     
19   N        16.6816   -4.2802   12.2793  N     
20   C        16.0807   -4.9732   13.3846  C     
21   C        16.0774   -4.0711   14.6552  C     
22   N        15.5843   -4.7894   15.8559  N     
23   C        16.3057   -6.0533   16.1494  C     
24   C        16.3070   -7.0086   14.9319  C     
25   C        16.8555   -6.2896   13.6713  C     
26   H        13.2824   -1.6122   11.4200  H     
27   H        18.7720   -3.5214   10.6563  H     
28   H        20.7250   -3.7255    9.4781  H     
29   H        22.8197   -3.7739    8.3137  H     
30   H        23.4386   -1.9675    6.8122  H     
31   H        21.9186   -0.1029    6.4724  H     
32   H        19.8191   -0.0266    7.6104  H     
33   H        12.8961    1.4361    9.5974  H     
34   H        12.7108    0.2452   10.7598  H     
35   H        17.5803   -4.5449   12.0347  H     
36   H        15.0489   -5.2435   13.1364  H     
37   H        17.0896   -3.7078   14.8593  H     
38   H        15.4351   -3.2024   14.4953  H     
39   H        15.6819   -4.1625   16.6594  H     
40   H        14.5906   -4.9986   15.7355  H     
41   H        17.3354   -5.8130   16.4367  H     
42   H        15.8211   -6.5381   17.0005  H     
43   H        16.9258   -7.8797   15.1593  H     
44   H        15.2853   -7.3569   14.7447  H     
45   H        16.7641   -6.9676   12.8179  H     
46   H        17.9186   -6.0784   13.8228  H     
@<TRIPOS>BOND
     1    1    2 1
     2    1    4 2
     3    2    3 2
     4    3    6 1
     5    3   16 1
     6    4    5 1
     7    4   19 1
     8    5    6 2
     9    5    9 1
    10    6    7 1
    11    7    8 1
    12    8    9 2
    13    8   10 1
    14   10   11 2
    15   10   15 1
    16   11   12 1
    17   12   13 2
    18   13   14 1
    19   14   15 2
    20   16   17 am
    21   16   18 2
    22   20   19 1
    23   20   21 1
    24   20   25 1
    25   21   22 1
    26   22   23 1
    27   23   24 1
    28   24   25 1
    29    2   26 1
    30    9   27 1
    31   11   28 1
    32   12   29 1
    33   13   30 1
    34   14   31 1
    35   15   32 1
    36   17   33 1
    37   17   34 1
    38   19   35 1
    39   20   36 1
    40   21   37 1
    41   21   38 1
    42   22   39 1
    43   22   40 1
    44   23   41 1
    45   23   42 1
    46   24   43 1
    47   24   44 1
    48   25   45 1
    49   25   46 1
@<TRIPOS>PROPERTY_DATA
  Total_Score	| 7.0094
  Crash		| -0.2993
  Polar		| 3.9709
  FragIndex	| 1
  FragRMSD	| 0.262

