@<TRIPOS>MOLECULE
BindingDB_50332127
 49 52 0 0 0
SMALL
NO_CHARGES


@<TRIPOS>ATOM
1    N        15.1640   -2.7130   11.8384  N     
2    C        14.4853   -1.7459   11.1654  C     
3    C        15.1152   -0.9805   10.1577  C     
4    C        16.4562   -3.0549   11.6045  C     
5    C        17.1257   -2.3852   10.5590  C     
6    C        16.4498   -1.3580    9.8731  C     
7    S        17.5880   -0.7100    8.7567  S     
8    C        18.9271   -1.7300    9.1340  C     
9    C        18.4644   -2.5769   10.1542  C     
10   C        20.2093   -1.6965    8.5173  C     
11   C        21.1687   -2.7239    8.7387  C     
12   C        22.4201   -2.7052    8.1002  C     
13   C        22.7499   -1.6561    7.2205  C     
14   C        21.8204   -0.6153    7.0003  C     
15   C        20.5725   -0.6396    7.6413  C     
16   Cl       24.2497   -1.6411    6.4399  Cl    
17   C        14.4762    0.0995    9.5414  C     
18   N        13.2934    0.5568    9.8933  N     
19   O        15.0273    0.7534    8.6688  O     
20   N        17.1216   -3.9614   12.3652  N     
21   C        16.8160   -4.5577   13.6357  C     
22   C        15.4444   -4.2470   14.3282  C     
23   C        14.2549   -5.0860   13.7655  C     
24   C        14.5759   -6.6027   13.7133  C     
25   C        15.8976   -6.8789   12.9608  C     
26   C        17.0824   -6.0968   13.5864  C     
27   N        15.5466   -4.4760   15.7735  N     
28   H        13.5182   -1.5729   11.4464  H     
29   H        19.0560   -3.2827   10.5888  H     
30   H        20.9654   -3.5134    9.3583  H     
31   H        23.0878   -3.4622    8.2735  H     
32   H        22.0548    0.1572    6.3683  H     
33   H        19.9263    0.1325    7.4578  H     
34   H        12.9485    1.3674    9.4813  H     
35   H        12.7984    0.1474   10.6220  H     
36   H        18.0159   -4.1619   12.0471  H     
37   H        17.5862   -4.1337   14.2879  H     
38   H        15.2166   -3.1820   14.2074  H     
39   H        13.3677   -4.9257   14.3799  H     
40   H        14.0035   -4.7506   12.7686  H     
41   H        14.6442   -6.9991   14.7294  H     
42   H        13.7606   -7.1293   13.2095  H     
43   H        16.1143   -7.9454   13.0092  H     
44   H        15.7891   -6.6045   11.9076  H     
45   H        17.9934   -6.3096   13.0231  H     
46   H        17.2438   -6.4652   14.6061  H     
47   H        15.9614   -5.3920   15.9558  H     
48   H        14.6064   -4.4495   16.1682  H     
49   H        16.1222   -3.7471   16.1993  H     
@<TRIPOS>BOND
     1    1    2 1
     2    1    4 2
     3    2    3 2
     4    3    6 1
     5    3   17 1
     6    4    5 1
     7    4   20 1
     8    5    6 2
     9    5    9 1
    10    6    7 1
    11    7    8 1
    12    8    9 2
    13    8   10 1
    14   10   11 2
    15   10   15 1
    16   11   12 1
    17   12   13 2
    18   13   14 1
    19   13   16 1
    20   14   15 2
    21   17   18 am
    22   17   19 2
    23   21   20 1
    24   21   22 1
    25   21   26 1
    26   22   23 1
    27   22   27 1
    28   23   24 1
    29   24   25 1
    30   25   26 1
    31    2   28 1
    32    9   29 1
    33   11   30 1
    34   12   31 1
    35   14   32 1
    36   15   33 1
    37   18   34 1
    38   18   35 1
    39   20   36 1
    40   21   37 1
    41   22   38 1
    42   23   39 1
    43   23   40 1
    44   24   41 1
    45   24   42 1
    46   25   43 1
    47   25   44 1
    48   26   45 1
    49   26   46 1
    50   27   47 1
    51   27   48 1
    52   27   49 1
@<TRIPOS>PROPERTY_DATA
  Total_Score	| 7.3984
  Crash		| -1.3149
  Polar		| 4.5586
  FragIndex	| 1
  FragRMSD	| 0.850

