@<TRIPOS>MOLECULE
BindingDB_50332130
 46 49 0 0 0
SMALL
NO_CHARGES


@<TRIPOS>ATOM
1    N        14.8465   -2.8324   11.7752  N     
2    C        14.2871   -1.7506   11.1785  C     
3    C        15.0022   -0.9954   10.2151  C     
4    C        16.0965   -3.2948   11.5027  C     
5    C        16.8636   -2.6045   10.5394  C     
6    C        16.3094   -1.4658    9.9252  C     
7    S        17.5237   -0.8556    8.8673  S     
8    C        18.7417   -2.0327    9.1828  C     
9    C        18.1808   -2.9052   10.1310  C     
10   C        20.0166   -2.1079    8.5524  C     
11   C        20.5774   -0.9848    7.8896  C     
12   C        21.8012   -1.0888    7.1962  C     
13   C        22.4945   -2.3130    7.1724  C     
14   C        21.9627   -3.4313    7.8334  C     
15   C        20.7358   -3.3297    8.5119  C     
16   C        14.4497    0.1397    9.6160  C     
17   N        13.2937    0.6625    9.9702  N     
18   O        15.0335    0.7399    8.7268  O     
19   N        16.5994   -4.3692   12.1587  N     
20   C        16.0305   -4.9808   13.3245  C     
21   C        16.2484   -4.0595   14.5610  C     
22   N        15.8431   -4.7016   15.8294  N     
23   C        16.4828   -6.0111   16.0809  C     
24   C        16.2476   -6.9970   14.9084  C     
25   C        16.6807   -6.3739   13.5564  C     
26   Cl       22.4300    0.2368    6.3537  Cl    
27   H        13.3390   -1.4984   11.4610  H     
28   H        18.6954   -3.6988   10.5151  H     
29   H        20.0951   -0.0800    7.9010  H     
30   H        23.3806   -2.3991    6.6687  H     
31   H        22.4606   -4.3247    7.8076  H     
32   H        20.3647   -4.1725    8.9517  H     
33   H        12.9741    1.4660    9.5311  H     
34   H        12.7665    0.2676   10.6812  H     
35   H        17.4729   -4.6869   11.8804  H     
36   H        14.9550   -5.1309   13.1793  H     
37   H        17.3019   -3.7693   14.6337  H     
38   H        15.6596   -3.1465   14.4519  H     
39   H        16.1167   -4.0671   16.5822  H     
40   H        14.8234   -4.8099   15.8463  H     
41   H        17.5552   -5.8633   16.2358  H     
42   H        16.0656   -6.4302   16.9990  H     
43   H        16.8186   -7.9124   15.0856  H     
44   H        15.1861   -7.2578   14.8653  H     
45   H        16.3944   -7.0464   12.7418  H     
46   H        17.7714   -6.2807   13.5450  H     
@<TRIPOS>BOND
     1    1    2 1
     2    1    4 2
     3    2    3 2
     4    3    6 1
     5    3   16 1
     6    4    5 1
     7    4   19 1
     8    5    6 2
     9    5    9 1
    10    6    7 1
    11    7    8 1
    12    8    9 2
    13    8   10 1
    14   10   11 2
    15   10   15 1
    16   11   12 1
    17   12   13 2
    18   12   26 1
    19   13   14 1
    20   14   15 2
    21   16   17 am
    22   16   18 2
    23   20   19 1
    24   20   21 1
    25   20   25 1
    26   21   22 1
    27   22   23 1
    28   23   24 1
    29   24   25 1
    30    2   27 1
    31    9   28 1
    32   11   29 1
    33   13   30 1
    34   14   31 1
    35   15   32 1
    36   17   33 1
    37   17   34 1
    38   19   35 1
    39   20   36 1
    40   21   37 1
    41   21   38 1
    42   22   39 1
    43   22   40 1
    44   23   41 1
    45   23   42 1
    46   24   43 1
    47   24   44 1
    48   25   45 1
    49   25   46 1
@<TRIPOS>PROPERTY_DATA
  Total_Score	| 7.0392
  Crash		| -1.0447
  Polar		| 4.7619
  FragIndex	| 1
  FragRMSD	| 0.206

