@<TRIPOS>MOLECULE
BindingDB_50332175
 40 43 0 0 0
SMALL
NO_CHARGES


@<TRIPOS>ATOM
1    N        14.8333   -2.9110   11.7545  N     
2    C        14.2507   -1.8403   11.1564  C     
3    C        14.9576   -1.0430   10.2218  C     
4    C        16.1133   -3.3120   11.5245  C     
5    C        16.8882   -2.5582   10.6141  C     
6    C        16.2942   -1.4518    9.9822  C     
7    S        17.5069   -0.7943    8.9500  S     
8    C        18.7810   -1.8933    9.3138  C     
9    C        18.2367   -2.7890   10.2525  C     
10   C        20.0861   -1.8708    8.7386  C     
11   C        20.4763   -0.8291    7.8590  C     
12   C        21.7459   -0.8111    7.2506  C     
13   C        22.6675   -1.8394    7.5194  C     
14   C        22.3158   -2.8709    8.4074  C     
15   C        21.0429   -2.8821    9.0085  C     
16   Cl       24.1856   -1.8322    6.7666  Cl    
17   C        14.3880    0.0725    9.6005  C     
18   N        13.2166    0.5709    9.9327  N     
19   O        14.9858    0.6966    8.7332  O     
20   N        16.6251   -4.3984   12.1500  N     
21   C        15.9486   -5.1885   13.1319  C     
22   C        16.7144   -6.4634   13.5320  C     
23   N        16.9296   -5.9138   14.8785  N     
24   C        16.1770   -4.6901   14.5710  C     
25   H        13.2858   -1.6247   11.4072  H     
26   H        18.7751   -3.5547   10.6588  H     
27   H        19.8418   -0.0594    7.6388  H     
28   H        21.9942   -0.0466    6.6160  H     
29   H        22.9806   -3.6200    8.6140  H     
30   H        20.8262   -3.6559    9.6361  H     
31   H        12.9032    1.3864    9.5110  H     
32   H        12.6768    0.1592   10.6282  H     
33   H        17.5477   -4.6372   11.9592  H     
34   H        14.8945   -5.3940   12.9054  H     
35   H        16.0926   -7.3630   13.5395  H     
36   H        17.6549   -6.6044   12.9939  H     
37   H        16.4978   -6.4759   15.6154  H     
38   H        17.9148   -5.7130   15.0505  H     
39   H        16.8020   -3.7973   14.6443  H     
40   H        15.2635   -4.6179   15.1672  H     
@<TRIPOS>BOND
     1    1    2 1
     2    1    4 2
     3    2    3 2
     4    3    6 1
     5    3   17 1
     6    4    5 1
     7    4   20 1
     8    5    6 2
     9    5    9 1
    10    6    7 1
    11    7    8 1
    12    8    9 2
    13    8   10 1
    14   10   11 2
    15   10   15 1
    16   11   12 1
    17   12   13 2
    18   13   14 1
    19   13   16 1
    20   14   15 2
    21   17   18 am
    22   17   19 2
    23   20   21 1
    24   21   22 1
    25   21   24 1
    26   22   23 1
    27   23   24 1
    28    2   25 1
    29    9   26 1
    30   11   27 1
    31   12   28 1
    32   14   29 1
    33   15   30 1
    34   18   31 1
    35   18   32 1
    36   20   33 1
    37   21   34 1
    38   22   35 1
    39   22   36 1
    40   23   37 1
    41   23   38 1
    42   24   39 1
    43   24   40 1
@<TRIPOS>PROPERTY_DATA
  Total_Score	| 5.7621
  Crash		| -0.2563
  Polar		| 3.8991
  FragIndex	| 1
  FragRMSD	| 0.506

