@<TRIPOS>MOLECULE
BindingDB_29228
 37 38 0 0 0
SMALL
NO_CHARGES


@<TRIPOS>ATOM
1    C        -4.0117   -5.2997  -15.7197  C     
2    C        -2.8508   -5.3530  -16.5227  C     
3    C        -2.2835   -6.5998  -16.8878  C     
4    C        -2.9577   -7.8121  -16.5843  C     
5    C        -4.0924   -7.7413  -15.7485  C     
6    C        -4.6212   -6.5037  -15.2587  C     
7    C        -5.6919   -6.5988  -14.3024  C     
8    N        -4.6081   -8.9256  -15.2816  N     
9    C        -5.5507   -8.9688  -14.3531  C     
10   C        -6.1053   -7.8220  -13.8788  C     
11   O        -5.8894  -10.0580  -13.9128  O     
12   C        -6.3660   -5.4250  -13.7277  C     
13   O        -2.6227   -9.0785  -17.0397  O     
14   C        -1.3942   -9.4128  -17.7233  C     
15   O        -2.2150   -4.1635  -16.8115  O     
16   C        -1.4488   -4.1151  -18.0438  C     
17   O        -4.3994   -4.0699  -15.2540  O     
18   C        -5.0470   -3.2094  -16.1944  C     
19   O        -1.0593   -6.6057  -17.4933  O     
20   C         0.0453   -6.4522  -16.5760  C     
21   H        -4.2308   -9.7567  -15.6095  H     
22   H        -6.8363   -7.9120  -13.2029  H     
23   H        -5.6389   -4.7870  -13.2276  H     
24   H        -7.1201   -5.6648  -12.9748  H     
25   H        -6.8623   -4.8499  -14.5210  H     
26   H        -1.3078   -8.8349  -18.6508  H     
27   H        -1.4019  -10.4878  -17.9675  H     
28   H        -0.5242   -9.2586  -17.0691  H     
29   H        -0.5158   -4.6782  -17.9555  H     
30   H        -1.1996   -3.0755  -18.2851  H     
31   H        -2.0383   -4.5310  -18.8742  H     
32   H        -4.3304   -2.8233  -16.9179  H     
33   H        -5.4706   -2.3603  -15.6474  H     
34   H        -5.8572   -3.7079  -16.7352  H     
35   H        -0.0595   -5.5703  -15.9301  H     
36   H         0.9354   -6.3255  -17.1858  H     
37   H         0.1731   -7.3364  -15.9440  H     
@<TRIPOS>BOND
     1    1    2 1
     2    1    6 2
     3    1   17 1
     4    2    3 2
     5    2   15 1
     6    3    4 1
     7    3   19 1
     8    4    5 2
     9    4   13 1
    10    5    6 1
    11    5    8 1
    12    6    7 1
    13    7   10 2
    14    7   12 1
    15    8    9 1
    16    9   10 1
    17    9   11 2
    18   13   14 1
    19   15   16 1
    20   17   18 1
    21   19   20 1
    22    8   21 1
    23   10   22 1
    24   12   23 1
    25   12   24 1
    26   12   25 1
    27   14   26 1
    28   14   27 1
    29   14   28 1
    30   16   29 1
    31   16   30 1
    32   16   31 1
    33   18   32 1
    34   18   33 1
    35   18   34 1
    36   20   35 1
    37   20   36 1
    38   20   37 1
@<TRIPOS>PROPERTY_DATA
  Total_Score	| 3.3758
  Crash		| -2.3081
  Polar		| 1.1439
  FragIndex	| 1
  FragRMSD	| 0.813

