@<TRIPOS>MOLECULE
BindingDB_29223
 32 33 0 0 0
SMALL
NO_CHARGES


@<TRIPOS>ATOM
1    C        -4.0774   -5.2613  -16.5583  C     
2    C        -3.1084   -5.3010  -17.5765  C     
3    C        -2.4262   -6.4839  -17.8608  C     
4    C        -2.7368   -7.6665  -17.1730  C     
5    C        -3.8157   -7.6937  -16.2407  C     
6    C        -4.4595   -6.4590  -15.8795  C     
7    C        -5.4162   -6.5056  -14.8239  C     
8    N        -4.2255   -8.8715  -15.5969  N     
9    C        -4.8882   -8.7821  -14.4280  C     
10   C        -5.5140   -7.6284  -14.0765  C     
11   O        -5.1056   -9.7655  -13.7265  O     
12   C        -6.3246   -5.3996  -14.5047  C     
13   O        -1.9484   -8.7457  -17.4775  O     
14   C        -0.8056   -8.9013  -16.6180  C     
15   O        -4.6238   -4.0296  -16.2984  O     
16   C        -3.7911   -3.1708  -15.4926  C     
17   C        -4.1157  -10.1814  -16.2161  C     
18   H        -2.8566   -4.4498  -18.0826  H     
19   H        -1.6842   -6.4763  -18.5630  H     
20   H        -6.1236   -7.6487  -13.2874  H     
21   H        -5.7697   -4.5846  -14.0399  H     
22   H        -7.1243   -5.6756  -13.8130  H     
23   H        -6.8127   -5.0422  -15.4152  H     
24   H        -0.1984   -7.9955  -16.5820  H     
25   H        -0.1883   -9.7039  -17.0166  H     
26   H        -1.1130   -9.1720  -15.6069  H     
27   H        -4.3666   -2.2757  -15.2435  H     
28   H        -2.8958   -2.8609  -16.0359  H     
29   H        -3.5010   -3.6553  -14.5588  H     
30   H        -3.8743  -10.1497  -17.2759  H     
31   H        -5.0720  -10.7086  -16.1656  H     
32   H        -3.3580  -10.7743  -15.7013  H     
@<TRIPOS>BOND
     1    1    2 1
     2    1    6 2
     3    1   15 1
     4    2    3 2
     5    3    4 1
     6    4    5 2
     7    4   13 1
     8    5    6 1
     9    5    8 1
    10    6    7 1
    11    7   10 2
    12    7   12 1
    13    8    9 1
    14    8   17 1
    15    9   10 1
    16    9   11 2
    17   13   14 1
    18   15   16 1
    19    2   18 1
    20    3   19 1
    21   10   20 1
    22   12   21 1
    23   12   22 1
    24   12   23 1
    25   14   24 1
    26   14   25 1
    27   14   26 1
    28   16   27 1
    29   16   28 1
    30   16   29 1
    31   17   30 1
    32   17   31 1
    33   17   32 1
@<TRIPOS>PROPERTY_DATA
  Total_Score	| 4.3948
  Crash		| -0.8904
  Polar		| 1.8301
  FragIndex	| 1
  FragRMSD	| 0.360

