@<TRIPOS>MOLECULE
BindingDB_29225
 36 37 0 0 0
SMALL
NO_CHARGES


@<TRIPOS>ATOM
1    C        -4.1737   -5.3876  -16.6549  C     
2    C        -2.9351   -5.3884  -17.3160  C     
3    C        -2.1465   -6.5539  -17.2998  C     
4    C        -2.6641   -7.7694  -16.7943  C     
5    C        -3.9228   -7.7634  -16.1215  C     
6    C        -4.6362   -6.5346  -15.9618  C     
7    C        -5.7328   -6.5040  -15.0612  C     
8    N        -4.4618   -8.9068  -15.5202  N     
9    C        -5.3506   -8.7825  -14.5202  C     
10   C        -5.9984   -7.6011  -14.3114  C     
11   O        -5.7131   -9.7487  -13.8561  O     
12   C        -6.5509   -5.3015  -14.8788  C     
13   O        -1.8367   -8.8761  -16.7384  O     
14   C        -1.3608   -9.4807  -17.9645  C     
15   O        -0.8418   -6.4462  -17.6938  O     
16   O        -2.5161   -4.2645  -17.9816  O     
17   C        -1.3390   -3.6294  -17.4452  C     
18   C         0.0493   -6.2346  -16.5768  C     
19   C        -4.2472  -10.2065  -16.1138  C     
20   H        -4.6915   -4.5072  -16.6255  H     
21   H        -6.7259   -7.5733  -13.6303  H     
22   H        -5.9332   -4.4897  -14.4942  H     
23   H        -7.3819   -5.4389  -14.1794  H     
24   H        -6.9844   -5.0015  -15.8364  H     
25   H        -1.9546  -10.3506  -18.2841  H     
26   H        -0.3568   -9.8507  -17.7561  H     
27   H        -1.2903   -8.7703  -18.7916  H     
28   H        -1.2000   -2.6755  -17.9557  H     
29   H        -0.4504   -4.2287  -17.6318  H     
30   H        -1.4276   -3.4318  -16.3733  H     
31   H        -0.3188   -5.4944  -15.8597  H     
32   H         0.9922   -5.8675  -16.9692  H     
33   H         0.2349   -7.1716  -16.0467  H     
34   H        -3.9782  -10.0824  -17.1558  H     
35   H        -5.1578  -10.8121  -16.1254  H     
36   H        -3.4493  -10.7414  -15.5952  H     
@<TRIPOS>BOND
     1    1    2 1
     2    1    6 2
     3    2    3 2
     4    2   16 1
     5    3    4 1
     6    3   15 1
     7    4    5 2
     8    4   13 1
     9    5    6 1
    10    5    8 1
    11    6    7 1
    12    7   10 2
    13    7   12 1
    14    8    9 1
    15    8   19 1
    16    9   10 1
    17    9   11 2
    18   13   14 1
    19   15   18 1
    20   16   17 1
    21    1   20 1
    22   10   21 1
    23   12   22 1
    24   12   23 1
    25   12   24 1
    26   14   25 1
    27   14   26 1
    28   14   27 1
    29   17   28 1
    30   17   29 1
    31   17   30 1
    32   18   31 1
    33   18   32 1
    34   18   33 1
    35   19   34 1
    36   19   35 1
    37   19   36 1
@<TRIPOS>PROPERTY_DATA
  Total_Score	| 4.2440
  Crash		| -2.4350
  Polar		| 1.3258
  FragIndex	| 1
  FragRMSD	| 0.507

