@<TRIPOS>MOLECULE
BindingDB_29218
 29 30 0 0 0
SMALL
NO_CHARGES


@<TRIPOS>ATOM
1    C        -4.5381   -5.4769  -16.5027  C     
2    C        -3.3524   -5.4383  -17.2588  C     
3    C        -2.4576   -6.5346  -17.2519  C     
4    C        -2.7747   -7.7161  -16.5493  C     
5    C        -3.9425   -7.6987  -15.7665  C     
6    C        -4.8488   -6.6053  -15.7040  C     
7    C        -5.9538   -6.7238  -14.8126  C     
8    N        -4.1600   -8.7635  -14.9862  N     
9    C        -5.2038   -8.8919  -14.1930  C     
10   C        -6.1058   -7.8657  -14.0902  C     
11   O        -5.2965   -9.9124  -13.5312  O     
12   C        -6.9016   -5.6221  -14.6376  C     
13   O        -1.8721   -8.7707  -16.4786  O     
14   C        -1.2663   -9.3007  -17.6868  C     
15   O        -1.2621   -6.4093  -17.8992  O     
16   C        -0.3135   -5.5533  -17.2250  C     
17   H        -5.1509   -4.6559  -16.5125  H     
18   H        -3.1247   -4.5979  -17.7957  H     
19   H        -3.4876   -9.4381  -15.0616  H     
20   H        -6.8626   -7.9655  -13.4504  H     
21   H        -6.3693   -4.7324  -14.2919  H     
22   H        -7.6857   -5.8353  -13.9057  H     
23   H        -7.3903   -5.3984  -15.5884  H     
24   H        -1.6114  -10.3311  -17.9158  H     
25   H        -0.1898   -9.3378  -17.5334  H     
26   H        -1.4466   -8.6727  -18.5623  H     
27   H        -0.6972   -4.9746  -16.3722  H     
28   H         0.0642   -4.8297  -17.9467  H     
29   H         0.5206   -6.1788  -16.8887  H     
@<TRIPOS>BOND
     1    1    2 1
     2    1    6 2
     3    2    3 2
     4    3    4 1
     5    3   15 1
     6    4    5 2
     7    4   13 1
     8    5    6 1
     9    5    8 1
    10    6    7 1
    11    7   10 2
    12    7   12 1
    13    8    9 1
    14    9   10 1
    15    9   11 2
    16   13   14 1
    17   15   16 1
    18    1   17 1
    19    2   18 1
    20    8   19 1
    21   10   20 1
    22   12   21 1
    23   12   22 1
    24   12   23 1
    25   14   24 1
    26   14   25 1
    27   14   26 1
    28   16   27 1
    29   16   28 1
    30   16   29 1
@<TRIPOS>PROPERTY_DATA
  Total_Score	| 4.6567
  Crash		| -0.6237
  Polar		| 1.8200
  FragIndex	| 1
  FragRMSD	| 0.521

