@<TRIPOS>MOLECULE
BindingDB_29226
 33 34 0 0 0
SMALL
NO_CHARGES


@<TRIPOS>ATOM
1    C        -3.9498   -5.4730  -16.5346  C     
2    C        -2.9333   -5.6448  -17.5091  C     
3    C        -2.3943   -6.9206  -17.7496  C     
4    C        -2.7640   -8.0165  -16.9589  C     
5    C        -3.7431   -7.8405  -15.9605  C     
6    C        -4.3980   -6.5846  -15.7528  C     
7    C        -5.4584   -6.5758  -14.7880  C     
8    N        -4.0736   -8.9112  -15.1780  N     
9    C        -4.9937   -8.8317  -14.2299  C     
10   C        -5.7038   -7.6876  -14.0496  C     
11   O        -5.2044   -9.8153  -13.5368  O     
12   C        -6.3303   -5.4203  -14.5699  C     
13   O        -2.2373   -9.2513  -17.2374  O     
14   C        -0.8040   -9.3127  -17.1386  C     
15   O        -2.5255   -4.5833  -18.2786  O     
16   C        -1.2453   -4.0256  -17.9173  C     
17   O        -4.5465   -4.2360  -16.4950  O     
18   C        -3.8477   -3.1789  -15.8101  C     
19   H        -1.7180   -7.0531  -18.5031  H     
20   H        -3.5994   -9.7491  -15.3010  H     
21   H        -6.4255   -7.6940  -13.3630  H     
22   H        -5.7585   -4.6216  -14.1043  H     
23   H        -7.1765   -5.6235  -13.9107  H     
24   H        -6.7491   -5.0789  -15.5183  H     
25   H        -0.3173   -8.5947  -17.8037  H     
26   H        -0.4875  -10.3118  -17.4386  H     
27   H        -0.4774   -9.1382  -16.1108  H     
28   H        -1.1924   -3.7610  -16.8608  H     
29   H        -1.0846   -3.1196  -18.5000  H     
30   H        -0.4383   -4.7208  -18.1430  H     
31   H        -4.1740   -3.1087  -14.7766  H     
32   H        -4.0993   -2.2431  -16.3063  H     
33   H        -2.7639   -3.2851  -15.8181  H     
@<TRIPOS>BOND
     1    1    2 1
     2    1    6 2
     3    1   17 1
     4    2    3 2
     5    2   15 1
     6    3    4 1
     7    4    5 2
     8    4   13 1
     9    5    6 1
    10    5    8 1
    11    6    7 1
    12    7   10 2
    13    7   12 1
    14    8    9 1
    15    9   10 1
    16    9   11 2
    17   13   14 1
    18   15   16 1
    19   17   18 1
    20    3   19 1
    21    8   20 1
    22   10   21 1
    23   12   22 1
    24   12   23 1
    25   12   24 1
    26   14   25 1
    27   14   26 1
    28   14   27 1
    29   16   28 1
    30   16   29 1
    31   16   30 1
    32   18   31 1
    33   18   32 1
    34   18   33 1
@<TRIPOS>PROPERTY_DATA
  Total_Score	| 5.3829
  Crash		| -0.8395
  Polar		| 1.9054
  FragIndex	| 1
  FragRMSD	| 0.131

