@<TRIPOS>MOLECULE
BindingDB_29219
 32 33 0 0 0
SMALL
NO_CHARGES


@<TRIPOS>ATOM
1    C        -4.6324   -5.3571  -16.5881  C     
2    C        -3.4989   -5.2349  -17.4017  C     
3    C        -2.5080   -6.2284  -17.3867  C     
4    C        -2.7409   -7.4486  -16.7012  C     
5    C        -3.9731   -7.6400  -16.0124  C     
6    C        -4.8506   -6.5284  -15.8240  C     
7    C        -5.8473   -6.6232  -14.8186  C     
8    N        -4.3234   -8.8526  -15.4095  N     
9    C        -5.1554   -8.8440  -14.3521  C     
10   C        -5.9088   -7.7460  -14.0647  C     
11   O        -5.3743   -9.8632  -13.7080  O     
12   C        -6.7562   -5.5127  -14.5254  C     
13   O        -1.7726   -8.4070  -16.4745  O     
14   C        -0.6678   -8.6324  -17.3571  C     
15   O        -1.3213   -5.9659  -18.0188  O     
16   C        -0.5476   -4.9398  -17.3594  C     
17   C        -4.0122  -10.1232  -16.0444  C     
18   H        -5.2625   -4.5549  -16.5294  H     
19   H        -3.3397   -4.3686  -17.9158  H     
20   H        -6.5595   -7.8014  -13.3127  H     
21   H        -6.1771   -4.6420  -14.2131  H     
22   H        -7.4782   -5.7320  -13.7349  H     
23   H        -7.3298   -5.2535  -15.4176  H     
24   H        -0.9929   -8.7085  -18.4007  H     
25   H        -0.1809   -9.5639  -17.0728  H     
26   H         0.0517   -7.8185  -17.2387  H     
27   H        -1.0026   -3.9556  -17.4960  H     
28   H         0.4419   -4.9195  -17.8100  H     
29   H        -0.4216   -5.1415  -16.2909  H     
30   H        -3.5702  -10.0159  -17.0355  H     
31   H        -4.9267  -10.7009  -16.2021  H     
32   H        -3.3258  -10.6952  -15.4155  H     
@<TRIPOS>BOND
     1    1    2 1
     2    1    6 2
     3    2    3 2
     4    3    4 1
     5    3   15 1
     6    4    5 2
     7    4   13 1
     8    5    6 1
     9    5    8 1
    10    6    7 1
    11    7   10 2
    12    7   12 1
    13    8    9 1
    14    8   17 1
    15    9   10 1
    16    9   11 2
    17   13   14 1
    18   15   16 1
    19    1   18 1
    20    2   19 1
    21   10   20 1
    22   12   21 1
    23   12   22 1
    24   12   23 1
    25   14   24 1
    26   14   25 1
    27   14   26 1
    28   16   27 1
    29   16   28 1
    30   16   29 1
    31   17   30 1
    32   17   31 1
    33   17   32 1
@<TRIPOS>PROPERTY_DATA
  Total_Score	| 4.8217
  Crash		| -1.3946
  Polar		| 1.7756
  FragIndex	| 1
  FragRMSD	| 0.589

