@<TRIPOS>MOLECULE
BindingDB_29224
 33 34 0 0 0
SMALL
NO_CHARGES


@<TRIPOS>ATOM
1    C        -4.3477   -5.5196  -16.5230  C     
2    C        -3.0991   -5.4197  -17.1720  C     
3    C        -2.2024   -6.5088  -17.1054  C     
4    C        -2.5936   -7.7279  -16.5107  C     
5    C        -3.8272   -7.7898  -15.8294  C     
6    C        -4.7192   -6.6791  -15.7968  C     
7    C        -5.8811   -6.7959  -14.9865  C     
8    N        -4.1148   -8.8934  -15.0820  N     
9    C        -5.1796   -8.9445  -14.2971  C     
10   C        -6.0756   -7.9157  -14.2570  C     
11   O        -5.3170   -9.9205  -13.5743  O     
12   C        -6.8531   -5.7102  -14.9168  C     
13   O        -1.7188   -8.7854  -16.4949  O     
14   C        -1.7002   -9.5124  -17.7332  C     
15   O        -0.9235   -6.4091  -17.5779  O     
16   O        -2.7674   -4.1697  -17.6702  O     
17   C        -1.3841   -3.7689  -17.6410  C     
18   C         0.0605   -6.2886  -16.5275  C     
19   H        -4.9545   -4.6941  -16.5339  H     
20   H        -3.4925   -9.6387  -15.0834  H     
21   H        -6.8802   -8.0159  -13.6777  H     
22   H        -6.3558   -4.8089  -14.5651  H     
23   H        -7.6869   -5.9021  -14.2418  H     
24   H        -7.2705   -5.5235  -15.9077  H     
25   H        -2.6602   -9.9991  -17.9051  H     
26   H        -0.9294  -10.2700  -17.6696  H     
27   H        -1.4656   -8.8742  -18.5897  H     
28   H        -1.0504   -3.5602  -16.6217  H     
29   H        -1.2954   -2.8257  -18.1898  H     
30   H        -0.7336   -4.5361  -18.0784  H     
31   H        -0.1062   -5.4002  -15.9057  H     
32   H         1.0272   -6.1793  -17.0048  H     
33   H         0.0568   -7.1801  -15.8709  H     
@<TRIPOS>BOND
     1    1    2 1
     2    1    6 2
     3    2    3 2
     4    2   16 1
     5    3    4 1
     6    3   15 1
     7    4    5 2
     8    4   13 1
     9    5    6 1
    10    5    8 1
    11    6    7 1
    12    7   10 2
    13    7   12 1
    14    8    9 1
    15    9   10 1
    16    9   11 2
    17   13   14 1
    18   15   18 1
    19   16   17 1
    20    1   19 1
    21    8   20 1
    22   10   21 1
    23   12   22 1
    24   12   23 1
    25   12   24 1
    26   14   25 1
    27   14   26 1
    28   14   27 1
    29   17   28 1
    30   17   29 1
    31   17   30 1
    32   18   31 1
    33   18   32 1
    34   18   33 1
@<TRIPOS>PROPERTY_DATA
  Total_Score	| 3.1931
  Crash		| -1.9571
  Polar		| 1.8041
  FragIndex	| 1
  FragRMSD	| 0.574

