@<TRIPOS>MOLECULE
BindingDB_29212
 24 26 0 0 0
SMALL
NO_CHARGES


@<TRIPOS>ATOM
1    C        -4.2219   -5.5219  -16.4361  C     
2    C        -3.2303   -5.6435  -17.4293  C     
3    C        -2.5879   -6.8780  -17.6025  C     
4    C        -2.9142   -7.9704  -16.8190  C     
5    C        -3.9044   -7.8663  -15.8270  C     
6    C        -4.5831   -6.6282  -15.6146  C     
7    C        -5.5718   -6.5873  -14.5937  C     
8    N        -4.2263   -8.9464  -15.0550  N     
9    C        -5.1472   -8.8692  -14.1049  C     
10   C        -5.8277   -7.7111  -13.8720  C     
11   O        -5.3746   -9.8774  -13.4529  O     
12   O        -1.6424   -7.1824  -18.4980  O     
13   C        -1.2298   -8.4896  -18.0537  C     
14   O        -2.1919   -9.0579  -17.1496  O     
15   C        -6.3270   -5.3673  -14.3116  C     
16   H        -4.6796   -4.6143  -16.3255  H     
17   H        -2.9829   -4.8446  -18.0179  H     
18   H        -3.7614   -9.7864  -15.2069  H     
19   H        -6.5117   -7.7001  -13.1518  H     
20   H        -1.1124   -9.1456  -18.9177  H     
21   H        -0.2608   -8.4027  -17.5500  H     
22   H        -5.6416   -4.5774  -14.0013  H     
23   H        -7.0667   -5.4877  -13.5161  H     
24   H        -6.8601   -5.0459  -15.2086  H     
@<TRIPOS>BOND
     1    1    2 1
     2    1    6 2
     3    2    3 2
     4    3    4 1
     5    3   12 1
     6    4    5 2
     7    4   14 1
     8    5    6 1
     9    5    8 1
    10    6    7 1
    11    7   10 2
    12    7   15 1
    13    8    9 1
    14    9   10 1
    15    9   11 2
    16   12   13 1
    17   13   14 1
    18    1   16 1
    19    2   17 1
    20    8   18 1
    21   10   19 1
    22   13   20 1
    23   13   21 1
    24   15   22 1
    25   15   23 1
    26   15   24 1
@<TRIPOS>PROPERTY_DATA
  Total_Score	| 3.5263
  Crash		| -0.9699
  Polar		| 1.7093
  FragIndex	| 1
  FragRMSD	| 0.389

