@<TRIPOS>MOLECULE
BindingDB_29229
 40 41 0 0 0
SMALL
NO_CHARGES


@<TRIPOS>ATOM
1    C        -4.2876   -5.4332  -16.7048  C     
2    C        -3.0846   -5.4541  -17.4530  C     
3    C        -2.2263   -6.5646  -17.3689  C     
4    C        -2.6859   -7.7685  -16.8082  C     
5    C        -3.9361   -7.7815  -16.1266  C     
6    C        -4.7013   -6.5845  -15.9685  C     
7    C        -5.7568   -6.6271  -15.0124  C     
8    N        -4.3528   -8.9165  -15.4566  N     
9    C        -5.0575   -8.7862  -14.3282  C     
10   C        -5.8023   -7.6587  -14.1352  C     
11   O        -5.2073   -9.7389  -13.5673  O     
12   C        -6.8081   -5.6120  -14.9259  C     
13   O        -1.7843   -8.8031  -16.6638  O     
14   C        -1.1978   -9.3864  -17.8563  C     
15   O        -2.6794   -4.3212  -18.1083  O     
16   C        -1.4185   -3.8054  -17.6421  C     
17   O        -5.0161   -4.2693  -16.6958  O     
18   C        -4.5096   -3.2236  -15.8408  C     
19   O        -0.9066   -6.4524  -17.7220  O     
20   C        -0.0683   -6.4610  -16.5493  C     
21   C        -4.2820  -10.1939  -16.1178  C     
22   H        -6.4703   -7.6556  -13.3941  H     
23   H        -6.4142   -4.6875  -14.5038  H     
24   H        -7.6564   -5.9107  -14.2960  H     
25   H        -7.2216   -5.4182  -15.9209  H     
26   H        -1.6269  -10.3937  -18.0065  H     
27   H        -0.1194   -9.4999  -17.6991  H     
28   H        -1.3462   -8.7737  -18.7544  H     
29   H        -1.5378   -3.3443  -16.6579  H     
30   H        -1.0761   -3.0359  -18.3375  H     
31   H        -0.6421   -4.5794  -17.5872  H     
32   H        -4.2988   -3.5951  -14.8379  H     
33   H        -5.2676   -2.4440  -15.7688  H     
34   H        -3.6081   -2.7792  -16.2549  H     
35   H        -0.2380   -5.5830  -15.9147  H     
36   H         0.9627   -6.4469  -16.8766  H     
37   H        -0.1907   -7.3702  -15.9462  H     
38   H        -4.0419  -10.0670  -17.1871  H     
39   H        -5.2370  -10.7290  -16.0610  H     
40   H        -3.5023  -10.7984  -15.6599  H     
@<TRIPOS>BOND
     1    1    2 1
     2    1    6 2
     3    1   17 1
     4    2    3 2
     5    2   15 1
     6    3    4 1
     7    3   19 1
     8    4    5 2
     9    4   13 1
    10    5    6 1
    11    5    8 1
    12    6    7 1
    13    7   10 2
    14    7   12 1
    15    8    9 1
    16    8   21 1
    17    9   10 1
    18    9   11 2
    19   13   14 1
    20   15   16 1
    21   17   18 1
    22   19   20 1
    23   10   22 1
    24   12   23 1
    25   12   24 1
    26   12   25 1
    27   14   26 1
    28   14   27 1
    29   14   28 1
    30   16   29 1
    31   16   30 1
    32   16   31 1
    33   18   32 1
    34   18   33 1
    35   18   34 1
    36   20   35 1
    37   20   36 1
    38   20   37 1
    39   21   38 1
    40   21   39 1
    41   21   40 1
@<TRIPOS>PROPERTY_DATA
  Total_Score	| 3.7473
  Crash		| -3.6005
  Polar		| 1.9299
  FragIndex	| 1
  FragRMSD	| 0.486

