@<TRIPOS>MOLECULE
BindingDB_29220
 29 30 0 0 0
SMALL
NO_CHARGES


@<TRIPOS>ATOM
1    C        -3.9575   -5.5058  -16.5096  C     
2    C        -2.9630   -5.6463  -17.4984  C     
3    C        -2.4073   -6.9175  -17.7576  C     
4    C        -2.7686   -8.0294  -16.9749  C     
5    C        -3.7423   -7.8714  -15.9648  C     
6    C        -4.3692   -6.6132  -15.7207  C     
7    C        -5.3515   -6.5488  -14.6973  C     
8    N        -4.0935   -8.9429  -15.1872  N     
9    C        -5.0014   -8.8432  -14.2197  C     
10   C        -5.6424   -7.6665  -13.9809  C     
11   O        -5.2402   -9.8366  -13.5462  O     
12   C        -6.0520   -5.3046  -14.3881  C     
13   O        -2.2534   -9.2660  -17.2739  O     
14   C        -0.8184   -9.3531  -17.1870  C     
15   O        -2.5612   -4.5640  -18.2310  O     
16   C        -1.2344   -4.1062  -17.9042  C     
17   H        -4.3715   -4.5807  -16.3709  H     
18   H        -1.7235   -7.0274  -18.5102  H     
19   H        -3.6483   -9.7942  -15.3342  H     
20   H        -6.3278   -7.6426  -13.2665  H     
21   H        -5.3276   -4.5410  -14.0873  H     
22   H        -6.7789   -5.3968  -13.5741  H     
23   H        -6.5932   -4.9525  -15.2698  H     
24   H        -0.3437   -8.6775  -17.9113  H     
25   H        -0.5393  -10.3742  -17.4280  H     
26   H        -0.4785   -9.1159  -16.1774  H     
27   H        -1.1934   -3.7243  -16.8787  H     
28   H        -0.9744   -3.2916  -18.5813  H     
29   H        -0.4960   -4.9011  -18.0284  H     
@<TRIPOS>BOND
     1    1    2 1
     2    1    6 2
     3    2    3 2
     4    2   15 1
     5    3    4 1
     6    4    5 2
     7    4   13 1
     8    5    6 1
     9    5    8 1
    10    6    7 1
    11    7   10 2
    12    7   12 1
    13    8    9 1
    14    9   10 1
    15    9   11 2
    16   13   14 1
    17   15   16 1
    18    1   17 1
    19    3   18 1
    20    8   19 1
    21   10   20 1
    22   12   21 1
    23   12   22 1
    24   12   23 1
    25   14   24 1
    26   14   25 1
    27   14   26 1
    28   16   27 1
    29   16   28 1
    30   16   29 1
@<TRIPOS>PROPERTY_DATA
  Total_Score	| 5.1314
  Crash		| -0.6263
  Polar		| 1.8272
  FragIndex	| 1
  FragRMSD	| 0.117

