@<TRIPOS>MOLECULE
BindingDB_29217
 28 29 0 0 0
SMALL
NO_CHARGES


@<TRIPOS>ATOM
1    C        -4.2326   -5.2721  -16.5107  C     
2    C        -3.2701   -5.1909  -17.5212  C     
3    C        -2.5040   -6.3150  -17.8289  C     
4    C        -2.6699   -7.5210  -17.1215  C     
5    C        -3.6699   -7.6410  -16.0989  C     
6    C        -4.4509   -6.4723  -15.7913  C     
7    C        -5.4189   -6.5401  -14.7571  C     
8    N        -3.9435   -8.8253  -15.3665  N     
9    C        -4.8783   -8.8137  -14.3890  C     
10   C        -5.6023   -7.7036  -14.1025  C     
11   O        -5.1265   -9.7956  -13.6906  O     
12   C        -6.2199   -5.3811  -14.3490  C     
13   C        -3.2418  -10.0678  -15.6477  C     
14   O        -1.8358   -8.5422  -17.5105  O     
15   C        -0.5281   -8.5211  -16.9110  C     
16   H        -4.7723   -4.4245  -16.3237  H     
17   H        -3.1265   -4.3181  -18.0314  H     
18   H        -1.8147   -6.2472  -18.5801  H     
19   H        -6.2744   -7.7559  -13.3722  H     
20   H        -5.5571   -4.5808  -14.0154  H     
21   H        -6.9105   -5.5866  -13.5256  H     
22   H        -6.8204   -5.0241  -15.1884  H     
23   H        -3.3932  -10.3666  -16.6843  H     
24   H        -3.5549  -10.9262  -15.0563  H     
25   H        -2.1710   -9.9348  -15.4548  H     
26   H        -0.0009   -7.5827  -17.1079  H     
27   H         0.0591   -9.3283  -17.3446  H     
28   H        -0.5885   -8.6884  -15.8313  H     
@<TRIPOS>BOND
     1    1    2 1
     2    1    6 2
     3    2    3 2
     4    3    4 1
     5    4    5 2
     6    4   14 1
     7    5    6 1
     8    5    8 1
     9    6    7 1
    10    7   10 2
    11    7   12 1
    12    8    9 1
    13    8   13 1
    14    9   10 1
    15    9   11 2
    16   14   15 1
    17    1   16 1
    18    2   17 1
    19    3   18 1
    20   10   19 1
    21   12   20 1
    22   12   21 1
    23   12   22 1
    24   13   23 1
    25   13   24 1
    26   13   25 1
    27   15   26 1
    28   15   27 1
    29   15   28 1
@<TRIPOS>PROPERTY_DATA
  Total_Score	| 3.0437
  Crash		| -1.8323
  Polar		| 1.9395
  FragIndex	| 1
  FragRMSD	| 0.459

