@<TRIPOS>MOLECULE
BindingDB_29216
 25 26 0 0 0
SMALL
NO_CHARGES


@<TRIPOS>ATOM
1    C        -4.2055   -5.5866  -16.6796  C     
2    C        -3.1128   -5.6847  -17.5587  C     
3    C        -2.3018   -6.8322  -17.5564  C     
4    C        -2.5942   -7.9152  -16.7057  C     
5    C        -3.7151   -7.8183  -15.8444  C     
6    C        -4.5217   -6.6427  -15.7883  C     
7    C        -5.5627   -6.5977  -14.8167  C     
8    N        -4.0360   -8.8604  -15.0295  N     
9    C        -5.0146   -8.8007  -14.1348  C     
10   C        -5.7643   -7.6719  -14.0106  C     
11   O        -5.2327   -9.7963  -13.4612  O     
12   C        -6.3967   -5.4090  -14.6482  C     
13   O        -1.6513   -8.9085  -16.5587  O     
14   C        -1.3025   -9.7312  -17.6865  C     
15   H        -4.7586   -4.7291  -16.6959  H     
16   H        -2.8909   -4.9066  -18.1837  H     
17   H        -1.4763   -6.8646  -18.1566  H     
18   H        -3.5660   -9.6889  -15.1370  H     
19   H        -6.4743   -7.6530  -13.3112  H     
20   H        -5.7674   -4.5506  -14.4045  H     
21   H        -7.1380   -5.5066  -13.8516  H     
22   H        -6.9376   -5.2036  -15.5739  H     
23   H        -1.8589  -10.6671  -17.6551  H     
24   H        -0.2451   -9.9866  -17.6131  H     
25   H        -1.4652   -9.2346  -18.6445  H     
@<TRIPOS>BOND
     1    1    2 1
     2    1    6 2
     3    2    3 2
     4    3    4 1
     5    4    5 2
     6    4   13 1
     7    5    6 1
     8    5    8 1
     9    6    7 1
    10    7   10 2
    11    7   12 1
    12    8    9 1
    13    9   10 1
    14    9   11 2
    15   13   14 1
    16    1   15 1
    17    2   16 1
    18    3   17 1
    19    8   18 1
    20   10   19 1
    21   12   20 1
    22   12   21 1
    23   12   22 1
    24   14   23 1
    25   14   24 1
    26   14   25 1
@<TRIPOS>PROPERTY_DATA
  Total_Score	| 4.3306
  Crash		| -0.4012
  Polar		| 1.8457
  FragIndex	| 1
  FragRMSD	| 0.385

