@<TRIPOS>MOLECULE
BindingDB_29227
 36 37 0 0 0
SMALL
NO_CHARGES


@<TRIPOS>ATOM
1    C        -3.8357   -5.3274  -16.5144  C     
2    C        -2.8186   -5.3976  -17.4915  C     
3    C        -2.2914   -6.6441  -17.8534  C     
4    C        -2.7060   -7.8195  -17.2112  C     
5    C        -3.7965   -7.7885  -16.2948  C     
6    C        -4.3839   -6.5219  -15.9550  C     
7    C        -5.4362   -6.5338  -15.0006  C     
8    N        -4.2668   -8.9334  -15.6329  N     
9    C        -4.9276   -8.7837  -14.4670  C     
10   C        -5.5608   -7.6087  -14.1875  C     
11   O        -5.1667   -9.7358  -13.7305  O     
12   C        -6.4971   -5.5239  -14.9237  C     
13   O        -2.0058   -8.9507  -17.5388  O     
14   C        -0.7818   -9.1138  -16.8044  C     
15   O        -2.3902   -4.2724  -18.1489  O     
16   C        -1.0468   -3.8426  -17.8545  C     
17   O        -4.2422   -4.0694  -16.1483  O     
18   C        -3.5943   -3.5586  -14.9672  C     
19   C        -4.2016  -10.2592  -16.2192  C     
20   H        -1.5597   -6.6915  -18.5643  H     
21   H        -6.2510   -7.6034  -13.4658  H     
22   H        -6.4202   -4.9635  -13.9925  H     
23   H        -7.4743   -6.0072  -14.9505  H     
24   H        -6.4946   -4.8279  -15.7594  H     
25   H        -0.1095   -8.2639  -16.9456  H     
26   H        -0.2810  -10.0056  -17.1803  H     
27   H        -0.9782   -9.2507  -15.7385  H     
28   H        -0.9708   -3.4619  -16.8364  H     
29   H        -0.7966   -3.0279  -18.5357  H     
30   H        -0.3124   -4.6398  -17.9915  H     
31   H        -3.8019   -4.1750  -14.0899  H     
32   H        -3.9814   -2.5568  -14.7749  H     
33   H        -2.5165   -3.4856  -15.0984  H     
34   H        -3.9934  -10.2553  -17.2864  H     
35   H        -5.1670  -10.7630  -16.1296  H     
36   H        -3.4396  -10.8538  -15.7129  H     
@<TRIPOS>BOND
     1    1    2 1
     2    1    6 2
     3    1   17 1
     4    2    3 2
     5    2   15 1
     6    3    4 1
     7    4    5 2
     8    4   13 1
     9    5    6 1
    10    5    8 1
    11    6    7 1
    12    7   10 2
    13    7   12 1
    14    8    9 1
    15    8   19 1
    16    9   10 1
    17    9   11 2
    18   13   14 1
    19   15   16 1
    20   17   18 1
    21    3   20 1
    22   10   21 1
    23   12   22 1
    24   12   23 1
    25   12   24 1
    26   14   25 1
    27   14   26 1
    28   14   27 1
    29   16   28 1
    30   16   29 1
    31   16   30 1
    32   18   31 1
    33   18   32 1
    34   18   33 1
    35   19   34 1
    36   19   35 1
    37   19   36 1
@<TRIPOS>PROPERTY_DATA
  Total_Score	| 5.0083
  Crash		| -1.3646
  Polar		| 1.8772
  FragIndex	| 1
  FragRMSD	| 0.348

