@<TRIPOS>MOLECULE
BindingDB_29222
 29 30 0 0 0
SMALL
NO_CHARGES


@<TRIPOS>ATOM
1    C        -4.0198   -5.4316  -16.5303  C     
2    C        -3.0673   -5.5985  -17.5587  C     
3    C        -2.4324   -6.8290  -17.7674  C     
4    C        -2.7521   -7.9351  -16.9648  C     
5    C        -3.7163   -7.7877  -15.9432  C     
6    C        -4.3788   -6.5390  -15.7019  C     
7    C        -5.3618   -6.5327  -14.6660  C     
8    N        -4.0336   -8.8730  -15.1716  N     
9    C        -4.9292   -8.8080  -14.1994  C     
10   C        -5.5984   -7.6559  -13.9473  C     
11   O        -5.1317   -9.8041  -13.5246  O     
12   C        -6.1076   -5.3309  -14.3065  C     
13   O        -2.2165   -9.1677  -17.2635  O     
14   C        -0.7858   -9.2381  -17.1295  C     
15   O        -4.6636   -4.2156  -16.5278  O     
16   C        -3.9635   -3.0820  -15.9759  C     
17   H        -2.8448   -4.8191  -18.1804  H     
18   H        -1.7582   -6.9272  -18.5294  H     
19   H        -3.5781   -9.7155  -15.3321  H     
20   H        -6.2736   -7.6631  -13.2157  H     
21   H        -5.4001   -4.5897  -13.9366  H     
22   H        -6.8556   -5.4815  -13.5227  H     
23   H        -6.6518   -4.9619  -15.1758  H     
24   H        -0.2912   -8.5245  -17.7888  H     
25   H        -0.4601  -10.2406  -17.4160  H     
26   H        -0.4789   -9.0609  -16.0960  H     
27   H        -4.2865   -2.9267  -14.9438  H     
28   H        -4.2473   -2.2023  -16.5527  H     
29   H        -2.8771   -3.1612  -16.0210  H     
@<TRIPOS>BOND
     1    1    2 1
     2    1    6 2
     3    1   15 1
     4    2    3 2
     5    3    4 1
     6    4    5 2
     7    4   13 1
     8    5    6 1
     9    5    8 1
    10    6    7 1
    11    7   10 2
    12    7   12 1
    13    8    9 1
    14    9   10 1
    15    9   11 2
    16   13   14 1
    17   15   16 1
    18    2   17 1
    19    3   18 1
    20    8   19 1
    21   10   20 1
    22   12   21 1
    23   12   22 1
    24   12   23 1
    25   14   24 1
    26   14   25 1
    27   14   26 1
    28   16   27 1
    29   16   28 1
    30   16   29 1
@<TRIPOS>PROPERTY_DATA
  Total_Score	| 4.6910
  Crash		| -0.4790
  Polar		| 1.8887
  FragIndex	| 1
  FragRMSD	| 0.222

