@<TRIPOS>MOLECULE
BindingDB_29221
 32 33 0 0 0
SMALL
NO_CHARGES


@<TRIPOS>ATOM
1    C        -3.8241   -5.4075  -16.5131  C     
2    C        -2.8573   -5.5061  -17.5239  C     
3    C        -2.3371   -6.7644  -17.8492  C     
4    C        -2.7161   -7.9226  -17.1306  C     
5    C        -3.7731   -7.8439  -16.1767  C     
6    C        -4.2786   -6.5528  -15.8116  C     
7    C        -5.1956   -6.4541  -14.7330  C     
8    N        -4.3268   -8.9583  -15.5353  N     
9    C        -5.0099   -8.7939  -14.3850  C     
10   C        -5.4777   -7.5698  -14.0178  C     
11   O        -5.3659   -9.7565  -13.7126  O     
12   C        -5.8381   -5.1896  -14.3580  C     
13   O        -2.1127   -9.1234  -17.4296  O     
14   C        -0.7046   -9.2473  -17.0941  C     
15   O        -2.4361   -4.3987  -18.2141  O     
16   C        -1.1259   -3.9468  -17.8307  C     
17   C        -4.3563  -10.2526  -16.1842  C     
18   H        -4.1713   -4.4728  -16.2987  H     
19   H        -1.6525   -6.8391  -18.6004  H     
20   H        -6.0748   -7.5120  -13.2247  H     
21   H        -5.0818   -4.4739  -14.0468  H     
22   H        -6.5584   -5.2812  -13.5443  H     
23   H        -6.3755   -4.7973  -15.2225  H     
24   H        -0.0974   -8.5473  -17.6769  H     
25   H        -0.3811  -10.2448  -17.3411  H     
26   H        -0.5255   -9.0644  -16.0274  H     
27   H        -1.1181   -3.6060  -16.7806  H     
28   H        -0.8556   -3.0999  -18.4661  H     
29   H        -0.3718   -4.7349  -17.9698  H     
30   H        -4.3258  -10.1819  -17.2750  H     
31   H        -5.2877  -10.7964  -15.9733  H     
32   H        -3.5058  -10.8533  -15.8427  H     
@<TRIPOS>BOND
     1    1    2 1
     2    1    6 2
     3    2    3 2
     4    2   15 1
     5    3    4 1
     6    4    5 2
     7    4   13 1
     8    5    6 1
     9    5    8 1
    10    6    7 1
    11    7   10 2
    12    7   12 1
    13    8    9 1
    14    8   17 1
    15    9   10 1
    16    9   11 2
    17   13   14 1
    18   15   16 1
    19    1   18 1
    20    3   19 1
    21   10   20 1
    22   12   21 1
    23   12   22 1
    24   12   23 1
    25   14   24 1
    26   14   25 1
    27   14   26 1
    28   16   27 1
    29   16   28 1
    30   16   29 1
    31   17   30 1
    32   17   31 1
    33   17   32 1
@<TRIPOS>PROPERTY_DATA
  Total_Score	| 4.4582
  Crash		| -1.8108
  Polar		| 1.4907
  FragIndex	| 1
  FragRMSD	| 0.274

