@<TRIPOS>MOLECULE
BindingDB_50169625
 62 65 0 0 0
SMALL
NO_CHARGES


@<TRIPOS>ATOM
1    N        24.1639    5.8814    1.7011  N     
2    C        24.8466    7.0023    1.9915  C     
3    S        24.1969    2.1961   -3.8271  S     
4    N        24.5415    5.0324    0.7681  N     
5    C        25.6945    5.2533    0.0772  C     
6    C        26.0322    7.2527    1.2962  C     
7    N        26.4086    6.3752    0.3761  N     
8    N        23.0679    6.8963    3.3023  N     
9    C        24.1327    7.6620    2.9971  C     
10   C        23.0978    5.8047    2.5128  C     
11   C        26.0958    4.3696   -0.9582  C     
12   N        24.6190    1.9480   -5.4477  N     
13   C        25.4537    2.9062   -2.8378  C     
14   C        25.1098    3.7789   -1.7862  C     
15   O        23.8768    0.8134   -3.0965  O     
16   O        22.8328    3.0036   -3.7430  O     
17   N        23.6742    2.4146   -8.0905  N     
18   C        24.0606    0.8388   -6.2000  C     
19   C        25.2217    3.0185   -6.2033  C     
20   C        27.4637    4.0860   -1.2243  C     
21   O        26.7882    8.3279    1.4528  O     
22   C        26.8077    2.5942   -3.0615  C     
23   C        27.8006    3.1573   -2.2463  C     
24   C        24.2379    3.5490   -7.2741  C     
25   C        23.0311    1.3715   -7.2308  C     
26   C        24.4282    8.9607    3.6346  C     
27   C        22.1323    4.6988    2.5611  C     
28   O        28.4198    4.5969   -0.3706  O     
29   C        22.8589    2.8414   -9.2763  C     
30   O        21.8678    4.9597   -9.9800  O     
31   C        21.7470    3.8978   -9.0289  C     
32   C        29.7945    4.6162   -0.8215  C     
33   C        30.6379    5.4034    0.2024  C     
34   H        24.1229    3.9861   -1.6212  H     
35   H        24.4966    1.9502   -8.4906  H     
36   H        24.8865    0.3428   -6.7269  H     
37   H        23.5824    0.0850   -5.5627  H     
38   H        25.5293    3.8386   -5.5488  H     
39   H        26.1281    2.6342   -6.6852  H     
40   H        26.2831    8.9391    2.0327  H     
41   H        27.0710    1.9409   -3.8006  H     
42   H        28.7810    2.9016   -2.4114  H     
43   H        24.7622    4.2529   -7.9235  H     
44   H        23.4343    4.0902   -6.7656  H     
45   H        22.1582    1.7798   -6.7148  H     
46   H        22.7052    0.5308   -7.8486  H     
47   H        25.4213    8.9333    4.0983  H     
48   H        23.6822    9.1811    4.4048  H     
49   H        24.3972    9.7546    2.8791  H     
50   H        21.6111    4.6107    1.6102  H     
51   H        21.4002    4.8533    3.3511  H     
52   H        22.6631    3.7707    2.7579  H     
53   H        23.5580    3.2274  -10.0358  H     
54   H        22.4115    1.9404   -9.7306  H     
55   H        21.6713    5.7568   -9.4480  H     
56   H        20.7712    3.4182   -9.1337  H     
57   H        21.8334    4.2883   -8.0056  H     
58   H        30.1776    3.5858   -0.8724  H     
59   H        29.9061    5.0901   -1.8055  H     
60   H        30.2536    6.4280    0.3062  H     
61   H        31.6776    5.4552   -0.1329  H     
62   H        30.6052    4.9112    1.1749  H     
@<TRIPOS>BOND
     1    1    2 1
     2    1    4 1
     3    1   10 1
     4    2    6 1
     5    2    9 2
     6    3   12 1
     7    3   13 1
     8    3   15 2
     9    3   16 2
    10    4    5 2
    11    5    7 1
    12    5   11 1
    13    6    7 2
    14    6   21 1
    15    8    9 1
    16    8   10 2
    17    9   26 1
    18   10   27 1
    19   11   14 2
    20   11   20 1
    21   12   18 1
    22   12   19 1
    23   13   14 1
    24   13   22 2
    25   17   24 1
    26   17   25 1
    27   17   29 1
    28   18   25 1
    29   19   24 1
    30   20   23 2
    31   20   28 1
    32   22   23 1
    33   28   32 1
    34   29   31 1
    35   30   31 1
    36   32   33 1
    37   14   34 1
    38   17   35 1
    39   18   36 1
    40   18   37 1
    41   19   38 1
    42   19   39 1
    43   21   40 1
    44   22   41 1
    45   23   42 1
    46   24   43 1
    47   24   44 1
    48   25   45 1
    49   25   46 1
    50   26   47 1
    51   26   48 1
    52   26   49 1
    53   27   50 1
    54   27   51 1
    55   27   52 1
    56   29   53 1
    57   29   54 1
    58   30   55 1
    59   31   56 1
    60   31   57 1
    61   32   58 1
    62   32   59 1
    63   33   60 1
    64   33   61 1
    65   33   62 1
@<TRIPOS>PROPERTY_DATA
  Total_Score	| 7.2367
  Crash		| -1.9535
  Polar		| 1.8115
  FragIndex	| 1
  FragRMSD	| 0.322

