@<TRIPOS>MOLECULE
BindingDB_50287550
 68 71 0 0 0
SMALL
NO_CHARGES


@<TRIPOS>ATOM
1    C        27.7296    3.2429   -2.4739  C     
2    C        26.7222    2.6536   -3.2504  C     
3    C        25.3709    2.9114   -2.9594  C     
4    C        25.0416    3.7728   -1.8886  C     
5    C        26.0545    4.3985   -1.1216  C     
6    C        27.4212    4.1198   -1.4060  C     
7    O        28.3687    4.6273   -0.5470  O     
8    C        29.7572    4.6532   -0.9449  C     
9    C        30.5452    5.5516    0.0494  C     
10   C        25.6689    5.2876   -0.0896  C     
11   N        24.5658    5.0509    0.6778  N     
12   C        26.0740    7.3059    1.0982  C     
13   N        26.3868    6.4242    0.1496  N     
14   C        24.9625    7.0770    1.9021  C     
15   C        24.2240    5.9182    1.6702  C     
16   C        23.2033    5.9256    2.6145  C     
17   N        23.3478    7.0550    3.3422  N     
18   N        24.3705    7.7347    2.9251  N     
19   C        24.7595    8.9971    3.4680  C     
20   C        22.1396    4.9243    2.8171  C     
21   C        22.6258    3.4535    2.6342  C     
22   C        21.9860    2.4787    3.6538  C     
23   O        26.7741    8.2949    1.2503  O     
24   S        24.1018    2.1196   -3.8598  S     
25   N        24.2274    2.1775   -5.5408  N     
26   O        24.1547    0.6172   -3.3528  O     
27   O        22.6562    2.6293   -3.4382  O     
28   C        23.3408    1.3569   -6.3204  C     
29   C        23.7183    1.3013   -7.8293  C     
30   N        23.9621    2.6589   -8.4149  N     
31   C        25.0152    3.3521   -7.6005  C     
32   C        24.6591    3.4451   -6.0858  C     
33   C        22.6941    3.4276   -8.6674  C     
34   C        22.6101    4.0663  -10.0843  C     
35   O        21.5082    4.9855  -10.1539  O     
36   H        28.7000    3.0007   -2.6730  H     
37   H        26.9856    2.0245   -4.0128  H     
38   H        24.0612    3.9341   -1.6762  H     
39   H        30.1857    3.6508   -0.9163  H     
40   H        29.8804    5.0726   -1.9486  H     
41   H        30.1910    6.5921   -0.0317  H     
42   H        31.6230    5.5162   -0.1838  H     
43   H        30.3883    5.1973    1.0798  H     
44   H        27.1644    6.6040   -0.3977  H     
45   H        25.7315    8.9126    3.9492  H     
46   H        24.0349    9.3441    4.2000  H     
47   H        24.8214    9.7415    2.6754  H     
48   H        21.7296    5.0455    3.8215  H     
49   H        21.3307    5.1228    2.1004  H     
50   H        22.3528    3.1120    1.6230  H     
51   H        23.7280    3.3959    2.7129  H     
52   H        22.3537    2.7013    4.6688  H     
53   H        22.2518    1.4573    3.4089  H     
54   H        20.8986    2.5863    3.6420  H     
55   H        23.3470    0.3335   -5.9384  H     
56   H        22.3201    1.7481   -6.2249  H     
57   H        24.6212    0.6862   -7.9479  H     
58   H        22.9298    0.7728   -8.3810  H     
59   H        24.4006    2.4749   -9.3361  H     
60   H        25.9628    2.7943   -7.6959  H     
61   H        25.1984    4.3457   -8.0048  H     
62   H        23.8569    4.1910   -5.9535  H     
63   H        25.5456    3.8114   -5.5656  H     
64   H        21.8371    2.7484   -8.5769  H     
65   H        22.5823    4.2027   -7.8961  H     
66   H        23.5270    4.6090  -10.3333  H     
67   H        22.4579    3.2675  -10.8274  H     
68   H        21.6964    5.6216   -9.4313  H     
@<TRIPOS>BOND
     1    1    2 2
     2    1    6 1
     3    2    3 1
     4    3    4 2
     5    3   24 1
     6    4    5 1
     7    5    6 2
     8    5   10 1
     9    6    7 1
    10    7    8 1
    11    8    9 1
    12   10   11 2
    13   10   13 1
    14   11   15 1
    15   12   13 1
    16   12   14 1
    17   12   23 2
    18   14   15 2
    19   14   18 1
    20   15   16 1
    21   16   17 2
    22   16   20 1
    23   17   18 1
    24   18   19 1
    25   20   21 1
    26   21   22 1
    27   24   25 1
    28   24   26 2
    29   24   27 2
    30   25   28 1
    31   25   32 1
    32   28   29 1
    33   29   30 1
    34   30   31 1
    35   30   33 1
    36   31   32 1
    37   33   34 1
    38   34   35 1
    39    1   36 1
    40    2   37 1
    41    4   38 1
    42    8   39 1
    43    8   40 1
    44    9   41 1
    45    9   42 1
    46    9   43 1
    47   13   44 1
    48   19   45 1
    49   19   46 1
    50   19   47 1
    51   20   48 1
    52   20   49 1
    53   21   50 1
    54   21   51 1
    55   22   52 1
    56   22   53 1
    57   22   54 1
    58   28   55 1
    59   28   56 1
    60   29   57 1
    61   29   58 1
    62   30   59 1
    63   31   60 1
    64   31   61 1
    65   32   62 1
    66   32   63 1
    67   33   64 1
    68   33   65 1
    69   34   66 1
    70   34   67 1
    71   35   68 1
@<TRIPOS>PROPERTY_DATA
  Total_Score	| 10.3710
  Crash		| -1.9676
  Polar		| 3.3442
  FragIndex	| 1
  FragRMSD	| 1.211

