@<TRIPOS>MOLECULE
BindingDB_50169633
 68 72 0 0 0
SMALL
NO_CHARGES


@<TRIPOS>ATOM
1    N        24.2225    5.8530    1.7812  N     
2    C        24.8937    7.0080    1.9914  C     
3    S        24.1954    2.0827   -3.7402  S     
4    N        24.5943    5.0157    0.8360  N     
5    C        25.7110    5.2412    0.0739  C     
6    C        23.2074    5.7730    2.6698  C     
7    N        23.1973    6.9158    3.3770  N     
8    C        26.0517    7.2712    1.2548  C     
9    N        26.4117    6.3711    0.3479  N     
10   C        24.2185    7.6979    2.9933  C     
11   C        26.1038    4.3295   -0.9280  C     
12   N        24.6729    1.8908   -5.3579  N     
13   C        25.4343    2.7885   -2.7273  C     
14   C        25.1122    3.7607   -1.7581  C     
15   O        24.0009    0.6495   -3.0760  O     
16   O        22.7925    2.8297   -3.6264  O     
17   N        23.4784    2.7836   -7.7748  N     
18   C        24.0230    0.9067   -6.1880  C     
19   C        25.2580    3.0188   -6.0332  C     
20   C        27.4525    3.9203   -1.1009  C     
21   O        26.7923    8.3710    1.3899  O     
22   C        22.2312    4.6832    2.9342  C     
23   C        26.7623    2.3552   -2.8582  C     
24   C        27.7646    2.9018   -2.0333  C     
25   C        24.1593    3.7434   -6.8486  C     
26   C        22.9284    1.5925   -7.0493  C     
27   C        24.5315    8.9941    3.6247  C     
28   O        28.4180    4.4403   -0.2515  O     
29   C        22.4627    3.4520   -8.6392  C     
30   C        22.5533    3.2518    2.4267  C     
31   C        21.9706    4.4750    4.4515  C     
32   C        29.7501    4.6618   -0.7723  C     
33   C        30.4451    5.7154    0.1173  C     
34   C        21.3479    3.0695    4.5630  C     
35   C        22.1414    2.2417    3.5376  C     
36   H        24.1411    4.0762   -1.6784  H     
37   H        24.2044    2.4256   -8.4020  H     
38   H        24.7663    0.4595   -6.8452  H     
39   H        23.5769    0.1008   -5.6043  H     
40   H        25.7232    3.7293   -5.3440  H     
41   H        26.0328    2.6686   -6.7150  H     
42   H        26.9059    8.4961    2.3571  H     
43   H        21.2934    5.0001    2.4824  H     
44   H        27.0057    1.6368   -3.5333  H     
45   H        28.7214    2.5426   -2.1269  H     
46   H        24.6363    4.5436   -7.4190  H     
47   H        23.4329    4.1953   -6.1615  H     
48   H        22.0947    1.8899   -6.4000  H     
49   H        22.5513    0.8586   -7.7714  H     
50   H        25.4747    8.9275    4.1694  H     
51   H        23.7460    9.2726    4.3333  H     
52   H        24.6144    9.7779    2.8695  H     
53   H        21.6470    3.8647   -8.0468  H     
54   H        22.0554    2.7392   -9.3554  H     
55   H        22.9284    4.2582   -9.2041  H     
56   H        22.0003    3.0483    1.5063  H     
57   H        23.6227    3.1198    2.2111  H     
58   H        22.9128    4.5061    5.0197  H     
59   H        21.2812    5.2241    4.8640  H     
60   H        30.3189    3.7223   -0.7273  H     
61   H        29.7416    5.0134   -1.8163  H     
62   H        29.9537    6.6785    0.0043  H     
63   H        31.4893    5.8067   -0.1562  H     
64   H        30.3740    5.4007    1.1537  H     
65   H        21.4578    2.6603    5.5750  H     
66   H        20.2804    3.0953    4.2929  H     
67   H        21.5322    1.4172    3.1489  H     
68   H        23.0413    1.8284    4.0282  H     
@<TRIPOS>BOND
     1    1    2 1
     2    1    4 1
     3    1    6 1
     4    2    8 1
     5    2   10 2
     6    3   12 1
     7    3   13 1
     8    3   15 2
     9    3   16 2
    10    4    5 2
    11    5    9 1
    12    5   11 1
    13    6    7 2
    14    6   22 1
    15    7   10 1
    16    8    9 2
    17    8   21 1
    18   10   27 1
    19   11   14 2
    20   11   20 1
    21   12   18 1
    22   12   19 1
    23   13   14 1
    24   13   23 2
    25   17   25 1
    26   17   26 1
    27   17   29 1
    28   18   26 1
    29   19   25 1
    30   20   24 2
    31   20   28 1
    32   22   30 1
    33   22   31 1
    34   23   24 1
    35   28   32 1
    36   30   35 1
    37   31   34 1
    38   32   33 1
    39   34   35 1
    40   14   36 1
    41   17   37 1
    42   18   38 1
    43   18   39 1
    44   19   40 1
    45   19   41 1
    46   21   42 1
    47   22   43 1
    48   23   44 1
    49   24   45 1
    50   25   46 1
    51   25   47 1
    52   26   48 1
    53   26   49 1
    54   27   50 1
    55   27   51 1
    56   27   52 1
    57   29   53 1
    58   29   54 1
    59   29   55 1
    60   30   56 1
    61   30   57 1
    62   31   58 1
    63   31   59 1
    64   32   60 1
    65   32   61 1
    66   33   62 1
    67   33   63 1
    68   33   64 1
    69   34   65 1
    70   34   66 1
    71   35   67 1
    72   35   68 1
@<TRIPOS>PROPERTY_DATA
  Total_Score	| 8.4952
  Crash		| -1.8336
  Polar		| 1.0154
  FragIndex	| 1
  FragRMSD	| 0.460

