@<TRIPOS>MOLECULE
BindingDB_50169632
 68 72 0 0 0
SMALL
NO_CHARGES


@<TRIPOS>ATOM
1    N        24.1620    5.8770    1.7677  N     
2    C        24.8204    7.0372    1.9579  C     
3    N        24.4946    5.0286    0.8194  N     
4    S        23.9198    2.2310   -3.8141  S     
5    C        25.5854    5.2674    0.0307  C     
6    C        23.2024    5.8246    2.7070  C     
7    N        24.2333    7.7128    2.9526  N     
8    N        23.2567    6.9828    3.3954  N     
9    N        26.2820    6.4162    0.2616  N     
10   C        25.9327    7.3121    1.1777  C     
11   C        25.9395    4.3829   -1.0194  C     
12   N        24.2136    2.1927   -5.4819  N     
13   C        25.1997    2.9521   -2.8759  C     
14   C        24.9093    3.7978   -1.7943  C     
15   O        23.8027    0.7495   -3.2362  O     
16   O        22.5123    2.9284   -3.5563  O     
17   N        24.4363    2.3718   -8.3879  N     
18   C        23.4919    1.2377   -6.2828  C     
19   C        24.5862    3.4436   -6.0748  C     
20   C        27.2917    4.0626   -1.3241  C     
21   O        26.6632    8.4076    1.3184  O     
22   C        22.2381    4.7348    3.0134  C     
23   C        26.5411    2.6625   -3.1897  C     
24   C        27.5781    3.1881   -2.4017  C     
25   C        25.2025    3.2822   -7.4851  C     
26   C        24.0739    1.0868   -7.7117  C     
27   O        28.2803    4.5155   -0.4777  O     
28   C        23.3815    3.0202   -9.2410  C     
29   O        21.4241    4.4893   -9.4417  O     
30   C        22.5785    3.3143    2.4876  C     
31   C        22.0486    4.5124    4.5303  C     
32   C        22.1460    3.6405   -8.5462  C     
33   C        29.6229    4.5284   -0.9978  C     
34   C        30.5289    5.3521   -0.0631  C     
35   C        22.0542    2.2965    3.5329  C     
36   C        21.3835    3.1312    4.6409  C     
37   H        23.9321    4.0044   -1.5733  H     
38   H        25.1310    2.0880   -9.0839  H     
39   H        23.5352    0.2520   -5.8073  H     
40   H        22.4466    1.5347   -6.3511  H     
41   H        23.7033    4.0759   -6.1250  H     
42   H        25.3307    3.9642   -5.4603  H     
43   H        26.2700    8.9021    2.0643  H     
44   H        21.2727    5.0316    2.5960  H     
45   H        26.7781    2.0453   -3.9728  H     
46   H        28.5441    2.9239   -2.6111  H     
47   H        26.2049    2.8536   -7.3733  H     
48   H        25.3272    4.2701   -7.9285  H     
49   H        23.3719    0.5116   -8.3143  H     
50   H        24.9868    0.4990   -7.6441  H     
51   H        23.8551    3.8013   -9.8372  H     
52   H        23.0240    2.2601   -9.9545  H     
53   H        21.5507    5.4006   -9.0896  H     
54   H        22.1140    3.1565    1.5094  H     
55   H        23.6590    3.1820    2.3832  H     
56   H        23.0140    4.4907    5.0528  H     
57   H        21.4192    5.2856    4.9820  H     
58   H        21.4645    2.8477   -8.2287  H     
59   H        22.4413    4.2339   -7.6822  H     
60   H        30.0076    3.5048   -1.0536  H     
61   H        29.6686    4.9643   -1.9996  H     
62   H        30.1779    6.3891   -0.0237  H     
63   H        31.5542    5.3395   -0.4441  H     
64   H        30.5178    4.9314    0.9440  H     
65   H        21.3368    1.5972    3.0938  H     
66   H        22.8862    1.7262    3.9614  H     
67   H        21.5374    2.6860    5.6314  H     
68   H        20.3068    3.2178    4.4535  H     
@<TRIPOS>BOND
     1    1    2 1
     2    1    3 1
     3    1    6 1
     4    2    7 2
     5    2   10 1
     6    3    5 2
     7    4   12 1
     8    4   13 1
     9    4   15 2
    10    4   16 2
    11    5    9 1
    12    5   11 1
    13    6    8 2
    14    6   22 1
    15    7    8 1
    16    9   10 2
    17   10   21 1
    18   11   14 2
    19   11   20 1
    20   12   18 1
    21   12   19 1
    22   13   14 1
    23   13   23 2
    24   17   25 1
    25   17   26 1
    26   17   28 1
    27   18   26 1
    28   19   25 1
    29   20   24 2
    30   20   27 1
    31   22   30 1
    32   22   31 1
    33   23   24 1
    34   27   33 1
    35   28   32 1
    36   29   32 1
    37   30   35 1
    38   31   36 1
    39   33   34 1
    40   35   36 1
    41   14   37 1
    42   17   38 1
    43   18   39 1
    44   18   40 1
    45   19   41 1
    46   19   42 1
    47   21   43 1
    48   22   44 1
    49   23   45 1
    50   24   46 1
    51   25   47 1
    52   25   48 1
    53   26   49 1
    54   26   50 1
    55   28   51 1
    56   28   52 1
    57   29   53 1
    58   30   54 1
    59   30   55 1
    60   31   56 1
    61   31   57 1
    62   32   58 1
    63   32   59 1
    64   33   60 1
    65   33   61 1
    66   34   62 1
    67   34   63 1
    68   34   64 1
    69   35   65 1
    70   35   66 1
    71   36   67 1
    72   36   68 1
@<TRIPOS>PROPERTY_DATA
  Total_Score	| 6.7520
  Crash		| -2.2689
  Polar		| 1.7177
  FragIndex	| 1
  FragRMSD	| 0.700

