@<TRIPOS>MOLECULE
BindingDB_50169627
 72 76 0 0 0
SMALL
NO_CHARGES


@<TRIPOS>ATOM
1    N        24.2371    5.8437    1.7042  N     
2    C        24.9536    6.9561    1.9645  C     
3    S        23.9434    2.1685   -3.8243  S     
4    N        24.5907    5.0047    0.7524  N     
5    C        25.7114    5.1971    0.0049  C     
6    C        23.1609    5.8173    2.5175  C     
7    N        23.1809    6.9443    3.2577  N     
8    C        26.1251    7.1802    1.2501  C     
9    N        26.4487    6.3069    0.3051  N     
10   C        24.2751    7.6614    2.9504  C     
11   C        26.0470    4.3171   -1.0658  C     
12   N        24.1853    2.1781   -5.4993  N     
13   C        25.2505    2.8824   -2.9132  C     
14   C        24.9975    3.7063   -1.7986  C     
15   O        23.8576    0.6709   -3.2961  O     
16   O        22.5477    2.8625   -3.5182  O     
17   N        24.3550    2.4102   -8.4188  N     
18   C        24.4456    3.4576   -6.0963  C     
19   C        23.4875    1.1911   -6.2815  C     
20   C        27.3945    4.0527   -1.4502  C     
21   O        26.9189    8.2226    1.4360  O     
22   C        22.0866    4.7888    2.6810  C     
23   C        26.5817    2.6361   -3.2901  C     
24   C        27.6366    3.2085   -2.5666  C     
25   C        23.9610    1.1192   -7.7692  C     
26   C        25.0970    3.3155   -7.4906  C     
27   C        24.6437    8.9324    3.5933  C     
28   O        28.4023    4.6164   -0.6826  O     
29   C        23.3828    3.0662   -9.3573  C     
30   O        20.9576    3.3277   -8.9598  O     
31   C        22.3263    3.3798    2.0757  C     
32   C        21.8658    4.4292    4.1746  C     
33   C        22.2327    3.9471   -8.8054  C     
34   C        29.7858    4.6339   -1.0783  C     
35   C        30.5969    5.4398   -0.0613  C     
36   C        23.2134    2.6525    3.1128  C     
37   C        22.8723    3.2950    4.4781  C     
38   H        24.0205    3.8856   -1.5374  H     
39   H        25.0896    2.1143   -9.0697  H     
40   H        23.4933    3.9913   -6.1795  H     
41   H        25.1181    4.0610   -5.4797  H     
42   H        23.6468    0.1978   -5.8429  H     
43   H        22.4117    1.3949   -6.2465  H     
44   H        27.0557    8.2873    2.4018  H     
45   H        21.1694    5.2004    2.2539  H     
46   H        26.7951    2.0374   -4.0954  H     
47   H        28.5871    2.9974   -2.8681  H     
48   H        23.2042    0.5952   -8.3616  H     
49   H        24.8526    0.4901   -7.7951  H     
50   H        26.0928    2.8867   -7.3339  H     
51   H        25.2348    4.3042   -7.9292  H     
52   H        25.5850    8.8162    4.1355  H     
53   H        23.8608    9.2453    4.2911  H     
54   H        24.7606    9.7118    2.8367  H     
55   H        23.9756    3.7063  -10.0138  H     
56   H        22.9485    2.3029  -10.0079  H     
57   H        20.9501    2.5638   -8.3449  H     
58   H        21.3616    2.8607    2.0018  H     
59   H        22.7618    3.3958    1.0764  H     
60   H        22.0024    5.2774    4.8522  H     
61   H        20.8438    4.0552    4.3064  H     
62   H        22.3826    4.1991   -7.7465  H     
63   H        22.2085    4.8811   -9.3701  H     
64   H        30.1777    3.6108   -1.1193  H     
65   H        29.8917    5.1161   -2.0553  H     
66   H        30.2211    6.4635   -0.0170  H     
67   H        31.6444    5.4588   -0.3572  H     
68   H        30.5169    4.9833    0.9286  H     
69   H        23.0083    1.5794    3.1196  H     
70   H        24.2704    2.8023    2.8730  H     
71   H        23.7764    3.7090    4.9338  H     
72   H        22.4358    2.5638    5.1637  H     
@<TRIPOS>BOND
     1    1    2 1
     2    1    4 1
     3    1    6 1
     4    2    8 1
     5    2   10 2
     6    3   12 1
     7    3   13 1
     8    3   15 2
     9    3   16 2
    10    4    5 2
    11    5    9 1
    12    5   11 1
    13    6    7 2
    14    6   22 1
    15    7   10 1
    16    8    9 2
    17    8   21 1
    18   10   27 1
    19   11   14 2
    20   11   20 1
    21   12   18 1
    22   12   19 1
    23   13   14 1
    24   13   23 2
    25   17   25 1
    26   17   26 1
    27   17   29 1
    28   18   26 1
    29   19   25 1
    30   20   24 2
    31   20   28 1
    32   22   31 1
    33   22   32 1
    34   23   24 1
    35   28   34 1
    36   29   33 1
    37   30   33 1
    38   31   36 1
    39   32   37 1
    40   34   35 1
    41   36   37 1
    42   14   38 1
    43   17   39 1
    44   18   40 1
    45   18   41 1
    46   19   42 1
    47   19   43 1
    48   21   44 1
    49   22   45 1
    50   23   46 1
    51   24   47 1
    52   25   48 1
    53   25   49 1
    54   26   50 1
    55   26   51 1
    56   27   52 1
    57   27   53 1
    58   27   54 1
    59   29   55 1
    60   29   56 1
    61   30   57 1
    62   31   58 1
    63   31   59 1
    64   32   60 1
    65   32   61 1
    66   33   62 1
    67   33   63 1
    68   34   64 1
    69   34   65 1
    70   35   66 1
    71   35   67 1
    72   35   68 1
    73   36   69 1
    74   36   70 1
    75   37   71 1
    76   37   72 1
@<TRIPOS>PROPERTY_DATA
  Total_Score	| 8.6985
  Crash		| -2.1112
  Polar		| 1.0651
  FragIndex	| 1
  FragRMSD	| 0.627

