@<TRIPOS>MOLECULE
BindingDB_50111897
 43 45 0 0 0
SMALL
NO_CHARGES


@<TRIPOS>ATOM
1    C        27.6927    3.1070   -2.3782  C     
2    C        26.6515    2.5558   -3.1540  C     
3    C        25.3088    2.8551   -2.8571  C     
4    C        25.0142    3.7370   -1.8077  C     
5    C        26.0459    4.3173   -1.0259  C     
6    C        27.4039    3.9733   -1.2917  C     
7    O        28.3739    4.5328   -0.4835  O     
8    C        29.7277    4.6193   -0.9435  C     
9    C        30.5175    5.5455    0.0310  C     
10   C        25.6969    5.2372   -0.0068  C     
11   N        24.6336    4.9865    0.8044  N     
12   C        26.0630    7.2842    1.1194  C     
13   N        26.3820    6.4028    0.1752  N     
14   C        24.9715    7.0059    1.9337  C     
15   N        24.3107    5.8479    1.7403  N     
16   C        23.2775    5.8000    2.6002  C     
17   N        23.2669    6.9303    3.3326  N     
18   C        24.3113    7.6927    2.9478  C     
19   C        24.6164    9.0346    3.4751  C     
20   C        22.2460    4.7453    2.6629  C     
21   C        22.8050    3.3236    2.9436  C     
22   C        23.6198    3.2043    4.2599  C     
23   O        26.7304    8.3007    1.2254  O     
24   H        28.6765    2.8899   -2.6053  H     
25   H        26.8829    1.9260   -3.9300  H     
26   H        24.5633    2.4536   -3.4254  H     
27   H        24.0312    3.9583   -1.6366  H     
28   H        30.1956    3.6304   -0.9412  H     
29   H        29.7688    5.0320   -1.9527  H     
30   H        30.0296    6.5287    0.1033  H     
31   H        31.5392    5.6963   -0.3401  H     
32   H        30.5523    5.0937    1.0255  H     
33   H        27.1377    6.5889   -0.4100  H     
34   H        25.5791    9.0265    3.9896  H     
35   H        23.8462    9.3467    4.1778  H     
36   H        24.6499    9.7587    2.6591  H     
37   H        21.5066    4.9740    3.4338  H     
38   H        21.7313    4.7202    1.6942  H     
39   H        21.9551    2.6253    3.0047  H     
40   H        23.4260    2.9984    2.1041  H     
41   H        24.4078    3.9652    4.3077  H     
42   H        24.0765    2.2105    4.3215  H     
43   H        22.9592    3.3279    5.1258  H     
@<TRIPOS>BOND
     1    1    2 2
     2    1    6 1
     3    2    3 1
     4    3    4 2
     5    4    5 1
     6    5    6 2
     7    5   10 1
     8    6    7 1
     9    7    8 1
    10    8    9 1
    11   10   11 2
    12   10   13 1
    13   11   15 1
    14   12   13 1
    15   12   14 1
    16   12   23 2
    17   14   15 1
    18   14   18 2
    19   15   16 1
    20   16   17 2
    21   16   20 1
    22   17   18 1
    23   18   19 1
    24   20   21 1
    25   21   22 1
    26    1   24 1
    27    2   25 1
    28    3   26 1
    29    4   27 1
    30    8   28 1
    31    8   29 1
    32    9   30 1
    33    9   31 1
    34    9   32 1
    35   13   33 1
    36   19   34 1
    37   19   35 1
    38   19   36 1
    39   20   37 1
    40   20   38 1
    41   21   39 1
    42   21   40 1
    43   22   41 1
    44   22   42 1
    45   22   43 1
@<TRIPOS>PROPERTY_DATA
  Total_Score	| 8.0266
  Crash		| -0.3351
  Polar		| 2.3487
  FragIndex	| 1
  FragRMSD	| 0.127

