@<TRIPOS>MOLECULE
BindingDB_50169639
 67 70 0 0 0
SMALL
NO_CHARGES


@<TRIPOS>ATOM
1    N        24.1311    5.5282    1.7063  N     
2    C        24.7999    6.6630    2.0223  C     
3    S        24.3003    1.8481   -3.8527  S     
4    N        24.5320    4.6778    0.7783  N     
5    C        25.6973    4.8956    0.1048  C     
6    C        26.0163    6.8783    1.3713  C     
7    N        26.4055    6.0075    0.4557  N     
8    N        22.9250    6.5953    3.1812  N     
9    C        24.0005    7.3653    2.9403  C     
10   C        23.0127    5.4745    2.4482  C     
11   C        26.1315    4.0407   -0.9544  C     
12   N        24.6792    1.8341   -5.5034  N     
13   C        25.5081    2.6002   -2.8505  C     
14   C        25.1460    3.4127   -1.7549  C     
15   O        24.2886    0.3542   -3.3143  O     
16   O        22.8493    2.4596   -3.6242  O     
17   N        23.4205    2.9133   -7.8157  N     
18   C        23.9855    0.9332   -6.3861  C     
19   C        25.2557    3.0051   -6.1058  C     
20   C        27.5083    3.8389   -1.2576  C     
21   O        26.8211    7.8939    1.6166  O     
22   C        26.8636    2.3910   -3.1326  C     
23   C        27.8508    3.0049   -2.3480  C     
24   C        24.1674    3.8000   -6.8699  C     
25   C        22.8674    1.6975   -7.1415  C     
26   C        24.0627    8.7129    3.5625  C     
27   C        21.9916    4.4020    2.4662  C     
28   O        28.4365    4.4424   -0.4308  O     
29   C        22.3831    3.6540   -8.5871  C     
30   C        29.8068    4.6576   -0.8243  C     
31   C        22.5338    3.0189    2.9066  C     
32   C        25.2694    9.6172    3.2267  C     
33   C        30.4761    5.6168    0.1641  C     
34   C        23.2688    3.0097    4.2691  C     
35   H        24.1523    3.5553   -1.5555  H     
36   H        24.1010    2.5811   -8.5021  H     
37   H        24.6953    0.5221   -7.1116  H     
38   H        23.5468    0.0853   -5.8563  H     
39   H        25.7250    3.6651   -5.3741  H     
40   H        26.0380    2.7017   -6.8085  H     
41   H        26.4987    8.5810    0.9861  H     
42   H        27.1552    1.7938   -3.9100  H     
43   H        28.8231    2.8057   -2.5779  H     
44   H        24.6650    4.5966   -7.4289  H     
45   H        23.4797    4.2563   -6.1496  H     
46   H        22.0819    1.9778   -6.4311  H     
47   H        22.4314    1.0233   -7.8866  H     
48   H        23.1670    9.2541    3.2566  H     
49   H        24.0087    8.5929    4.6538  H     
50   H        21.1760    4.6938    3.1379  H     
51   H        21.5833    4.3205    1.4543  H     
52   H        21.6248    4.0857   -7.9308  H     
53   H        21.8871    2.9935   -9.2999  H     
54   H        22.8413    4.4622   -9.1600  H     
55   H        30.3491    3.7034   -0.8072  H     
56   H        29.8609    5.1060   -1.8228  H     
57   H        21.6834    2.3314    2.9784  H     
58   H        23.2077    2.6262    2.1423  H     
59   H        26.1851    9.1553    3.6074  H     
60   H        25.1545   10.5851    3.7051  H     
61   H        25.3369    9.7779    2.1382  H     
62   H        29.9793    6.5900    0.1445  H     
63   H        31.5278    5.7561   -0.1018  H     
64   H        30.4162    5.2103    1.1760  H     
65   H        24.1413    3.6677    4.2448  H     
66   H        23.6050    1.9955    4.4892  H     
67   H        22.5980    3.3381    5.0670  H     
@<TRIPOS>BOND
     1    1    2 1
     2    1    4 1
     3    1   10 1
     4    2    6 1
     5    2    9 2
     6    3   12 1
     7    3   13 1
     8    3   15 2
     9    3   16 2
    10    4    5 2
    11    5    7 1
    12    5   11 1
    13    6    7 2
    14    6   21 1
    15    8    9 1
    16    8   10 2
    17    9   26 1
    18   10   27 1
    19   11   14 2
    20   11   20 1
    21   12   18 1
    22   12   19 1
    23   13   14 1
    24   13   22 2
    25   17   24 1
    26   17   25 1
    27   17   29 1
    28   18   25 1
    29   19   24 1
    30   20   23 2
    31   20   28 1
    32   22   23 1
    33   26   32 1
    34   27   31 1
    35   28   30 1
    36   30   33 1
    37   31   34 1
    38   14   35 1
    39   17   36 1
    40   18   37 1
    41   18   38 1
    42   19   39 1
    43   19   40 1
    44   21   41 1
    45   22   42 1
    46   23   43 1
    47   24   44 1
    48   24   45 1
    49   25   46 1
    50   25   47 1
    51   26   48 1
    52   26   49 1
    53   27   50 1
    54   27   51 1
    55   29   52 1
    56   29   53 1
    57   29   54 1
    58   30   55 1
    59   30   56 1
    60   31   57 1
    61   31   58 1
    62   32   59 1
    63   32   60 1
    64   32   61 1
    65   33   62 1
    66   33   63 1
    67   33   64 1
    68   34   65 1
    69   34   66 1
    70   34   67 1
@<TRIPOS>PROPERTY_DATA
  Total_Score	| 6.8994
  Crash		| -2.7857
  Polar		| 0.0046
  FragIndex	| 1
  FragRMSD	| 0.477

