@<TRIPOS>MOLECULE
BindingDB_50111902
 64 67 0 0 0
SMALL
NO_CHARGES


@<TRIPOS>ATOM
1    C        27.7635    2.8526   -1.9924  C     
2    C        26.7755    2.3433   -2.8517  C     
3    C        25.4478    2.7967   -2.7494  C     
4    C        25.1268    3.7957   -1.8071  C     
5    C        26.1121    4.3205   -0.9400  C     
6    C        27.4457    3.8414   -1.0382  C     
7    O        28.3746    4.1525   -0.0732  O     
8    C        29.5163    4.9518   -0.4497  C     
9    C        30.7823    4.3212    0.1580  C     
10   C        25.7354    5.2704    0.0352  C     
11   N        24.6511    5.0335    0.8254  N     
12   C        26.0431    7.3452    1.1257  C     
13   N        26.4113    6.4397    0.2174  N     
14   C        24.9386    7.0701    1.9213  C     
15   N        24.2893    5.9031    1.7401  N     
16   C        23.2794    5.8295    2.6283  C     
17   N        23.2627    6.9663    3.3515  N     
18   C        24.2717    7.7508    2.9351  C     
19   C        24.5712    9.0792    3.4897  C     
20   C        22.3135    4.7231    2.8076  C     
21   C        22.9366    3.3213    3.0466  C     
22   C        23.7876    3.1799    4.3304  C     
23   O        26.6831    8.3824    1.2309  O     
24   S        24.2123    2.0799   -3.7464  S     
25   N        24.7027    1.9538   -5.3617  N     
26   O        24.0397    0.6326   -3.1123  O     
27   O        22.8035    2.8088   -3.6240  O     
28   C        25.2818    3.1111   -5.9890  C     
29   C        24.2102    3.8173   -6.8556  C     
30   N        23.5762    2.8471   -7.8026  N     
31   C        23.0200    1.6440   -7.1048  C     
32   C        24.1083    0.9711   -6.2283  C     
33   C        22.5800    3.4994   -8.6960  C     
34   H        28.7123    2.4717   -2.0475  H     
35   H        27.0290    1.6283   -3.5351  H     
36   H        24.1609    4.1405   -1.7491  H     
37   H        29.6678    5.0275   -1.5246  H     
38   H        29.3892    5.9609   -0.0389  H     
39   H        30.7113    4.3058    1.2421  H     
40   H        31.6662    4.8938   -0.1428  H     
41   H        30.8910    3.2926   -0.2067  H     
42   H        27.1704    6.6333   -0.3548  H     
43   H        25.5531    9.0642    3.9656  H     
44   H        23.8211    9.3546    4.2351  H     
45   H        24.5655    9.8266    2.6937  H     
46   H        21.6653    4.9537    3.6532  H     
47   H        21.6850    4.6784    1.9157  H     
48   H        22.1181    2.6006    3.1095  H     
49   H        23.5508    3.0450    2.1851  H     
50   H        24.6142    3.8911    4.3171  H     
51   H        24.2003    2.1691    4.3860  H     
52   H        23.1779    3.3542    5.2196  H     
53   H        25.6864    3.8232   -5.2651  H     
54   H        26.1103    2.7971   -6.6305  H     
55   H        23.4562    4.2689   -6.2038  H     
56   H        24.7023    4.6176   -7.4128  H     
57   H        24.3278    2.5080   -8.4087  H     
58   H        22.1726    1.9250   -6.4728  H     
59   H        22.6675    0.9143   -7.8397  H     
60   H        24.8817    0.5514   -6.8790  H     
61   H        23.6695    0.1356   -5.6777  H     
62   H        21.7311    3.8905   -8.1278  H     
63   H        22.2082    2.7847   -9.4340  H     
64   H        23.0443    4.3239   -9.2426  H     
@<TRIPOS>BOND
     1    1    2 2
     2    1    6 1
     3    2    3 1
     4    3    4 2
     5    3   24 1
     6    4    5 1
     7    5    6 2
     8    5   10 1
     9    6    7 1
    10    7    8 1
    11    8    9 1
    12   10   11 2
    13   10   13 1
    14   11   15 1
    15   12   13 1
    16   12   14 1
    17   12   23 2
    18   14   15 1
    19   14   18 2
    20   15   16 1
    21   16   17 2
    22   16   20 1
    23   17   18 1
    24   18   19 1
    25   20   21 1
    26   21   22 1
    27   24   25 1
    28   24   26 2
    29   24   27 2
    30   25   28 1
    31   25   32 1
    32   28   29 1
    33   29   30 1
    34   30   31 1
    35   30   33 1
    36   31   32 1
    37    1   34 1
    38    2   35 1
    39    4   36 1
    40    8   37 1
    41    8   38 1
    42    9   39 1
    43    9   40 1
    44    9   41 1
    45   13   42 1
    46   19   43 1
    47   19   44 1
    48   19   45 1
    49   20   46 1
    50   20   47 1
    51   21   48 1
    52   21   49 1
    53   22   50 1
    54   22   51 1
    55   22   52 1
    56   28   53 1
    57   28   54 1
    58   29   55 1
    59   29   56 1
    60   30   57 1
    61   31   58 1
    62   31   59 1
    63   32   60 1
    64   32   61 1
    65   33   62 1
    66   33   63 1
    67   33   64 1
@<TRIPOS>PROPERTY_DATA
  Total_Score	| 10.7842
  Crash		| -1.4925
  Polar		| 2.3253
  FragIndex	| 1
  FragRMSD	| 0.385

