@<TRIPOS>MOLECULE
BindingDB_14776
 67 70 0 0 0
SMALL
NO_CHARGES


@<TRIPOS>ATOM
1    C        25.7382    5.3225   -0.0330  C     
2    C        26.0777    7.3782    1.0908  C     
3    N        26.4465    6.4662    0.1917  N     
4    N        24.6189    5.1160    0.7217  N     
5    O        26.7603    8.3775    1.2547  O     
6    C        26.1285    4.3725   -1.0115  C     
7    C        27.7913    3.0073   -2.1732  C     
8    C        26.7749    2.4001   -2.9392  C     
9    C        25.4330    2.7817   -2.7563  C     
10   C        25.1211    3.7488   -1.7855  C     
11   C        27.4879    4.0147   -1.2234  C     
12   C        29.8002    4.6740   -0.9169  C     
13   C        30.5935    5.6543   -0.0145  C     
14   O        28.4546    4.5644   -0.4127  O     
15   C        23.0859    1.4312   -7.1510  C     
16   C        24.1898    3.6468   -6.9926  C     
17   C        25.2440    3.0381   -6.0347  C     
18   C        24.1420    0.8461   -6.1765  C     
19   N        24.6799    1.9012   -5.3561  N     
20   N        23.6750    2.5818   -7.9089  N     
21   S        24.1788    2.0987   -3.7523  S     
22   O        23.8316    0.7028   -3.0760  O     
23   O        22.8414    2.9596   -3.7093  O     
24   C        22.8235    3.0849   -9.0322  C     
25   C        21.4483    3.6889   -8.6635  C     
26   C        24.9365    7.1360    1.8439  C     
27   C        23.2450    5.9350    2.5253  C     
28   C        24.2903    7.8220    2.8715  C     
29   N        24.2561    5.9915    1.6365  N     
30   N        23.2626    7.0554    3.2707  N     
31   C        24.6489    9.1164    3.4741  C     
32   C        22.3001    4.8190    2.7516  C     
33   C        22.9891    3.4269    2.6844  C     
34   C        22.3114    2.3677    3.5851  C     
35   H        27.2463    6.6306   -0.3273  H     
36   H        28.7578    2.7055   -2.3058  H     
37   H        27.0231    1.6804   -3.6301  H     
38   H        24.1411    4.0100   -1.6574  H     
39   H        29.8265    5.0506   -1.9432  H     
40   H        30.2950    3.7014   -0.8883  H     
41   H        30.1683    6.6574   -0.0976  H     
42   H        31.6429    5.6948   -0.3263  H     
43   H        30.5417    5.3293    1.0299  H     
44   H        22.7791    0.6391   -7.8388  H     
45   H        22.2052    1.7525   -6.5856  H     
46   H        23.3752    4.0875   -6.4103  H     
47   H        24.6737    4.4455   -7.5595  H     
48   H        26.1104    2.7173   -6.6199  H     
49   H        25.5971    3.8062   -5.3417  H     
50   H        23.6923    0.0474   -5.5863  H     
51   H        24.9491    0.3919   -6.7572  H     
52   H        24.5055    2.2031   -8.3650  H     
53   H        23.3783    3.8559   -9.5678  H     
54   H        22.6550    2.2701   -9.7401  H     
55   H        20.7979    2.9377   -8.2058  H     
56   H        20.9621    4.0545   -9.5714  H     
57   H        21.5637    4.5286   -7.9753  H     
58   H        25.6227    9.0383    3.9594  H     
59   H        23.9050    9.4051    4.2191  H     
60   H        24.6895    9.8872    2.7040  H     
61   H        21.8429    4.9403    3.7374  H     
62   H        21.4998    4.8691    2.0075  H     
63   H        22.9628    3.0656    1.6504  H     
64   H        24.0387    3.5101    2.9870  H     
65   H        22.4862    2.6028    4.6380  H     
66   H        22.7261    1.3798    3.3758  H     
67   H        21.2348    2.3395    3.4014  H     
@<TRIPOS>BOND
     1    1    3 1
     2    1    4 2
     3    1    6 1
     4    2    3 1
     5    2    5 2
     6    2   26 1
     7    4   29 1
     8    6   10 2
     9    6   11 1
    10    7    8 1
    11    7   11 2
    12    8    9 2
    13    9   10 1
    14    9   21 1
    15   11   14 1
    16   12   13 1
    17   12   14 1
    18   15   18 1
    19   15   20 1
    20   16   17 1
    21   16   20 1
    22   17   19 1
    23   18   19 1
    24   19   21 1
    25   20   24 1
    26   21   22 2
    27   21   23 2
    28   24   25 1
    29   26   28 2
    30   26   29 1
    31   27   29 1
    32   27   30 2
    33   27   32 1
    34   28   30 1
    35   28   31 1
    36   32   33 1
    37   33   34 1
    38    3   35 1
    39    7   36 1
    40    8   37 1
    41   10   38 1
    42   12   39 1
    43   12   40 1
    44   13   41 1
    45   13   42 1
    46   13   43 1
    47   15   44 1
    48   15   45 1
    49   16   46 1
    50   16   47 1
    51   17   48 1
    52   17   49 1
    53   18   50 1
    54   18   51 1
    55   20   52 1
    56   24   53 1
    57   24   54 1
    58   25   55 1
    59   25   56 1
    60   25   57 1
    61   31   58 1
    62   31   59 1
    63   31   60 1
    64   32   61 1
    65   32   62 1
    66   33   63 1
    67   33   64 1
    68   34   65 1
    69   34   66 1
    70   34   67 1
@<TRIPOS>PROPERTY_DATA
  Total_Score	| 10.4047
  Crash		| -1.5989
  Polar		| 2.3207
  FragIndex	| 1
  FragRMSD	| 0.460

