@<TRIPOS>MOLECULE
BindingDB_50169647
 71 75 0 0 0
SMALL
NO_CHARGES


@<TRIPOS>ATOM
1    N        24.4352    5.5745    1.8373  N     
2    C        25.2565    6.6166    2.1244  C     
3    S        23.9059    2.1604   -3.8475  S     
4    N        24.7091    4.7275    0.8605  N     
5    C        25.8507    4.8581    0.1210  C     
6    C        23.3566    5.6240    2.6554  C     
7    N        23.4961    6.7170    3.4354  N     
8    C        26.4423    6.7623    1.4015  C     
9    N        26.6932    5.8834    0.4464  N     
10   C        24.6479    7.3437    3.1437  C     
11   C        26.1276    4.0066   -0.9824  C     
12   N        24.1374    2.1317   -5.5243  N     
13   C        25.2559    2.7147   -2.8941  C     
14   C        25.0474    3.5529   -1.7800  C     
15   O        23.5848    0.7059   -3.2919  O     
16   O        22.5754    2.9794   -3.5536  O     
17   N        24.2706    2.3444   -8.3664  N     
18   C        23.7391    1.0000   -6.3144  C     
19   C        25.0493    3.0812   -6.0948  C     
20   C        27.4487    3.6121   -1.3297  C     
21   O        27.3213    7.7427    1.5494  O     
22   C        22.1548    4.7356    2.7733  C     
23   C        26.5656    2.3077   -3.2108  C     
24   C        27.6507    2.7491   -2.4323  C     
25   C        24.5916    3.5186   -7.5071  C     
26   C        23.2670    1.4482   -7.7229  C     
27   C        25.1164    8.5531    3.8515  C     
28   O        28.5083    3.9643   -0.5307  O     
29   C        23.8774    2.7479   -9.7460  C     
30   C        22.3170    3.2653    2.3082  C     
31   C        21.7014    4.5325    4.2460  C     
32   C        29.6634    4.5287   -1.1897  C     
33   C        25.4884    9.7212    2.9101  C     
34   C        30.3622    5.5003   -0.2178  C     
35   C        22.9642    2.5414    3.5122  C     
36   C        22.5240    3.3359    4.7684  C     
37   H        24.0907    3.8532   -1.5616  H     
38   H        25.1340    1.8005   -8.4577  H     
39   H        24.5906    0.3217   -6.4134  H     
40   H        22.9195    0.4470   -5.8508  H     
41   H        25.1362    3.9817   -5.4816  H     
42   H        26.0379    2.6215   -6.1646  H     
43   H        27.4576    7.8352    2.5094  H     
44   H        21.3510    5.2049    2.1998  H     
45   H        26.7410    1.6812   -3.9999  H     
46   H        28.5914    2.4307   -2.6675  H     
47   H        25.4094    4.0908   -7.9557  H     
48   H        23.7229    4.1781   -7.4170  H     
49   H        22.3017    1.9562   -7.6331  H     
50   H        23.1214    0.5527   -8.3355  H     
51   H        24.3203    8.9008    4.5127  H     
52   H        25.9744    8.2900    4.4731  H     
53   H        22.9475    3.3254   -9.7421  H     
54   H        23.7407    1.8654  -10.3741  H     
55   H        24.6637    3.3557  -10.1994  H     
56   H        21.3263    2.8398    2.1195  H     
57   H        22.9068    3.1676    1.3930  H     
58   H        21.8329    5.4194    4.8724  H     
59   H        20.6332    4.2763    4.2578  H     
60   H        30.3613    3.7338   -1.4651  H     
61   H        29.3902    5.0785   -2.0955  H     
62   H        26.2550    9.4364    2.1945  H     
63   H        25.8735   10.5509    3.5032  H     
64   H        24.6089   10.0612    2.3678  H     
65   H        29.6796    6.3072    0.0547  H     
66   H        31.2476    5.9306   -0.6912  H     
67   H        30.6663    4.9722    0.6882  H     
68   H        22.6194    1.5013    3.5622  H     
69   H        24.0558    2.5422    3.4180  H     
70   H        23.4002    3.6883    5.3201  H     
71   H        21.9189    2.7116    5.4318  H     
@<TRIPOS>BOND
     1    1    2 1
     2    1    4 1
     3    1    6 1
     4    2    8 1
     5    2   10 2
     6    3   12 1
     7    3   13 1
     8    3   15 2
     9    3   16 2
    10    4    5 2
    11    5    9 1
    12    5   11 1
    13    6    7 2
    14    6   22 1
    15    7   10 1
    16    8    9 2
    17    8   21 1
    18   10   27 1
    19   11   14 2
    20   11   20 1
    21   12   18 1
    22   12   19 1
    23   13   14 1
    24   13   23 2
    25   17   25 1
    26   17   26 1
    27   17   29 1
    28   18   26 1
    29   19   25 1
    30   20   24 2
    31   20   28 1
    32   22   30 1
    33   22   31 1
    34   23   24 1
    35   27   33 1
    36   28   32 1
    37   30   35 1
    38   31   36 1
    39   32   34 1
    40   35   36 1
    41   14   37 1
    42   17   38 1
    43   18   39 1
    44   18   40 1
    45   19   41 1
    46   19   42 1
    47   21   43 1
    48   22   44 1
    49   23   45 1
    50   24   46 1
    51   25   47 1
    52   25   48 1
    53   26   49 1
    54   26   50 1
    55   27   51 1
    56   27   52 1
    57   29   53 1
    58   29   54 1
    59   29   55 1
    60   30   56 1
    61   30   57 1
    62   31   58 1
    63   31   59 1
    64   32   60 1
    65   32   61 1
    66   33   62 1
    67   33   63 1
    68   33   64 1
    69   34   65 1
    70   34   66 1
    71   34   67 1
    72   35   68 1
    73   35   69 1
    74   36   70 1
    75   36   71 1
@<TRIPOS>PROPERTY_DATA
  Total_Score	| 7.4155
  Crash		| -2.9942
  Polar		| 1.0303
  FragIndex	| 1
  FragRMSD	| 0.653

