@<TRIPOS>MOLECULE
BindingDB_5522
 38 40 0 0 0
SMALL
NO_CHARGES


@<TRIPOS>ATOM
1    C        32.9497   46.3281   18.0417  C     
2    C        33.2002   44.3510   16.7310  C     
3    N        34.1022   44.9776   15.9168  N     
4    N        32.6398   45.0388   17.7651  N     
5    C        33.8714   46.9830   17.2029  C     
6    C        34.4369   46.2759   16.1443  C     
7    C        35.2007   48.3047   16.1442  C     
8    N        34.3531   48.2349   17.1850  N     
9    N        35.2533   47.1235   15.5048  N     
10   O        32.3116   46.9546   19.0674  O     
11   C        32.9389   46.7502   20.3473  C     
12   C        32.0422   47.3797   21.4480  C     
13   C        32.6993   47.2392   22.8551  C     
14   C        31.8242   47.8728   23.9671  C     
15   C        31.4711   49.3504   23.6522  C     
16   C        30.8153   49.5030   22.2563  C     
17   C        31.6959   48.8714   21.1486  C     
18   N        32.8772   43.0617   16.4911  N     
19   C        31.9556   42.3174   17.2835  C     
20   H        35.7079   49.1472   15.8740  H     
21   H        35.7689   46.9475   14.7007  H     
22   H        33.0654   45.6831   20.5821  H     
23   H        33.9268   47.2224   20.3402  H     
24   H        31.1020   46.8161   21.4507  H     
25   H        32.8581   46.1817   23.0866  H     
26   H        33.6760   47.7306   22.8536  H     
27   H        30.9003   47.2965   24.0728  H     
28   H        32.3602   47.8225   24.9191  H     
29   H        30.7815   49.7210   24.4126  H     
30   H        32.3780   49.9610   23.6939  H     
31   H        29.8322   49.0205   22.2604  H     
32   H        30.6617   50.5637   22.0367  H     
33   H        32.6193   49.4489   21.0439  H     
34   H        31.1479   48.9391   20.2065  H     
35   H        33.2992   42.6209   15.7418  H     
36   H        32.3133   42.2605   18.3130  H     
37   H        31.8545   41.3067   16.8827  H     
38   H        30.9791   42.8035   17.2693  H     
@<TRIPOS>BOND
     1    1    4 1
     2    1    5 2
     3    1   10 1
     4    2    3 1
     5    2    4 2
     6    2   18 1
     7    3    6 2
     8    5    6 1
     9    5    8 1
    10    6    9 1
    11    7    8 2
    12    7    9 1
    13   10   11 1
    14   11   12 1
    15   12   13 1
    16   12   17 1
    17   13   14 1
    18   14   15 1
    19   15   16 1
    20   16   17 1
    21   18   19 1
    22    7   20 1
    23    9   21 1
    24   11   22 1
    25   11   23 1
    26   12   24 1
    27   13   25 1
    28   13   26 1
    29   14   27 1
    30   14   28 1
    31   15   29 1
    32   15   30 1
    33   16   31 1
    34   16   32 1
    35   17   33 1
    36   17   34 1
    37   18   35 1
    38   19   36 1
    39   19   37 1
    40   19   38 1
@<TRIPOS>PROPERTY_DATA
  Total_Score	| 8.5243
  Crash		| -0.2763
  Polar		| 3.2880
  FragIndex	| 1
  FragRMSD	| 0.057

