@<TRIPOS>MOLECULE
BindingDB_5485
 35 37 0 0 0
SMALL
NO_CHARGES


@<TRIPOS>ATOM
1    C        32.8440   46.2773   18.0133  C     
2    C        33.1463   44.2937   16.7270  C     
3    C        33.7630   46.9185   17.1727  C     
4    C        34.3890   46.2096   16.1456  C     
5    C        35.1343   48.2558   16.1671  C     
6    N        34.2598   48.1681   17.2002  N     
7    N        35.2397   47.0604   15.5484  N     
8    N        32.5452   44.9790   17.7447  N     
9    N        34.0817   44.9051   15.9355  N     
10   N        32.8882   42.9891   16.5292  N     
11   O        32.2049   46.9092   19.0562  O     
12   C        32.8931   46.7938   20.3281  C     
13   C        31.9996   47.4164   21.4431  C     
14   C        32.6355   47.2909   22.8633  C     
15   C        31.7481   47.9133   23.9763  C     
16   C        31.4201   49.3998   23.6753  C     
17   C        30.7657   49.5616   22.2603  C     
18   C        31.6421   48.9152   21.1569  C     
19   H        35.7023   49.0851   15.9501  H     
20   H        35.7690   46.8898   14.7434  H     
21   H        33.3773   42.5168   15.8344  H     
22   H        32.2888   42.4889   17.1222  H     
23   H        33.1592   45.7469   20.5972  H     
24   H        33.8253   47.3834   20.2675  H     
25   H        31.0635   46.8499   21.4673  H     
26   H        32.7749   46.2247   23.1025  H     
27   H        33.6224   47.7774   22.8870  H     
28   H        30.8132   47.3472   24.0729  H     
29   H        32.2880   47.8479   24.9318  H     
30   H        30.7398   49.7788   24.4501  H     
31   H        32.3455   49.9931   23.7102  H     
32   H        29.7800   49.0779   22.2713  H     
33   H        30.6147   50.6316   22.0619  H     
34   H        32.5663   49.4964   21.0523  H     
35   H        31.1091   48.9651   20.2016  H     
@<TRIPOS>BOND
     1    1    3 1
     2    1    8 2
     3    1   11 1
     4    2    8 1
     5    2    9 2
     6    2   10 1
     7    3    4 2
     8    3    6 1
     9    4    7 1
    10    4    9 1
    11    5    6 2
    12    5    7 1
    13   11   12 1
    14   12   13 1
    15   13   14 1
    16   13   18 1
    17   14   15 1
    18   15   16 1
    19   16   17 1
    20   17   18 1
    21    5   19 1
    22    7   20 1
    23   10   21 1
    24   10   22 1
    25   12   23 1
    26   12   24 1
    27   13   25 1
    28   14   26 1
    29   14   27 1
    30   15   28 1
    31   15   29 1
    32   16   30 1
    33   16   31 1
    34   17   32 1
    35   17   33 1
    36   18   34 1
    37   18   35 1
@<TRIPOS>PROPERTY_DATA
  Total_Score	| 7.7869
  Crash		| -0.2643
  Polar		| 3.3045
  FragIndex	| 1
  FragRMSD	| 0.082

