@<TRIPOS>MOLECULE
BindingDB_5469
 31 32 0 0 0
SMALL
NO_CHARGES


@<TRIPOS>ATOM
1    C        32.8000   46.2874   18.0171  C     
2    C        33.1724   44.2910   16.7557  C     
3    C        33.7526   46.9416   17.2053  C     
4    C        34.3844   46.2195   16.1942  C     
5    C        35.0922   48.2670   16.1657  C     
6    N        34.1951   48.2051   17.1727  N     
7    N        35.2108   47.0670   15.5640  N     
8    N        32.5332   44.9772   17.7491  N     
9    N        34.1063   44.9083   15.9736  N     
10   O        32.0938   46.9540   18.9901  O     
11   N        32.8774   42.9891   16.5906  N     
12   C        32.5623   46.7716   20.3413  C     
13   C        31.4712   47.2421   21.3516  C     
14   C        31.9664   48.1912   22.4876  C     
15   C        30.9685   49.3645   22.7366  C     
16   C        32.2183   47.4048   23.8100  C     
17   H        35.5842   49.1117   15.8775  H     
18   H        35.7548   46.8761   14.7892  H     
19   H        33.3340   42.4562   15.9196  H     
20   H        32.2336   42.5737   17.1816  H     
21   H        32.7602   45.7099   20.5311  H     
22   H        33.4989   47.3162   20.4823  H     
23   H        30.6640   47.7269   20.7895  H     
24   H        31.0160   46.3726   21.8287  H     
25   H        32.9122   48.6496   22.1773  H     
26   H        30.8586   49.9608   21.8267  H     
27   H        31.3373   50.0205   23.5267  H     
28   H        29.9866   48.9842   23.0266  H     
29   H        31.3019   46.9199   24.1538  H     
30   H        32.5722   48.0740   24.5976  H     
31   H        32.9769   46.6378   23.6518  H     
@<TRIPOS>BOND
     1    1    3 1
     2    1    8 2
     3    1   10 1
     4    2    8 1
     5    2    9 2
     6    2   11 1
     7    3    4 2
     8    3    6 1
     9    4    7 1
    10    4    9 1
    11    5    6 2
    12    5    7 1
    13   10   12 1
    14   12   13 1
    15   13   14 1
    16   14   15 1
    17   14   16 1
    18    5   17 1
    19    7   18 1
    20   11   19 1
    21   11   20 1
    22   12   21 1
    23   12   22 1
    24   13   23 1
    25   13   24 1
    26   14   25 1
    27   15   26 1
    28   15   27 1
    29   15   28 1
    30   16   29 1
    31   16   30 1
    32   16   31 1
@<TRIPOS>PROPERTY_DATA
  Total_Score	| 6.1618
  Crash		| -0.1843
  Polar		| 3.3192
  FragIndex	| 1
  FragRMSD	| 0.408

