@<TRIPOS>MOLECULE
BindingDB_5463
 31 32 0 0 0
SMALL
NO_CHARGES


@<TRIPOS>ATOM
1    C        32.8535   46.4257   17.9501  C     
2    C        33.2410   44.4371   16.6888  C     
3    C        33.8095   47.0903   17.1600  C     
4    C        34.4531   46.3733   16.1537  C     
5    C        35.1810   48.4096   16.1609  C     
6    N        34.2698   48.3517   17.1484  N     
7    N        35.2923   47.2211   15.5480  N     
8    N        32.5966   45.1152   17.6816  N     
9    N        34.1717   45.0712   15.9201  N     
10   O        32.1709   47.0757   18.9377  O     
11   C        32.6225   46.7358   20.2661  C     
12   C        31.7871   47.5324   21.2851  C     
13   N        32.9526   43.1509   16.4744  N     
14   C        32.3581   47.5068   22.7411  C     
15   C        31.3032   47.7540   23.8508  C     
16   C        30.4198   49.0160   23.6667  C     
17   H        35.7002   49.2526   15.8953  H     
18   H        35.8518   47.0236   14.7802  H     
19   H        32.4613   45.6701   20.4622  H     
20   H        33.6862   46.9651   20.3751  H     
21   H        31.7238   48.5791   20.9680  H     
22   H        30.7741   47.1197   21.2661  H     
23   H        33.4047   42.6633   15.7682  H     
24   H        32.2906   42.6987   17.0242  H     
25   H        32.8070   46.5295   22.9423  H     
26   H        33.1590   48.2474   22.8113  H     
27   H        30.6553   46.8773   23.9245  H     
28   H        31.8347   47.8422   24.8042  H     
29   H        31.0425   49.9111   23.6968  H     
30   H        29.6776   49.0600   24.4654  H     
31   H        29.8781   48.9886   22.7181  H     
@<TRIPOS>BOND
     1    1    3 1
     2    1    8 2
     3    1   10 1
     4    2    8 1
     5    2    9 2
     6    2   13 1
     7    3    4 2
     8    3    6 1
     9    4    7 1
    10    4    9 1
    11    5    6 2
    12    5    7 1
    13   10   11 1
    14   11   12 1
    15   12   14 1
    16   14   15 1
    17   15   16 1
    18    5   17 1
    19    7   18 1
    20   11   19 1
    21   11   20 1
    22   12   21 1
    23   12   22 1
    24   13   23 1
    25   13   24 1
    26   14   25 1
    27   14   26 1
    28   15   27 1
    29   15   28 1
    30   16   29 1
    31   16   30 1
    32   16   31 1
@<TRIPOS>PROPERTY_DATA
  Total_Score	| 5.9286
  Crash		| -0.1322
  Polar		| 3.2183
  FragIndex	| 1
  FragRMSD	| 0.369

