@<TRIPOS>MOLECULE
BindingDB_5490
 38 40 0 0 0
SMALL
NO_CHARGES


@<TRIPOS>ATOM
1    C        32.8106   46.4274   17.8514  C     
2    C        33.1922   44.3498   16.7335  C     
3    C        33.7980   47.0130   17.0453  C     
4    C        34.4512   46.2291   16.1011  C     
5    C        35.1910   48.2622   15.9884  C     
6    N        34.2625   48.2682   16.9632  N     
7    N        35.3035   47.0330   15.4573  N     
8    N        32.5322   45.1057   17.6567  N     
9    N        34.1497   44.9163   15.9464  N     
10   N        32.8679   43.0574   16.5746  N     
11   O        32.0543   47.2077   18.6749  O     
12   C        32.1849   46.9803   20.0893  C     
13   C        31.0483   47.7650   20.7895  C     
14   C        30.6952   47.4679   22.2943  C     
15   C        32.1438   49.1654   23.5978  C     
16   C        32.9033   48.0049   24.2890  C     
17   C        32.9023   46.6903   23.4640  C     
18   C        31.4745   46.3001   22.9856  C     
19   C        30.7106   48.7344   23.2094  C     
20   H        35.7214   49.0805   15.6862  H     
21   H        35.8679   46.7968   14.7082  H     
22   H        33.3133   42.5183   15.9037  H     
23   H        32.1741   42.6626   17.1265  H     
24   H        32.0707   45.9174   20.3141  H     
25   H        33.1615   47.3309   20.4400  H     
26   H        31.2729   48.8272   20.6710  H     
27   H        30.1468   47.5883   20.1961  H     
28   H        29.6435   47.1507   22.2817  H     
29   H        32.0924   50.0193   24.2783  H     
30   H        32.6877   49.4858   22.7056  H     
31   H        33.9346   48.3212   24.4604  H     
32   H        32.4504   47.8085   25.2647  H     
33   H        33.5666   46.7993   22.6050  H     
34   H        33.3095   45.8807   24.0772  H     
35   H        30.9056   45.9789   23.8640  H     
36   H        31.5312   45.4379   22.3180  H     
37   H        30.1988   49.5706   22.7210  H     
38   H        30.1513   48.5212   24.1273  H     
@<TRIPOS>BOND
     1    1    3 1
     2    1    8 2
     3    1   11 1
     4    2    8 1
     5    2    9 2
     6    2   10 1
     7    3    4 2
     8    3    6 1
     9    4    7 1
    10    4    9 1
    11    5    6 2
    12    5    7 1
    13   11   12 1
    14   12   13 1
    15   13   14 1
    16   14   18 1
    17   14   19 1
    18   15   16 1
    19   15   19 1
    20   16   17 1
    21   17   18 1
    22    5   20 1
    23    7   21 1
    24   10   22 1
    25   10   23 1
    26   12   24 1
    27   12   25 1
    28   13   26 1
    29   13   27 1
    30   14   28 1
    31   15   29 1
    32   15   30 1
    33   16   31 1
    34   16   32 1
    35   17   33 1
    36   17   34 1
    37   18   35 1
    38   18   36 1
    39   19   37 1
    40   19   38 1
@<TRIPOS>PROPERTY_DATA
  Total_Score	| 7.9358
  Crash		| -0.7528
  Polar		| 3.2309
  FragIndex	| 1
  FragRMSD	| 1.098

