@<TRIPOS>MOLECULE
BindingDB_5483
 32 34 0 0 0
SMALL
NO_CHARGES


@<TRIPOS>ATOM
1    C        33.3280   46.3043   18.3597  C     
2    C        33.3077   44.3334   16.9943  C     
3    C        34.1658   46.8988   17.4059  C     
4    C        34.5281   46.2012   16.2605  C     
5    C        35.4094   48.1755   16.2085  C     
6    N        34.7111   48.1178   17.3586  N     
7    N        35.3019   47.0146   15.5380  N     
8    N        32.9303   45.0186   18.1175  N     
9    N        34.1016   44.9326   16.0622  N     
10   N        32.9092   43.0675   16.7785  N     
11   O        33.0731   47.0321   19.4895  O     
12   C        31.7483   46.9671   20.0499  C     
13   C        31.4755   48.2768   20.8365  C     
14   C        30.0890   48.3539   21.5218  C     
15   C        30.2163   49.4522   22.6017  C     
16   C        31.7329   49.6692   22.8274  C     
17   C        32.4469   48.5693   22.0156  C     
18   H        35.9441   48.9850   15.8770  H     
19   H        35.7084   46.8030   14.6842  H     
20   H        33.2009   42.5913   15.9739  H     
21   H        32.3604   42.6109   17.4403  H     
22   H        30.9825   46.8927   19.2636  H     
23   H        31.6674   46.1003   20.7198  H     
24   H        31.5501   49.1159   20.1305  H     
25   H        29.2964   48.5876   20.7975  H     
26   H        29.8598   47.3898   22.0021  H     
27   H        29.7424   50.3831   22.2623  H     
28   H        29.7290   49.1307   23.5357  H     
29   H        32.0227   50.6592   22.4449  H     
30   H        31.9973   49.6117   23.8949  H     
31   H        32.6061   47.6694   22.6306  H     
32   H        33.4200   48.9285   21.6365  H     
@<TRIPOS>BOND
     1    1    3 1
     2    1    8 2
     3    1   11 1
     4    2    8 1
     5    2    9 2
     6    2   10 1
     7    3    4 2
     8    3    6 1
     9    4    7 1
    10    4    9 1
    11    5    6 2
    12    5    7 1
    13   11   12 1
    14   12   13 1
    15   13   14 1
    16   13   17 1
    17   14   15 1
    18   15   16 1
    19   16   17 1
    20    5   18 1
    21    7   19 1
    22   10   20 1
    23   10   21 1
    24   12   22 1
    25   12   23 1
    26   13   24 1
    27   14   25 1
    28   14   26 1
    29   15   27 1
    30   15   28 1
    31   16   29 1
    32   16   30 1
    33   17   31 1
    34   17   32 1
@<TRIPOS>PROPERTY_DATA
  Total_Score	| 7.6142
  Crash		| -0.6931
  Polar		| 3.2035
  FragIndex	| 1
  FragRMSD	| 0.825

