@<TRIPOS>MOLECULE
BindingDB_5473
 32 33 0 0 0
SMALL
NO_CHARGES


@<TRIPOS>ATOM
1    C        32.9650   46.2789   18.0472  C     
2    C        33.2345   44.3233   16.7174  C     
3    C        33.8723   46.9574   17.2101  C     
4    C        34.4369   46.2542   16.1491  C     
5    C        35.1892   48.2830   16.1304  C     
6    N        34.3479   48.2137   17.1843  N     
7    N        35.2473   47.0965   15.5030  N     
8    N        32.6657   44.9848   17.7569  N     
9    N        34.1259   44.9559   15.9068  N     
10   O        32.3388   46.8728   19.0982  O     
11   N        32.9079   43.0404   16.5254  N     
12   C        32.8513   46.4803   20.3893  C     
13   C        31.7757   46.8152   21.4620  C     
14   C        32.3423   47.1656   22.8656  C     
15   C        31.3179   47.8461   23.8269  C     
16   C        31.0036   49.2268   23.4753  C     
17   C        30.1022   49.6084   22.5601  C     
18   H        35.6986   49.1185   15.8372  H     
19   H        35.7642   46.8923   14.7096  H     
20   H        33.3174   42.5373   15.8080  H     
21   H        32.2799   42.6082   17.1248  H     
22   H        33.0621   45.4044   20.4402  H     
23   H        33.7878   47.0153   20.5735  H     
24   H        31.1504   47.6310   21.0974  H     
25   H        31.1142   45.9471   21.5710  H     
26   H        32.6960   46.2334   23.3207  H     
27   H        33.2190   47.8124   22.7706  H     
28   H        30.3977   47.2582   23.9028  H     
29   H        31.7678   47.8486   24.8246  H     
30   H        31.4981   49.9483   23.9482  H     
31   H        29.9907   50.5718   22.3437  H     
32   H        29.5301   48.9550   22.0848  H     
@<TRIPOS>BOND
     1    1    3 1
     2    1    8 2
     3    1   10 1
     4    2    8 1
     5    2    9 2
     6    2   11 1
     7    3    4 2
     8    3    6 1
     9    4    7 1
    10    4    9 1
    11    5    6 2
    12    5    7 1
    13   10   12 1
    14   12   13 1
    15   13   14 1
    16   14   15 1
    17   15   16 1
    18   16   17 2
    19    5   18 1
    20    7   19 1
    21   11   20 1
    22   11   21 1
    23   12   22 1
    24   12   23 1
    25   13   24 1
    26   13   25 1
    27   14   26 1
    28   14   27 1
    29   15   28 1
    30   15   29 1
    31   16   30 1
    32   17   31 1
    33   17   32 1
@<TRIPOS>PROPERTY_DATA
  Total_Score	| 6.6045
  Crash		| -0.1812
  Polar		| 3.3138
  FragIndex	| 1
  FragRMSD	| 0.337

