@<TRIPOS>MOLECULE
BindingDB_5462
 28 29 0 0 0
SMALL
NO_CHARGES


@<TRIPOS>ATOM
1    C        33.3350   46.3751   18.3156  C     
2    C        33.3111   44.4252   16.9458  C     
3    C        34.1363   47.0055   17.3521  C     
4    C        34.5028   46.3118   16.2007  C     
5    C        35.3968   48.2865   16.1650  C     
6    N        34.6889   48.2210   17.3068  N     
7    N        35.3012   47.1214   15.4963  N     
8    N        32.9291   45.0909   18.0871  N     
9    N        34.0921   45.0367   16.0137  N     
10   O        33.2001   47.0379   19.5155  O     
11   C        32.1169   46.8301   20.4302  C     
12   C        31.0681   47.9746   20.3162  C     
13   N        32.9495   43.1524   16.7307  N     
14   C        30.2411   48.2789   21.6042  C     
15   C        30.6693   49.5683   22.3450  C     
16   H        35.9422   49.0976   15.8393  H     
17   H        35.7267   46.9133   14.6460  H     
18   H        31.6482   45.8510   20.2614  H     
19   H        32.5597   46.8175   21.4435  H     
20   H        31.5611   48.9102   20.0088  H     
21   H        30.3771   47.7243   19.5132  H     
22   H        33.2580   42.6723   15.9387  H     
23   H        32.4260   42.6621   17.3869  H     
24   H        29.1803   48.3732   21.3333  H     
25   H        30.3290   47.4199   22.2943  H     
26   H        31.7436   49.5543   22.5413  H     
27   H        30.1406   49.6490   23.2934  H     
28   H        30.4324   50.4443   21.7357  H     
@<TRIPOS>BOND
     1    1    3 1
     2    1    8 2
     3    1   10 1
     4    2    8 1
     5    2    9 2
     6    2   13 1
     7    3    4 2
     8    3    6 1
     9    4    7 1
    10    4    9 1
    11    5    6 2
    12    5    7 1
    13   10   11 1
    14   11   12 1
    15   12   14 1
    16   14   15 1
    17    5   16 1
    18    7   17 1
    19   11   18 1
    20   11   19 1
    21   12   20 1
    22   12   21 1
    23   13   22 1
    24   13   23 1
    25   14   24 1
    26   14   25 1
    27   15   26 1
    28   15   27 1
    29   15   28 1
@<TRIPOS>PROPERTY_DATA
  Total_Score	| 7.2255
  Crash		| -0.3539
  Polar		| 3.1555
  FragIndex	| 1
  FragRMSD	| 0.730

