@<TRIPOS>MOLECULE
BindingDB_5467
 28 29 0 0 0
SMALL
NO_CHARGES


@<TRIPOS>ATOM
1    C        32.8979   46.3474   17.9772  C     
2    C        33.2078   44.3418   16.7304  C     
3    C        33.8258   46.9908   17.1406  C     
4    C        34.4258   46.2547   16.1266  C     
5    C        35.1753   48.2848   16.0747  C     
6    N        34.2956   48.2484   17.0974  N     
7    N        35.2539   47.0802   15.4803  N     
8    N        32.6063   45.0433   17.7321  N     
9    N        34.1216   44.9469   15.9206  N     
10   O        32.2058   46.9804   18.9651  O     
11   N        32.8811   43.0525   16.5487  N     
12   C        32.8326   46.9535   20.2616  C     
13   C        31.7557   47.1857   21.3640  C     
14   C        32.4165   47.5438   22.7212  C     
15   C        30.6999   48.2506   20.9661  C     
16   H        35.6893   49.1137   15.7746  H     
17   H        35.7854   46.8683   14.6978  H     
18   H        33.2898   42.5499   15.8315  H     
19   H        32.2233   42.6309   17.1260  H     
20   H        33.3263   45.9951   20.4712  H     
21   H        33.5912   47.7429   20.2952  H     
22   H        31.2208   46.2407   21.4955  H     
23   H        33.1324   46.7764   23.0198  H     
24   H        31.6583   47.6238   23.5036  H     
25   H        32.9411   48.5006   22.6520  H     
26   H        31.1737   49.2210   20.8013  H     
27   H        29.9435   48.3524   21.7486  H     
28   H        30.1811   47.9573   20.0506  H     
@<TRIPOS>BOND
     1    1    3 1
     2    1    8 2
     3    1   10 1
     4    2    8 1
     5    2    9 2
     6    2   11 1
     7    3    4 2
     8    3    6 1
     9    4    7 1
    10    4    9 1
    11    5    6 2
    12    5    7 1
    13   10   12 1
    14   12   13 1
    15   13   14 1
    16   13   15 1
    17    5   16 1
    18    7   17 1
    19   11   18 1
    20   11   19 1
    21   12   20 1
    22   12   21 1
    23   13   22 1
    24   14   23 1
    25   14   24 1
    26   14   25 1
    27   15   26 1
    28   15   27 1
    29   15   28 1
@<TRIPOS>PROPERTY_DATA
  Total_Score	| 6.1593
  Crash		| -0.1343
  Polar		| 3.3097
  FragIndex	| 1
  FragRMSD	| 0.343

