@<TRIPOS>MOLECULE
BindingDB_5464
 37 38 0 0 0
SMALL
NO_CHARGES


@<TRIPOS>ATOM
1    C        33.4189   46.3289   18.2169  C     
2    C        33.3676   44.3970   16.8143  C     
3    C        34.2301   46.9642   17.2680  C     
4    C        34.5880   46.2732   16.1173  C     
5    C        35.4896   48.2464   16.0924  C     
6    N        34.7885   48.1798   17.2405  N     
7    N        35.3779   47.0898   15.4131  N     
8    N        33.0180   45.0500   17.9607  N     
9    N        34.1636   45.0075   15.8915  N     
10   O        33.1851   47.0056   19.3741  O     
11   C        31.8562   46.9658   19.9246  C     
12   C        31.7310   48.1634   20.8955  C     
13   N        32.9546   43.1367   16.6127  N     
14   C        30.5014   48.0469   21.8315  C     
15   C        30.4249   49.1739   22.9049  C     
16   C        31.4574   49.0691   24.0581  C     
17   C        31.5742   47.6665   24.7129  C     
18   C        30.3029   47.2031   25.4665  C     
19   H        36.0314   49.0600   15.7903  H     
20   H        35.7972   46.8876   14.5643  H     
21   H        31.1021   47.0606   19.1322  H     
22   H        31.7092   46.0246   20.4645  H     
23   H        32.6531   48.2236   21.4871  H     
24   H        31.6480   49.0846   20.3015  H     
25   H        33.2558   42.6466   15.8280  H     
26   H        32.4067   42.6938   17.2802  H     
27   H        29.5895   48.0941   21.2194  H     
28   H        30.5160   47.0695   22.3202  H     
29   H        30.5566   50.1401   22.4077  H     
30   H        29.4232   49.1837   23.3341  H     
31   H        32.4369   49.3552   23.6851  H     
32   H        31.2012   49.7964   24.8271  H     
33   H        31.8357   46.9135   23.9685  H     
34   H        32.3925   47.7016   25.4344  H     
35   H        30.0922   47.8814   26.2978  H     
36   H        30.4481   46.1981   25.8711  H     
37   H        29.4398   47.1830   24.7995  H     
@<TRIPOS>BOND
     1    1    3 1
     2    1    8 2
     3    1   10 1
     4    2    8 1
     5    2    9 2
     6    2   13 1
     7    3    4 2
     8    3    6 1
     9    4    7 1
    10    4    9 1
    11    5    6 2
    12    5    7 1
    13   10   11 1
    14   11   12 1
    15   12   14 1
    16   14   15 1
    17   15   16 1
    18   16   17 1
    19   17   18 1
    20    5   19 1
    21    7   20 1
    22   11   21 1
    23   11   22 1
    24   12   23 1
    25   12   24 1
    26   13   25 1
    27   13   26 1
    28   14   27 1
    29   14   28 1
    30   15   29 1
    31   15   30 1
    32   16   31 1
    33   16   32 1
    34   17   33 1
    35   17   34 1
    36   18   35 1
    37   18   36 1
    38   18   37 1
@<TRIPOS>PROPERTY_DATA
  Total_Score	| 7.0362
  Crash		| -0.5921
  Polar		| 3.1701
  FragIndex	| 1
  FragRMSD	| 1.233

