@<TRIPOS>MOLECULE
BindingDB_18025
 89 93 0 0 0
SMALL
NO_CHARGES


@<TRIPOS>ATOM
1    C        72.5231   25.2146   76.0991  C     
2    C        72.7935   23.7898   76.1793  C     
3    C        75.0533   24.0420   75.2200  C     
4    C        74.5966   25.4745   74.8099  C     
5    N        73.7359   26.0228   75.8626  N     
6    O        71.8601   23.1010   76.5848  O     
7    C        75.7205   23.3650   73.9794  C     
8    O        76.5966   22.2940   74.3989  O     
9    C        77.2585   21.6193   73.4039  C     
10   C        78.1970   22.2531   72.5639  C     
11   C        77.0690   20.2400   73.2828  C     
12   C        77.7709   19.5106   72.3076  C     
13   C        78.9368   21.5550   71.5751  C     
14   C        78.6654   20.1590   71.4273  C     
15   C        79.2872   19.3528   70.3424  C     
16   C        80.0138   20.2052   69.2788  C     
17   C        80.7793   21.3507   69.9713  C     
18   N        79.8660   22.1737   70.7508  N     
19   C        80.0159   23.6195   70.6488  C     
20   C        80.6975   24.2501   71.8881  C     
21   N        73.9762   23.2518   75.8282  N     
22   C        74.2295   21.9350   76.1465  C     
23   C        73.8765   20.9052   75.2538  C     
24   C        74.1572   19.5615   75.5663  C     
25   C        75.1075   20.2458   77.6833  C     
26   C        74.8198   21.5936   77.3776  C     
27   C        74.7879   19.2112   76.7752  C     
28   O        75.0573   17.8635   76.9217  O     
29   C        75.3353   17.2722   78.2077  C     
30   C        75.1819   15.7404   78.1026  C     
31   C        76.1587   15.0339   77.1234  C     
32   O        77.3244   14.5096   77.7997  O     
33   C        78.5500   15.2608   77.7541  C     
34   C        79.3176   14.9471   76.5151  C     
35   C        80.6452   13.3329   75.2220  C     
36   C        79.9093   13.6629   76.3745  C     
37   C        79.4690   15.8898   75.4707  C     
38   C        80.1773   15.5342   74.3008  C     
39   C        80.7756   14.2712   74.1891  C     
40   O        78.8831   17.1296   75.5286  O     
41   C        79.8194   18.1962   75.7590  C     
42   C        81.6689   26.4639   72.3844  C     
43   O        80.8271   25.6632   71.6847  O     
44   C        81.7095   27.8975   72.0893  C     
45   O        82.4522   25.9549   73.3642  O     
46   H        71.8049   25.4010   75.2975  H     
47   H        72.0895   25.5608   77.0414  H     
48   H        75.8362   24.1725   75.9780  H     
49   H        75.4624   26.1364   74.6917  H     
50   H        74.0396   25.4613   73.8672  H     
51   H        73.4662   26.9640   75.5865  H     
52   H        74.2932   26.0712   76.7194  H     
53   H        74.9359   22.9976   73.3102  H     
54   H        76.3116   24.1086   73.4325  H     
55   H        78.3442   23.2430   72.7262  H     
56   H        76.4197   19.7522   73.9026  H     
57   H        77.6030   18.5056   72.2282  H     
58   H        79.9930   18.6557   70.7957  H     
59   H        78.5114   18.7737   69.8357  H     
60   H        80.7034   19.5771   68.7055  H     
61   H        79.2802   20.6359   68.5889  H     
62   H        81.5309   20.9243   70.6434  H     
63   H        81.3201   21.8988   69.1914  H     
64   H        80.6053   23.8963   69.7715  H     
65   H        79.0400   24.0821   70.4836  H     
66   H        80.1114   24.0688   72.7934  H     
67   H        81.6850   23.8055   72.0337  H     
68   H        73.4278   21.1290   74.3654  H     
69   H        73.9068   18.8334   74.8846  H     
70   H        75.5526   20.0504   78.5778  H     
71   H        75.0476   22.3169   78.0604  H     
72   H        76.3433   17.5363   78.5351  H     
73   H        74.6179   17.6225   78.9582  H     
74   H        75.2901   15.3150   79.1120  H     
75   H        74.1462   15.5493   77.7891  H     
76   H        75.6468   14.1602   76.7185  H     
77   H        76.4096   15.6680   76.2745  H     
78   H        78.3704   16.3242   77.8870  H     
79   H        79.1467   14.9465   78.6186  H     
80   H        81.0808   12.4113   75.1362  H     
81   H        79.8158   12.9637   77.1127  H     
82   H        80.2621   16.2058   73.5344  H     
83   H        81.3059   14.0402   73.3506  H     
84   H        80.3215   18.0825   76.7202  H     
85   H        79.2714   19.1390   75.7706  H     
86   H        80.5676   18.2447   74.9662  H     
87   H        82.0560   28.0440   71.0648  H     
88   H        82.3861   28.4163   72.7742  H     
89   H        80.7066   28.3129   72.1965  H     
@<TRIPOS>BOND
     1    1    2 1
     2    1    5 1
     3    2    6 2
     4    2   21 1
     5    3    4 1
     6    3    7 1
     7    3   21 1
     8    4    5 1
     9    7    8 1
    10    8    9 1
    11    9   10 2
    12    9   11 1
    13   10   13 1
    14   11   12 2
    15   12   14 1
    16   13   14 2
    17   13   18 1
    18   14   15 1
    19   15   16 1
    20   16   17 1
    21   17   18 1
    22   18   19 1
    23   19   20 1
    24   20   43 1
    25   21   22 1
    26   22   23 2
    27   22   26 1
    28   23   24 1
    29   24   27 2
    30   25   26 2
    31   25   27 1
    32   27   28 1
    33   28   29 1
    34   29   30 1
    35   30   31 1
    36   31   32 1
    37   32   33 1
    38   33   34 1
    39   34   36 1
    40   34   37 2
    41   35   36 2
    42   35   39 1
    43   37   38 1
    44   37   40 1
    45   38   39 2
    46   40   41 1
    47   42   43 1
    48   42   44 1
    49   42   45 2
    50    1   46 1
    51    1   47 1
    52    3   48 1
    53    4   49 1
    54    4   50 1
    55    5   51 1
    56    5   52 1
    57    7   53 1
    58    7   54 1
    59   10   55 1
    60   11   56 1
    61   12   57 1
    62   15   58 1
    63   15   59 1
    64   16   60 1
    65   16   61 1
    66   17   62 1
    67   17   63 1
    68   19   64 1
    69   19   65 1
    70   20   66 1
    71   20   67 1
    72   23   68 1
    73   24   69 1
    74   25   70 1
    75   26   71 1
    76   29   72 1
    77   29   73 1
    78   30   74 1
    79   30   75 1
    80   31   76 1
    81   31   77 1
    82   33   78 1
    83   33   79 1
    84   35   80 1
    85   36   81 1
    86   38   82 1
    87   39   83 1
    88   41   84 1
    89   41   85 1
    90   41   86 1
    91   44   87 1
    92   44   88 1
    93   44   89 1
@<TRIPOS>PROPERTY_DATA
  Total_Score	| 17.7984
  Crash		| -3.2181
  Polar		| 5.1559
  FragIndex	| 1
  FragRMSD	| 0.180

