@<TRIPOS>MOLECULE
BindingDB_50165804
 87 91 0 0 0
SMALL
NO_CHARGES


@<TRIPOS>ATOM
1    N        74.0499   23.1629   75.9558  N     
2    C        78.7485   21.5416   72.2059  C     
3    C        72.9416   23.7527   76.4525  C     
4    N        79.4393   21.6120   71.0049  N     
5    C        75.0304   23.8569   75.1184  C     
6    C        78.4178   22.6940   72.9742  C     
7    C        74.2702   21.8284   76.2230  C     
8    N        73.8113   25.9146   75.7453  N     
9    C        78.3261   20.2743   72.7184  C     
10   C        79.2439   14.8333   76.2909  C     
11   O        72.0860   23.1213   77.0695  O     
12   C        76.4383   24.0047   75.8013  C     
13   C        79.6669   15.9565   75.5349  C     
14   C        77.7070   22.6223   74.1925  C     
15   C        73.9312   20.8324   75.2806  C     
16   C        74.8258   21.4360   77.4640  C     
17   C        77.5938   20.1968   73.9237  C     
18   O        77.5444   23.8014   74.8941  O     
19   C        72.6480   25.1587   76.2468  C     
20   C        74.5032   25.2413   74.6276  C     
21   C        74.6999   19.0781   76.8103  C     
22   C        77.3048   21.3526   74.6573  C     
23   C        79.4938   22.8458   70.2327  C     
24   C        74.1405   19.4761   75.5769  C     
25   C        75.0342   20.0819   77.7553  C     
26   C        80.1386   20.4127   70.5429  C     
27   O        78.9296   17.1104   75.4786  O     
28   C        79.5876   22.8012   68.6763  C     
29   C        75.3352   15.6764   78.2123  C     
30   O        74.7810   17.7271   77.0213  O     
31   C        77.9988   14.8748   77.1017  C     
32   O        81.0205   23.1216   66.7131  O     
33   C        79.1832   19.2015   70.5748  C     
34   O        76.8691   15.1677   76.2524  O     
35   C        78.6361   19.0052   72.0069  C     
36   C        80.0512   13.6688   76.2763  C     
37   C        81.0265   23.0021   68.1319  C     
38   C        75.4050   17.2105   78.2121  C     
39   C        75.5514   15.0070   76.8221  C     
40   C        80.8379   15.8839   74.7488  C     
41   C        79.5463   18.2259   76.1522  C     
42   C        81.2227   13.6091   75.5002  C     
43   C        81.6171   14.7199   74.7381  C     
44   H        75.1597   23.2640   74.2052  H     
45   H        78.7373   23.6182   72.6732  H     
46   H        73.4913   26.8272   75.4386  H     
47   H        74.4584   26.0383   76.5241  H     
48   H        76.5446   25.0188   76.1974  H     
49   H        76.5452   23.3405   76.6592  H     
50   H        73.5119   21.0945   74.3844  H     
51   H        75.0725   22.1482   78.1646  H     
52   H        77.2829   19.2978   74.2918  H     
53   H        71.8153   25.2610   75.5473  H     
54   H        72.3572   25.6126   77.1963  H     
55   H        75.3185   25.8790   74.2770  H     
56   H        73.8044   25.1079   73.7938  H     
57   H        76.8020   21.2613   75.5347  H     
58   H        78.5703   23.4026   70.4321  H     
59   H        80.3177   23.4616   70.6183  H     
60   H        73.8739   18.7712   74.8902  H     
61   H        75.4249   19.8296   78.6678  H     
62   H        80.5577   20.4933   69.5475  H     
63   H        80.9742   20.2250   71.2203  H     
64   H        79.1857   21.8457   68.3130  H     
65   H        78.9710   23.5981   68.2522  H     
66   H        76.0841   15.2887   78.9090  H     
67   H        74.3560   15.3726   78.5933  H     
68   H        77.8444   13.9279   77.6262  H     
69   H        78.1024   15.6590   77.8520  H     
70   H        80.7675   22.2292   66.3910  H     
71   H        78.3526   19.3814   69.8867  H     
72   H        79.7016   18.2954   70.2468  H     
73   H        79.3839   18.4694   72.6068  H     
74   H        77.7409   18.3725   71.9484  H     
75   H        79.7917   12.8497   76.8289  H     
76   H        81.4493   23.9168   68.5523  H     
77   H        81.6694   22.1721   68.4148  H     
78   H        74.8714   17.5675   79.0996  H     
79   H        76.4469   17.5481   78.2687  H     
80   H        75.3121   13.9403   76.8902  H     
81   H        74.8394   15.4413   76.1117  H     
82   H        81.1212   16.6917   74.1909  H     
83   H        79.4922   18.1001   77.2391  H     
84   H        79.0009   19.1244   75.8734  H     
85   H        80.5933   18.3692   75.8554  H     
86   H        81.7912   12.7601   75.4949  H     
87   H        82.4691   14.6883   74.1836  H     
@<TRIPOS>BOND
     1    1    3 1
     2    1    5 1
     3    1    7 1
     4    2    4 1
     5    2    6 2
     6    2    9 1
     7    3   11 2
     8    3   19 1
     9    4   23 1
    10    4   26 1
    11    5   12 1
    12    5   20 1
    13    6   14 1
    14    7   15 2
    15    7   16 1
    16    8   19 1
    17    8   20 1
    18    9   17 2
    19    9   35 1
    20   10   13 2
    21   10   31 1
    22   10   36 1
    23   12   18 1
    24   13   27 1
    25   13   40 1
    26   14   18 1
    27   14   22 2
    28   15   24 1
    29   16   25 2
    30   17   22 1
    31   21   24 2
    32   21   25 1
    33   21   30 1
    34   23   28 1
    35   26   33 1
    36   27   41 1
    37   28   37 1
    38   29   38 1
    39   29   39 1
    40   30   38 1
    41   31   34 1
    42   32   37 1
    43   33   35 1
    44   34   39 1
    45   36   42 2
    46   40   43 2
    47   42   43 1
    48    5   44 1
    49    6   45 1
    50    8   46 1
    51    8   47 1
    52   12   48 1
    53   12   49 1
    54   15   50 1
    55   16   51 1
    56   17   52 1
    57   19   53 1
    58   19   54 1
    59   20   55 1
    60   20   56 1
    61   22   57 1
    62   23   58 1
    63   23   59 1
    64   24   60 1
    65   25   61 1
    66   26   62 1
    67   26   63 1
    68   28   64 1
    69   28   65 1
    70   29   66 1
    71   29   67 1
    72   31   68 1
    73   31   69 1
    74   32   70 1
    75   33   71 1
    76   33   72 1
    77   35   73 1
    78   35   74 1
    79   36   75 1
    80   37   76 1
    81   37   77 1
    82   38   78 1
    83   38   79 1
    84   39   80 1
    85   39   81 1
    86   40   82 1
    87   41   83 1
    88   41   84 1
    89   41   85 1
    90   42   86 1
    91   43   87 1
@<TRIPOS>PROPERTY_DATA
  Total_Score	| 15.4957
  Crash		| -2.6692
  Polar		| 3.7504
  FragIndex	| 1
  FragRMSD	| 0.556

