@<TRIPOS>MOLECULE
BindingDB_50165799
 77 81 0 0 0
SMALL
NO_CHARGES


@<TRIPOS>ATOM
1    N        73.6458   23.1816   76.1768  N     
2    C        72.5463   23.8675   76.5520  C     
3    C        78.4942   20.5514   72.1507  C     
4    C        74.7530   23.8028   75.4463  C     
5    C        73.8019   21.8874   76.6285  C     
6    C        77.6160   20.7610   73.2345  C     
7    N        73.6390   25.9521   75.8997  N     
8    N        78.5627   19.3234   71.5809  N     
9    C        79.2915   15.3406   76.8725  C     
10   C        79.2785   21.6290   71.6569  C     
11   O        71.6172   23.3295   77.1444  O     
12   C        75.3842   22.9216   74.3104  C     
13   C        80.2269   14.6072   76.0888  C     
14   C        77.5027   22.0347   73.8231  C     
15   C        73.1511   20.8165   75.9740  C     
16   C        74.5944   21.6215   77.7667  C     
17   O        76.5838   22.2780   74.8061  O     
18   C        79.1789   22.8945   72.2733  C     
19   C        72.3760   25.2855   76.2621  C     
20   C        74.3800   25.2067   74.8742  C     
21   C        74.1303   19.2376   77.5517  C     
22   C        78.3111   23.0906   73.3595  C     
23   C        74.7589   20.2990   78.2289  C     
24   C        73.3132   19.4968   76.4347  C     
25   O        80.1940   13.2339   76.1806  O     
26   C        75.2567   15.8500   77.2901  C     
27   O        74.2706   17.9530   77.9850  O     
28   C        78.3103   14.6516   77.7522  C     
29   O        77.1432   14.2038   77.0389  O     
30   C        79.3489   19.0212   70.4243  C     
31   C        79.2966   16.7520   76.8142  C     
32   C        80.1764   21.4282   70.4881  C     
33   C        75.5243   17.3416   77.6146  C     
34   C        76.3210   15.1811   76.3728  C     
35   C        81.1352   15.3224   75.2570  C     
36   C        81.0921   12.4187   75.4101  C     
37   C        80.5862   19.9446   70.3066  C     
38   C        80.2153   17.4460   76.0073  C     
39   C        81.1424   16.7258   75.2345  C     
40   H        75.5328   23.9967   76.1926  H     
41   H        77.0331   19.9942   73.5778  H     
42   H        73.4430   26.8911   75.5506  H     
43   H        74.2293   26.0170   76.7299  H     
44   H        77.9984   18.6188   71.9390  H     
45   H        74.6762   22.1555   73.9792  H     
46   H        75.6004   23.5526   73.4362  H     
47   H        72.5575   20.9961   75.1615  H     
48   H        75.0314   22.3919   78.2771  H     
49   H        79.7360   23.6848   71.9286  H     
50   H        71.6522   25.3965   75.4476  H     
51   H        71.9747   25.8031   77.1382  H     
52   H        75.2814   25.7690   74.6189  H     
53   H        73.7603   25.1121   73.9778  H     
54   H        78.2390   24.0149   73.7875  H     
55   H        75.3212   20.1210   79.0639  H     
56   H        72.8362   18.7289   75.9592  H     
57   H        75.1683   15.2939   78.2253  H     
58   H        74.2837   15.7902   76.7906  H     
59   H        78.7850   13.7678   78.1825  H     
60   H        78.0039   15.2668   78.6030  H     
61   H        79.6723   17.9805   70.4733  H     
62   H        78.7173   19.1385   69.5419  H     
63   H        78.6234   17.2996   77.3643  H     
64   H        79.6585   21.7775   69.5924  H     
65   H        81.0893   22.0200   70.6059  H     
66   H        76.2144   17.4342   78.4552  H     
67   H        75.9905   17.8169   76.7400  H     
68   H        75.7861   14.6407   75.5868  H     
69   H        76.9386   15.9295   75.8688  H     
70   H        81.8068   14.8182   74.6715  H     
71   H        80.9466   11.3753   75.6743  H     
72   H        82.1337   12.6807   75.6181  H     
73   H        80.8815   12.5368   74.3466  H     
74   H        81.3038   19.6837   71.0903  H     
75   H        81.0741   19.8036   69.3386  H     
76   H        80.2109   18.4700   75.9868  H     
77   H        81.8031   17.2289   74.6337  H     
@<TRIPOS>BOND
     1    1    2 1
     2    1    4 1
     3    1    5 1
     4    2   11 2
     5    2   19 1
     6    3    6 2
     7    3    8 1
     8    3   10 1
     9    4   12 1
    10    4   20 1
    11    5   15 2
    12    5   16 1
    13    6   14 1
    14    7   19 1
    15    7   20 1
    16    8   30 1
    17    9   13 2
    18    9   28 1
    19    9   31 1
    20   10   18 2
    21   10   32 1
    22   12   17 1
    23   13   25 1
    24   13   35 1
    25   14   17 1
    26   14   22 2
    27   15   24 1
    28   16   23 2
    29   18   22 1
    30   21   23 1
    31   21   24 2
    32   21   27 1
    33   25   36 1
    34   26   33 1
    35   26   34 1
    36   27   33 1
    37   28   29 1
    38   29   34 1
    39   30   37 1
    40   31   38 2
    41   32   37 1
    42   35   39 2
    43   38   39 1
    44    4   40 1
    45    6   41 1
    46    7   42 1
    47    7   43 1
    48    8   44 1
    49   12   45 1
    50   12   46 1
    51   15   47 1
    52   16   48 1
    53   18   49 1
    54   19   50 1
    55   19   51 1
    56   20   52 1
    57   20   53 1
    58   22   54 1
    59   23   55 1
    60   24   56 1
    61   26   57 1
    62   26   58 1
    63   28   59 1
    64   28   60 1
    65   30   61 1
    66   30   62 1
    67   31   63 1
    68   32   64 1
    69   32   65 1
    70   33   66 1
    71   33   67 1
    72   34   68 1
    73   34   69 1
    74   35   70 1
    75   36   71 1
    76   36   72 1
    77   36   73 1
    78   37   74 1
    79   37   75 1
    80   38   76 1
    81   39   77 1
@<TRIPOS>PROPERTY_DATA
  Total_Score	| 13.9495
  Crash		| -2.4756
  Polar		| 4.0474
  FragIndex	| 1
  FragRMSD	| 1.436

