@<TRIPOS>MOLECULE
BindingDB_18030
 85 89 0 0 0
SMALL
NO_CHARGES


@<TRIPOS>ATOM
1    C        72.4138   25.2546   76.1665  C     
2    C        72.6380   23.8322   76.3966  C     
3    C        74.8458   23.9021   75.2940  C     
4    C        74.4759   25.3549   74.8580  C     
5    N        73.6673   25.9895   75.9106  N     
6    O        71.7277   23.2441   76.9714  O     
7    C        75.4242   23.0957   74.0720  C     
8    O        76.5627   22.3179   74.5054  O     
9    C        77.2128   21.6375   73.5110  C     
10   C        78.1792   22.2789   72.7087  C     
11   C        76.9576   20.2672   73.3356  C     
12   C        77.6429   19.5553   72.3386  C     
13   C        78.8985   21.5875   71.6929  C     
14   C        78.5774   20.2077   71.5029  C     
15   C        79.1840   19.4533   70.3741  C     
16   C        80.6423   19.8963   70.1684  C     
17   C        80.6767   21.4262   69.9597  C     
18   N        79.8751   22.1859   70.9103  N     
19   C        80.0948   23.6260   70.9082  C     
20   C        80.8778   24.1190   72.1667  C     
21   N        73.7752   23.2085   76.0228  N     
22   C        74.0389   21.9428   76.5165  C     
23   C        74.6590   21.7966   77.7773  C     
24   C        74.9492   20.5226   78.2976  C     
25   C        73.9640   19.4941   76.3263  C     
26   C        73.6783   20.7739   75.8048  C     
27   C        74.6173   19.3607   77.5709  C     
28   O        74.8080   18.1437   78.1783  O     
29   C        75.6599   17.1819   77.5166  C     
30   C        74.8543   15.9024   77.1947  C     
31   C        75.5740   14.7342   76.4595  C     
32   O        76.9166   14.9978   76.0135  O     
33   C        77.9912   14.8226   76.9564  C     
34   C        79.2771   14.8118   76.2170  C     
35   C        81.3358   13.6502   75.5645  C     
36   C        80.1253   13.6797   76.2724  C     
37   C        79.6721   15.9329   75.4413  C     
38   C        80.8757   15.8810   74.7094  C     
39   C        81.7038   14.7496   74.7757  C     
40   O        78.8864   17.0570   75.3628  O     
41   C        79.4450   18.1874   76.0569  C     
42   C        81.2835   25.5398   72.1360  C     
43   O        82.2585   25.9623   72.9718  O     
44   O        80.6889   26.4673   71.3422  O     
45   H        71.7340   25.3884   75.3198  H     
46   H        71.9511   25.7139   77.0456  H     
47   H        75.6517   24.0319   76.0239  H     
48   H        75.3841   25.9461   74.7063  H     
49   H        73.9035   25.3682   73.9254  H     
50   H        73.4446   26.9447   75.6325  H     
51   H        74.2275   26.0200   76.7654  H     
52   H        74.6584   22.4404   73.6488  H     
53   H        75.7433   23.7642   73.2643  H     
54   H        78.3551   23.2629   72.9020  H     
55   H        76.2725   19.7879   73.9338  H     
56   H        77.4270   18.5634   72.2043  H     
57   H        79.1605   18.3739   70.5395  H     
58   H        78.6109   19.6642   69.4677  H     
59   H        81.2266   19.6492   71.0589  H     
60   H        81.0827   19.3853   69.3076  H     
61   H        81.7264   21.7326   70.0326  H     
62   H        80.3341   21.6565   68.9419  H     
63   H        80.6562   23.9523   70.0234  H     
64   H        79.1141   24.1031   70.8007  H     
65   H        80.3011   23.9617   73.0754  H     
66   H        81.7785   23.5179   72.2646  H     
67   H        74.8779   22.6246   78.3325  H     
68   H        75.3730   20.4407   79.2278  H     
69   H        73.6670   18.6659   75.8103  H     
70   H        73.1968   20.8510   74.9073  H     
71   H        76.1268   17.5810   76.6063  H     
72   H        76.4474   16.9262   78.2300  H     
73   H        74.4802   15.5015   78.1404  H     
74   H        73.9850   16.1992   76.6066  H     
75   H        75.5275   13.8304   77.0702  H     
76   H        74.9952   14.5161   75.5570  H     
77   H        78.0048   15.6272   77.6911  H     
78   H        77.8494   13.8835   77.4931  H     
79   H        81.9487   12.8348   75.6274  H     
80   H        79.8736   12.8687   76.8381  H     
81   H        81.1598   16.6832   74.1496  H     
82   H        82.5888   14.7385   74.2698  H     
83   H        79.5788   17.9805   77.1212  H     
84   H        78.7528   19.0204   75.9585  H     
85   H        80.4016   18.4910   75.6260  H     
@<TRIPOS>BOND
     1    1    2 1
     2    1    5 1
     3    2    6 2
     4    2   21 1
     5    3    4 1
     6    3    7 1
     7    3   21 1
     8    4    5 1
     9    7    8 1
    10    8    9 1
    11    9   10 2
    12    9   11 1
    13   10   13 1
    14   11   12 2
    15   12   14 1
    16   13   14 2
    17   13   18 1
    18   14   15 1
    19   15   16 1
    20   16   17 1
    21   17   18 1
    22   18   19 1
    23   19   20 1
    24   20   42 1
    25   21   22 1
    26   22   23 2
    27   22   26 1
    28   23   24 1
    29   24   27 2
    30   25   26 2
    31   25   27 1
    32   27   28 1
    33   28   29 1
    34   29   30 1
    35   30   31 1
    36   31   32 1
    37   32   33 1
    38   33   34 1
    39   34   36 1
    40   34   37 2
    41   35   36 2
    42   35   39 1
    43   37   38 1
    44   37   40 1
    45   38   39 2
    46   40   41 1
    47   42   43 1
    48   42   44 2
    49    1   45 1
    50    1   46 1
    51    3   47 1
    52    4   48 1
    53    4   49 1
    54    5   50 1
    55    5   51 1
    56    7   52 1
    57    7   53 1
    58   10   54 1
    59   11   55 1
    60   12   56 1
    61   15   57 1
    62   15   58 1
    63   16   59 1
    64   16   60 1
    65   17   61 1
    66   17   62 1
    67   19   63 1
    68   19   64 1
    69   20   65 1
    70   20   66 1
    71   23   67 1
    72   24   68 1
    73   25   69 1
    74   26   70 1
    75   29   71 1
    76   29   72 1
    77   30   73 1
    78   30   74 1
    79   31   75 1
    80   31   76 1
    81   33   77 1
    82   33   78 1
    83   35   79 1
    84   36   80 1
    85   38   81 1
    86   39   82 1
    87   41   83 1
    88   41   84 1
    89   41   85 1
@<TRIPOS>PROPERTY_DATA
  Total_Score	| 16.7299
  Crash		| -3.4581
  Polar		| 6.0091
  FragIndex	| 1
  FragRMSD	| 0.808

