@<TRIPOS>MOLECULE
BindingDB_17965
 91 95 0 0 0
SMALL
NO_CHARGES


@<TRIPOS>ATOM
1    C        73.2001   25.4153   76.7068  C     
2    C        72.7400   24.0165   76.2244  C     
3    C        74.8242   23.7693   74.8499  C     
4    C        75.3205   25.1391   75.3826  C     
5    N        74.2203   26.0282   75.8230  N     
6    C        74.0486   21.9480   76.2483  C     
7    C        74.6298   21.7300   77.5152  C     
8    C        75.0903   20.4462   77.8780  C     
9    C        74.9133   19.3541   76.9951  C     
10   C        74.2793   19.5569   75.7542  C     
11   C        73.8482   20.8450   75.3884  C     
12   O        75.4521   18.1133   77.2501  O     
13   C        74.6522   17.3155   78.1676  C     
14   C        74.8116   15.8056   77.8471  C     
15   C        76.0462   15.4045   76.9994  C     
16   O        77.1921   15.1524   77.8450  O     
17   C        78.2716   16.0928   77.7389  C     
18   C        79.3415   15.7545   76.7528  C     
19   C        80.7371   14.0800   75.6130  C     
20   C        79.6856   14.4068   76.4952  C     
21   C        80.0773   16.7789   76.0952  C     
22   C        81.1537   16.4455   75.2395  C     
23   C        81.4764   15.1010   74.9920  C     
24   O        79.7801   18.0986   76.3087  O     
25   C        78.8719   18.6374   75.3249  C     
26   N        73.8563   23.2140   75.7805  N     
27   C        74.2595   23.8457   73.4066  C     
28   O        75.2772   23.8717   72.3882  O     
29   C        76.0808   22.7717   72.1496  C     
30   C        77.3873   23.0298   71.7020  C     
31   C        75.6609   21.4319   72.2396  C     
32   C        76.5275   20.3826   71.8819  C     
33   C        78.2999   22.0021   71.3150  C     
34   C        77.8294   20.6548   71.4113  C     
35   C        78.6608   19.5103   70.9507  C     
36   C        80.1642   19.8309   70.9802  C     
37   C        80.4311   21.2158   70.3463  C     
38   N        79.5718   22.2791   70.8338  N     
39   C        80.0766   23.6385   70.6840  C     
40   C        80.6506   24.1971   72.0151  C     
41   N        80.6892   25.6288   72.0033  N     
42   C        81.5960   26.4045   72.5797  C     
43   C        81.4166   27.8382   72.5284  C     
44   O        82.5474   25.9402   73.1936  O     
45   H        72.3373   26.0813   76.7429  H     
46   H        73.6003   25.3415   77.7166  H     
47   H        72.1769   23.5423   77.0321  H     
48   H        72.0636   24.1496   75.3862  H     
49   H        75.7065   23.1264   74.8147  H     
50   H        75.9928   24.9667   76.2243  H     
51   H        75.9000   25.6554   74.6123  H     
52   H        73.7615   26.4382   75.0100  H     
53   H        74.6433   26.8034   76.3342  H     
54   H        74.8069   22.5236   78.1399  H     
55   H        75.5674   20.3163   78.7667  H     
56   H        74.1337   18.7800   75.1156  H     
57   H        73.3766   20.9720   74.4897  H     
58   H        74.9844   17.5157   79.2048  H     
59   H        73.5697   17.5493   78.1101  H     
60   H        74.8375   15.2332   78.7939  H     
61   H        73.9186   15.4760   77.2948  H     
62   H        75.8135   14.4704   76.4723  H     
63   H        76.2204   16.1726   76.2344  H     
64   H        77.8337   17.0730   77.5423  H     
65   H        78.7437   16.1432   78.7220  H     
66   H        80.9742   13.1003   75.4300  H     
67   H        79.1951   13.6424   76.9626  H     
68   H        81.6957   17.1870   74.7844  H     
69   H        82.2484   14.8706   74.3624  H     
70   H        79.3496   18.6821   74.3440  H     
71   H        78.6065   19.6522   75.6233  H     
72   H        77.9501   18.0557   75.2514  H     
73   H        73.5822   23.0196   73.1942  H     
74   H        73.6748   24.7718   73.2968  H     
75   H        77.6495   24.0139   71.6480  H     
76   H        74.7126   21.2110   72.5446  H     
77   H        76.1831   19.4176   71.9469  H     
78   H        78.4856   18.6304   71.5849  H     
79   H        78.3600   19.2534   69.9283  H     
80   H        80.5094   19.8304   72.0155  H     
81   H        80.7139   19.0630   70.4332  H     
82   H        81.4812   21.4405   70.5482  H     
83   H        80.3035   21.1436   69.2605  H     
84   H        80.8690   23.7005   69.9329  H     
85   H        79.2853   24.2820   70.2992  H     
86   H        80.0193   23.9094   72.8533  H     
87   H        81.6377   23.7593   72.1824  H     
88   H        79.9344   26.0814   71.5950  H     
89   H        80.4476   28.1089   72.9565  H     
90   H        81.4497   28.1732   71.4903  H     
91   H        82.1977   28.3662   73.0854  H     
@<TRIPOS>BOND
     1    1    2 1
     2    1    5 1
     3    2   26 1
     4    3    4 1
     5    3   26 1
     6    3   27 1
     7    4    5 1
     8    6    7 2
     9    6   11 1
    10    6   26 1
    11    7    8 1
    12    8    9 2
    13    9   10 1
    14    9   12 1
    15   10   11 2
    16   12   13 1
    17   13   14 1
    18   14   15 1
    19   15   16 1
    20   16   17 1
    21   17   18 1
    22   18   20 2
    23   18   21 1
    24   19   20 1
    25   19   23 2
    26   21   22 2
    27   21   24 1
    28   22   23 1
    29   24   25 1
    30   27   28 1
    31   28   29 1
    32   29   30 1
    33   29   31 2
    34   30   33 2
    35   31   32 1
    36   32   34 2
    37   33   34 1
    38   33   38 1
    39   34   35 1
    40   35   36 1
    41   36   37 1
    42   37   38 1
    43   38   39 1
    44   39   40 1
    45   40   41 1
    46   41   42 am
    47   42   43 1
    48   42   44 2
    49    1   45 1
    50    1   46 1
    51    2   47 1
    52    2   48 1
    53    3   49 1
    54    4   50 1
    55    4   51 1
    56    5   52 1
    57    5   53 1
    58    7   54 1
    59    8   55 1
    60   10   56 1
    61   11   57 1
    62   13   58 1
    63   13   59 1
    64   14   60 1
    65   14   61 1
    66   15   62 1
    67   15   63 1
    68   17   64 1
    69   17   65 1
    70   19   66 1
    71   20   67 1
    72   22   68 1
    73   23   69 1
    74   25   70 1
    75   25   71 1
    76   25   72 1
    77   27   73 1
    78   27   74 1
    79   30   75 1
    80   31   76 1
    81   32   77 1
    82   35   78 1
    83   35   79 1
    84   36   80 1
    85   36   81 1
    86   37   82 1
    87   37   83 1
    88   39   84 1
    89   39   85 1
    90   40   86 1
    91   40   87 1
    92   41   88 1
    93   43   89 1
    94   43   90 1
    95   43   91 1
@<TRIPOS>PROPERTY_DATA
  Total_Score	| 15.7599
  Crash		| -3.7554
  Polar		| 3.6994
  FragIndex	| 1
  FragRMSD	| 0.588

