@<TRIPOS>MOLECULE
BindingDB_18026
 92 96 0 0 0
SMALL
NO_CHARGES


@<TRIPOS>ATOM
1    C        72.3136   25.4435   76.2042  C     
2    C        72.3572   24.0042   76.4175  C     
3    C        74.6104   23.8231   75.4214  C     
4    C        74.4217   25.2982   74.9524  C     
5    N        73.6500   26.0283   75.9670  N     
6    O        71.3544   23.5187   76.9360  O     
7    C        75.1919   22.9991   74.2310  C     
8    O        76.5666   23.3939   74.0295  O     
9    C        77.3603   22.4318   73.4734  C     
10   C        77.9537   22.6414   72.2143  C     
11   C        77.6281   21.2476   74.1808  C     
12   C        78.3748   20.2336   73.5734  C     
13   C        78.8088   21.6799   71.6125  C     
14   C        78.9397   20.4277   72.2962  C     
15   C        79.7459   19.3162   71.7423  C     
16   C        80.0094   19.4723   70.2323  C     
17   C        80.4609   20.9213   69.9511  C     
18   N        79.5090   21.9116   70.4332  N     
19   C        79.5243   23.1901   69.7280  C     
20   C        78.4712   23.2615   68.5905  C     
21   N        73.4136   23.2531   76.0564  N     
22   C        73.4479   21.9289   76.4488  C     
23   C        72.5120   21.0029   75.9276  C     
24   C        72.5549   19.6503   76.3066  C     
25   C        74.4449   20.1179   77.7581  C     
26   C        74.4117   21.4682   77.3703  C     
27   C        73.5261   19.1869   77.2164  C     
28   O        73.4910   17.8683   77.5996  O     
29   C        74.5522   17.0173   77.0953  C     
30   C        75.5441   16.6283   78.2283  C     
31   C        77.0215   16.4648   77.7814  C     
32   O        77.3882   15.0736   77.6436  O     
33   C        78.7802   14.7605   77.8539  C     
34   C        79.5177   14.6144   76.5688  C     
35   C        80.8203   13.2283   75.0158  C     
36   C        80.1279   13.3878   76.2301  C     
37   C        79.6881   15.7230   75.6990  C     
38   C        80.4029   15.5742   74.4872  C     
39   C        80.9642   14.3262   74.1573  C     
40   O        79.1087   16.9338   75.9998  O     
41   C        80.0434   18.0498   75.9585  C     
42   C        76.3797   24.3841   69.4146  C     
43   O        77.1189   23.2919   69.0681  O     
44   O        76.9350   25.6176   69.4407  O     
45   C        74.9712   24.2149   69.8020  C     
46   C        74.1665   23.4347   68.7375  C     
47   H        71.6703   25.6568   75.3480  H     
48   H        71.8938   25.9430   77.0797  H     
49   H        75.3751   23.8444   76.2049  H     
50   H        75.3926   25.7896   74.8348  H     
51   H        73.8847   25.3553   74.0005  H     
52   H        73.5344   26.9936   75.6558  H     
53   H        74.1865   26.0275   76.8399  H     
54   H        75.1146   21.9360   74.4708  H     
55   H        74.6193   23.1651   73.3126  H     
56   H        77.7554   23.5305   71.7579  H     
57   H        77.2477   21.1018   75.1187  H     
58   H        78.5001   19.3485   74.0731  H     
59   H        80.6950   19.2982   72.2818  H     
60   H        79.2397   18.3579   71.9008  H     
61   H        80.7744   18.7596   69.9099  H     
62   H        79.0899   19.2600   69.6734  H     
63   H        81.4244   21.0948   70.4423  H     
64   H        80.6178   21.0000   68.8690  H     
65   H        79.3907   24.0378   70.4072  H     
66   H        80.5072   23.3560   69.2650  H     
67   H        78.6650   24.1431   67.9757  H     
68   H        78.5696   22.3911   67.9399  H     
69   H        71.7991   21.3152   75.2632  H     
70   H        71.8613   18.9967   75.9277  H     
71   H        75.1339   19.8296   78.4518  H     
72   H        75.0828   22.1243   77.7829  H     
73   H        74.0764   16.1034   76.7203  H     
74   H        75.0673   17.4726   76.2390  H     
75   H        75.5223   17.3997   78.9910  H     
76   H        75.1978   15.7144   78.7033  H     
77   H        77.1981   16.9699   76.8163  H     
78   H        77.6488   16.9669   78.5331  H     
79   H        79.3127   15.5011   78.4587  H     
80   H        78.7810   13.8253   78.4200  H     
81   H        81.2345   12.3342   74.7747  H     
82   H        80.0510   12.5850   76.8486  H     
83   H        80.5056   16.3639   73.8438  H     
84   H        81.4730   14.2229   73.2755  H     
85   H        80.9356   17.8677   76.5755  H     
86   H        79.5321   18.9374   76.3630  H     
87   H        80.3520   18.2649   74.9275  H     
88   H        74.9310   23.6794   70.7538  H     
89   H        74.5047   25.1936   69.9439  H     
90   H        74.2564   23.9166   67.7612  H     
91   H        73.1093   23.4099   69.0153  H     
92   H        74.5287   22.4081   68.6579  H     
@<TRIPOS>BOND
     1    1    2 1
     2    1    5 1
     3    2    6 2
     4    2   21 1
     5    3    4 1
     6    3    7 1
     7    3   21 1
     8    4    5 1
     9    7    8 1
    10    8    9 1
    11    9   10 2
    12    9   11 1
    13   10   13 1
    14   11   12 2
    15   12   14 1
    16   13   14 2
    17   13   18 1
    18   14   15 1
    19   15   16 1
    20   16   17 1
    21   17   18 1
    22   18   19 1
    23   19   20 1
    24   20   43 1
    25   21   22 1
    26   22   23 2
    27   22   26 1
    28   23   24 1
    29   24   27 2
    30   25   26 2
    31   25   27 1
    32   27   28 1
    33   28   29 1
    34   29   30 1
    35   30   31 1
    36   31   32 1
    37   32   33 1
    38   33   34 1
    39   34   36 1
    40   34   37 2
    41   35   36 2
    42   35   39 1
    43   37   38 1
    44   37   40 1
    45   38   39 2
    46   40   41 1
    47   42   43 1
    48   42   44 2
    49   42   45 1
    50   45   46 1
    51    1   47 1
    52    1   48 1
    53    3   49 1
    54    4   50 1
    55    4   51 1
    56    5   52 1
    57    5   53 1
    58    7   54 1
    59    7   55 1
    60   10   56 1
    61   11   57 1
    62   12   58 1
    63   15   59 1
    64   15   60 1
    65   16   61 1
    66   16   62 1
    67   17   63 1
    68   17   64 1
    69   19   65 1
    70   19   66 1
    71   20   67 1
    72   20   68 1
    73   23   69 1
    74   24   70 1
    75   25   71 1
    76   26   72 1
    77   29   73 1
    78   29   74 1
    79   30   75 1
    80   30   76 1
    81   31   77 1
    82   31   78 1
    83   33   79 1
    84   33   80 1
    85   35   81 1
    86   36   82 1
    87   38   83 1
    88   39   84 1
    89   41   85 1
    90   41   86 1
    91   41   87 1
    92   45   88 1
    93   45   89 1
    94   46   90 1
    95   46   91 1
    96   46   92 1
@<TRIPOS>PROPERTY_DATA
  Total_Score	| 15.5503
  Crash		| -3.1703
  Polar		| 5.0799
  FragIndex	| 1
  FragRMSD	| 0.971

