@<TRIPOS>MOLECULE
BindingDB_18022
 93 97 0 0 0
SMALL
NO_CHARGES


@<TRIPOS>ATOM
1    C        72.5321   25.2000   76.2023  C     
2    C        72.8294   23.7848   76.2714  C     
3    C        75.0282   24.0561   75.1626  C     
4    C        74.5183   25.4823   74.7847  C     
5    N        73.7150   26.0242   75.8839  N     
6    O        71.9416   23.0844   76.7563  O     
7    C        75.6579   23.3917   73.8957  C     
8    O        76.9121   22.7537   74.2553  O     
9    C        77.4288   21.9041   73.3137  C     
10   C        78.1090   22.3475   72.1531  C     
11   C        77.3753   20.5282   73.5919  C     
12   C        77.9567   19.6081   72.7140  C     
13   C        78.7290   21.4476   71.2328  C     
14   C        78.6404   20.0491   71.5535  C     
15   C        79.2242   19.0065   70.6654  C     
16   C        80.4556   19.5639   69.9228  C     
17   C        80.0498   20.8712   69.2062  C     
18   N        79.3778   21.8586   70.0680  N     
19   C        79.3621   23.2201   69.5374  C     
20   C        78.2981   23.4166   68.4051  C     
21   N        76.9063   23.3694   68.8521  N     
22   C        76.3057   24.4901   69.3336  C     
23   C        74.9173   24.5893   69.7671  C     
24   O        76.9356   25.5351   69.4068  O     
25   N        73.9868   23.2546   75.8279  N     
26   C        74.2460   21.9273   76.0818  C     
27   C        74.8439   21.5168   77.2966  C     
28   C        75.0946   20.1550   77.5403  C     
29   C        74.1456   19.5809   75.3769  C     
30   C        73.8949   20.9450   75.1287  C     
31   C        74.7581   19.1746   76.5800  C     
32   O        75.0981   17.8573   76.6946  O     
33   C        74.8519   17.2260   77.9680  C     
34   C        75.0253   15.7022   77.8159  C     
35   C        76.3259   15.2484   77.0987  C     
36   O        77.4744   15.7272   77.8332  O     
37   C        78.6482   14.8820   77.8668  C     
38   C        79.3652   14.6863   76.5802  C     
39   C        80.7753   13.2821   75.1394  C     
40   C        80.0340   13.4675   76.3221  C     
41   C        79.4320   15.7135   75.6040  C     
42   C        80.1382   15.5032   74.3984  C     
43   C        80.8069   14.2938   74.1701  C     
44   O        78.7721   16.9132   75.7872  O     
45   C        79.6381   18.0567   75.8360  C     
46   C        76.2309   22.0954   68.6950  C     
47   H        71.7529   25.3737   75.4539  H     
48   H        72.1542   25.5497   77.1683  H     
49   H        75.8272   24.2121   75.9032  H     
50   H        75.3636   26.1565   74.6134  H     
51   H        73.9101   25.4491   73.8745  H     
52   H        73.4154   26.9635   75.6312  H     
53   H        74.3089   26.0732   76.7176  H     
54   H        74.9445   22.6873   73.4665  H     
55   H        75.8746   24.1641   73.1392  H     
56   H        78.1593   23.3460   72.0129  H     
57   H        76.9296   20.1848   74.4529  H     
58   H        77.8971   18.6097   72.9280  H     
59   H        79.5337   18.1188   71.2327  H     
60   H        78.4637   18.6922   69.9465  H     
61   H        81.2604   19.7640   70.6444  H     
62   H        80.8084   18.8198   69.1971  H     
63   H        80.9738   21.2782   68.7840  H     
64   H        79.3868   20.6067   68.3805  H     
65   H        79.2217   23.9864   70.2891  H     
66   H        80.3542   23.4326   69.1001  H     
67   H        78.4884   24.3731   67.9206  H     
68   H        78.5025   22.6726   67.6144  H     
69   H        74.2437   24.3867   68.9191  H     
70   H        74.6776   25.5797   70.1622  H     
71   H        74.7165   23.8615   70.5583  H     
72   H        75.0928   22.2072   78.0094  H     
73   H        75.5396   19.8733   78.4215  H     
74   H        73.9062   18.8930   74.6637  H     
75   H        73.4549   21.2238   74.2451  H     
76   H        75.5543   17.6052   78.7303  H     
77   H        73.8346   17.4266   78.3218  H     
78   H        75.0033   15.2441   78.8068  H     
79   H        74.1838   15.3114   77.2413  H     
80   H        76.3138   14.1647   77.0215  H     
81   H        76.3582   15.6747   76.0941  H     
82   H        79.3511   15.3484   78.5619  H     
83   H        78.3471   13.9219   78.3161  H     
84   H        81.2863   12.4018   74.9804  H     
85   H        80.0199   12.7101   77.0117  H     
86   H        80.1670   16.2386   73.6830  H     
87   H        81.3326   14.1594   73.3085  H     
88   H        80.3645   17.9722   76.6452  H     
89   H        79.0262   18.9353   76.0122  H     
90   H        80.1660   18.1934   74.8860  H     
91   H        76.2811   21.7961   67.6307  H     
92   H        75.1660   22.1155   68.9819  H     
93   H        76.7472   21.3502   69.3092  H     
@<TRIPOS>BOND
     1    1    2 1
     2    1    5 1
     3    2    6 2
     4    2   25 1
     5    3    4 1
     6    3    7 1
     7    3   25 1
     8    4    5 1
     9    7    8 1
    10    8    9 1
    11    9   10 2
    12    9   11 1
    13   10   13 1
    14   11   12 2
    15   12   14 1
    16   13   14 2
    17   13   18 1
    18   14   15 1
    19   15   16 1
    20   16   17 1
    21   17   18 1
    22   18   19 1
    23   19   20 1
    24   20   21 1
    25   21   22 am
    26   21   46 1
    27   22   23 1
    28   22   24 2
    29   25   26 1
    30   26   27 2
    31   26   30 1
    32   27   28 1
    33   28   31 2
    34   29   30 2
    35   29   31 1
    36   31   32 1
    37   32   33 1
    38   33   34 1
    39   34   35 1
    40   35   36 1
    41   36   37 1
    42   37   38 1
    43   38   40 1
    44   38   41 2
    45   39   40 2
    46   39   43 1
    47   41   42 1
    48   41   44 1
    49   42   43 2
    50   44   45 1
    51    1   47 1
    52    1   48 1
    53    3   49 1
    54    4   50 1
    55    4   51 1
    56    5   52 1
    57    5   53 1
    58    7   54 1
    59    7   55 1
    60   10   56 1
    61   11   57 1
    62   12   58 1
    63   15   59 1
    64   15   60 1
    65   16   61 1
    66   16   62 1
    67   17   63 1
    68   17   64 1
    69   19   65 1
    70   19   66 1
    71   20   67 1
    72   20   68 1
    73   23   69 1
    74   23   70 1
    75   23   71 1
    76   27   72 1
    77   28   73 1
    78   29   74 1
    79   30   75 1
    80   33   76 1
    81   33   77 1
    82   34   78 1
    83   34   79 1
    84   35   80 1
    85   35   81 1
    86   37   82 1
    87   37   83 1
    88   39   84 1
    89   40   85 1
    90   42   86 1
    91   43   87 1
    92   45   88 1
    93   45   89 1
    94   45   90 1
    95   46   91 1
    96   46   92 1
    97   46   93 1
@<TRIPOS>PROPERTY_DATA
  Total_Score	| 15.3127
  Crash		| -2.8247
  Polar		| 5.0027
  FragIndex	| 1
  FragRMSD	| 0.333

