@<TRIPOS>MOLECULE
BindingDB_50165802
 84 88 0 0 0
SMALL
NO_CHARGES


@<TRIPOS>ATOM
1    N        74.0129   23.2018   75.8841  N     
2    C        78.9581   22.0036   72.0912  C     
3    C        73.0005   23.8339   76.5156  C     
4    N        79.6305   22.1610   70.8827  N     
5    C        74.9389   23.9003   74.9925  C     
6    C        78.4154   23.0956   72.8209  C     
7    C        74.2032   21.8497   76.0782  C     
8    N        73.8115   25.9925   75.6331  N     
9    C        78.8051   20.7039   72.6603  C     
10   C        79.4371   14.6417   76.6472  C     
11   O        72.1898   23.2217   77.2016  O     
12   C        76.3428   24.1155   75.6593  C     
13   C        79.5658   15.7265   75.7442  C     
14   C        77.8198   22.9502   74.0939  C     
15   C        74.7929   21.3815   77.2647  C     
16   C        73.7973   20.9088   75.0998  C     
17   C        78.1898   20.5475   73.9256  C     
18   O        77.4446   24.1120   74.7330  O     
19   C        72.7525   25.2579   76.3565  C     
20   C        74.3568   25.2508   74.4819  C     
21   C        74.6553   19.0667   76.4610  C     
22   C        77.7346   21.6589   74.6416  C     
23   C        74.0126   19.5355   75.2957  C     
24   C        75.0516   19.9950   77.4353  C     
25   C        80.3681   21.0420   70.3156  C     
26   C        79.6559   23.4157   70.1494  C     
27   O        79.0424   16.9520   76.0690  O     
28   C        75.0669   15.5421   77.6478  C     
29   O        74.9389   17.7173   76.5306  O     
30   C        78.7457   14.7959   77.9670  C     
31   O        77.8003   25.0384   69.9585  O     
32   C        79.6190   19.7084   70.4909  C     
33   O        77.4943   15.5183   77.9996  O     
34   C        79.3115   19.4840   71.9890  C     
35   C        80.0449   13.4042   76.3112  C     
36   C        74.7997   17.0592   77.8038  C     
37   C        76.4488   15.1738   77.0683  C     
38   C        80.1981   15.5409   74.4942  C     
39   C        78.2605   23.7548   69.5450  C     
40   C        80.0006   18.0237   76.0304  C     
41   C        80.7260   13.2421   75.0881  C     
42   C        80.7915   14.2993   74.1789  C     
43   H        75.0757   23.2896   74.0917  H     
44   H        78.4746   24.0478   72.4673  H     
45   H        73.4356   26.8775   75.3016  H     
46   H        74.5664   26.1973   76.2941  H     
47   H        76.3716   25.0880   76.1436  H     
48   H        76.5321   23.4057   76.4627  H     
49   H        75.0863   22.0224   77.9950  H     
50   H        73.3425   21.2318   74.2414  H     
51   H        78.0867   19.6197   74.3294  H     
52   H        71.8066   25.3997   75.8282  H     
53   H        72.6668   25.7158   77.3419  H     
54   H        75.1270   25.8559   73.9917  H     
55   H        73.5568   25.0691   73.7556  H     
56   H        77.3464   21.5045   75.5682  H     
57   H        73.7114   18.8715   74.5741  H     
58   H        75.5292   19.7084   78.2819  H     
59   H        80.5580   21.1660   69.2468  H     
60   H        81.3379   20.9853   70.8148  H     
61   H        80.0199   24.2212   70.7916  H     
62   H        80.3812   23.3950   69.3282  H     
63   H        74.9665   15.0821   78.6334  H     
64   H        74.2926   15.1347   76.9952  H     
65   H        78.5865   13.8253   78.4494  H     
66   H        79.4298   15.3404   78.6179  H     
67   H        76.8272   24.9486   70.0151  H     
68   H        78.6823   19.7402   69.9256  H     
69   H        80.2261   18.8836   70.1114  H     
70   H        80.2236   19.1716   72.5031  H     
71   H        78.5801   18.6745   72.0635  H     
72   H        80.0200   12.6133   76.9548  H     
73   H        73.7887   17.1876   78.1975  H     
74   H        75.5039   17.4436   78.5434  H     
75   H        76.4379   14.1047   76.8525  H     
76   H        76.6170   15.6985   76.1276  H     
77   H        80.2524   16.3091   73.8258  H     
78   H        78.3221   23.7378   68.4539  H     
79   H        77.5121   23.0185   69.8477  H     
80   H        80.9386   17.7711   76.5227  H     
81   H        79.5787   18.8748   76.5565  H     
82   H        80.1973   18.3073   74.9966  H     
83   H        81.1752   12.3473   74.8611  H     
84   H        81.2714   14.1894   73.2863  H     
@<TRIPOS>BOND
     1    1    3 1
     2    1    5 1
     3    1    7 1
     4    2    4 1
     5    2    6 2
     6    2    9 1
     7    3   11 2
     8    3   19 1
     9    4   25 1
    10    4   26 1
    11    5   12 1
    12    5   20 1
    13    6   14 1
    14    7   15 2
    15    7   16 1
    16    8   19 1
    17    8   20 1
    18    9   17 2
    19    9   34 1
    20   10   13 2
    21   10   30 1
    22   10   35 1
    23   12   18 1
    24   13   27 1
    25   13   38 1
    26   14   18 1
    27   14   22 2
    28   15   24 1
    29   16   23 2
    30   17   22 1
    31   21   23 1
    32   21   24 2
    33   21   29 1
    34   25   32 1
    35   26   39 1
    36   27   40 1
    37   28   36 1
    38   28   37 1
    39   29   36 1
    40   30   33 1
    41   31   39 1
    42   32   34 1
    43   33   37 1
    44   35   41 2
    45   38   42 2
    46   41   42 1
    47    5   43 1
    48    6   44 1
    49    8   45 1
    50    8   46 1
    51   12   47 1
    52   12   48 1
    53   15   49 1
    54   16   50 1
    55   17   51 1
    56   19   52 1
    57   19   53 1
    58   20   54 1
    59   20   55 1
    60   22   56 1
    61   23   57 1
    62   24   58 1
    63   25   59 1
    64   25   60 1
    65   26   61 1
    66   26   62 1
    67   28   63 1
    68   28   64 1
    69   30   65 1
    70   30   66 1
    71   31   67 1
    72   32   68 1
    73   32   69 1
    74   34   70 1
    75   34   71 1
    76   35   72 1
    77   36   73 1
    78   36   74 1
    79   37   75 1
    80   37   76 1
    81   38   77 1
    82   39   78 1
    83   39   79 1
    84   40   80 1
    85   40   81 1
    86   40   82 1
    87   41   83 1
    88   42   84 1
@<TRIPOS>PROPERTY_DATA
  Total_Score	| 14.2374
  Crash		| -3.0028
  Polar		| 4.2084
  FragIndex	| 1
  FragRMSD	| 0.467

