@<TRIPOS>MOLECULE
BindingDB_18023
 94 99 0 0 0
SMALL
NO_CHARGES


@<TRIPOS>ATOM
1    C        72.5895   25.1976   75.8759  C     
2    C        72.8484   23.7678   75.8656  C     
3    C        75.1872   24.0842   75.1146  C     
4    C        74.7595   25.5532   74.8051  C     
5    N        73.8215   26.0038   75.8386  N     
6    O        71.8889   23.0598   76.1655  O     
7    C        76.0556   23.4753   73.9446  C     
8    O        76.8326   24.4567   73.2045  O     
9    C        77.7086   23.9751   72.2709  C     
10   C        77.2296   23.6939   70.9791  C     
11   C        79.0898   23.8741   72.5287  C     
12   C        79.9637   23.4506   71.5193  C     
13   C        78.0892   23.2825   69.9218  C     
14   C        79.4743   23.1157   70.2419  C     
15   C        80.4568   22.6163   69.2375  C     
16   C        79.7936   22.0121   67.9799  C     
17   C        78.6064   22.8938   67.5499  C     
18   N        77.6374   23.0283   68.6355  N     
19   C        76.2227   22.9501   68.2771  C     
20   C        75.5544   24.3286   68.0271  C     
21   N        74.0620   23.2527   75.5740  N     
22   C        74.3096   21.9371   75.9131  C     
23   C        73.9531   20.8922   75.0289  C     
24   C        74.1788   19.5479   75.3733  C     
25   C        75.1148   20.2590   77.5039  C     
26   C        74.8755   21.6000   77.1635  C     
27   C        74.7696   19.2120   76.6106  C     
28   O        74.9549   17.8664   76.8170  O     
29   C        75.2744   17.3295   78.1154  C     
30   C        75.2248   15.7935   78.0433  C     
31   C        76.3092   15.1325   77.1456  C     
32   O        77.4545   14.6756   77.8989  O     
33   C        78.7023   15.3729   77.7501  C     
34   C        79.3771   14.9586   76.4930  C     
35   C        80.5401   13.2163   75.2128  C     
36   C        79.9001   13.6454   76.3910  C     
37   C        79.4719   15.8238   75.3765  C     
38   C        80.0873   15.3704   74.1859  C     
39   C        80.6348   14.0775   74.1137  C     
40   O        78.9084   17.0764   75.3857  O     
41   C        79.8201   18.1281   75.7485  C     
42   C        76.8759   25.5234   64.7216  C     
43   C        76.1170   24.4912   65.5767  C     
44   C        76.9586   26.7733   65.6208  C     
45   N        76.0890   25.0519   66.8930  N     
46   C        76.5287   26.2965   66.9021  C     
47   O        76.5253   27.0398   67.8783  O     
48   H        71.9551   25.4551   75.0293  H     
49   H        72.0619   25.4641   76.7958  H     
50   H        75.8570   24.1585   75.9788  H     
51   H        75.6275   26.2137   74.7957  H     
52   H        74.2614   25.6309   73.8315  H     
53   H        73.5848   26.9811   75.6671  H     
54   H        74.2948   25.9339   76.7433  H     
55   H        76.7495   22.7491   74.3983  H     
56   H        75.4165   22.9290   73.2392  H     
57   H        76.2305   23.8372   70.8259  H     
58   H        79.4688   24.1116   73.4499  H     
59   H        80.9586   23.3618   71.7310  H     
60   H        81.1014   23.4469   68.9402  H     
61   H        81.0792   21.8390   69.6865  H     
62   H        80.5273   21.9469   67.1668  H     
63   H        79.4299   21.0010   68.1979  H     
64   H        78.9811   23.8961   67.2971  H     
65   H        78.1798   22.4614   66.6420  H     
66   H        76.0813   22.3257   67.3865  H     
67   H        75.6627   22.4132   69.0383  H     
68   H        74.4810   24.1775   67.8655  H     
69   H        75.6453   24.9225   68.9406  H     
70   H        73.5255   21.1155   74.1286  H     
71   H        73.9019   18.8146   74.7138  H     
72   H        75.5378   20.0537   78.4120  H     
73   H        75.1129   22.3256   77.8403  H     
74   H        76.2620   17.6763   78.4350  H     
75   H        74.5283   17.6562   78.8524  H     
76   H        75.3115   15.3906   79.0611  H     
77   H        74.2344   15.5160   77.6690  H     
78   H        75.8651   14.2244   76.7155  H     
79   H        76.5831   15.7525   76.2959  H     
80   H        78.5652   16.4477   77.8120  H     
81   H        79.3232   15.0819   78.6060  H     
82   H        80.9280   12.2659   75.1574  H     
83   H        79.8172   12.9893   77.1736  H     
84   H        80.1339   15.9784   73.3645  H     
85   H        81.0818   13.7583   73.2552  H     
86   H        80.1609   18.0187   76.7746  H     
87   H        79.2939   19.0737   75.6638  H     
88   H        80.6854   18.1556   75.0768  H     
89   H        77.8801   25.1605   64.4931  H     
90   H        76.3454   25.7384   63.7891  H     
91   H        75.0868   24.3580   65.2103  H     
92   H        76.6248   23.5222   65.5416  H     
93   H        77.9843   27.1539   65.6713  H     
94   H        76.2926   27.5658   65.2658  H     
@<TRIPOS>BOND
     1    1    2 1
     2    1    5 1
     3    2    6 2
     4    2   21 1
     5    3    4 1
     6    3    7 1
     7    3   21 1
     8    4    5 1
     9    7    8 1
    10    8    9 1
    11    9   10 2
    12    9   11 1
    13   10   13 1
    14   11   12 2
    15   12   14 1
    16   13   14 2
    17   13   18 1
    18   14   15 1
    19   15   16 1
    20   16   17 1
    21   17   18 1
    22   18   19 1
    23   19   20 1
    24   20   45 1
    25   21   22 1
    26   22   23 2
    27   22   26 1
    28   23   24 1
    29   24   27 2
    30   25   26 2
    31   25   27 1
    32   27   28 1
    33   28   29 1
    34   29   30 1
    35   30   31 1
    36   31   32 1
    37   32   33 1
    38   33   34 1
    39   34   36 1
    40   34   37 2
    41   35   36 2
    42   35   39 1
    43   37   38 1
    44   37   40 1
    45   38   39 2
    46   40   41 1
    47   42   43 1
    48   42   44 1
    49   43   45 1
    50   44   46 1
    51   45   46 1
    52   46   47 2
    53    1   48 1
    54    1   49 1
    55    3   50 1
    56    4   51 1
    57    4   52 1
    58    5   53 1
    59    5   54 1
    60    7   55 1
    61    7   56 1
    62   10   57 1
    63   11   58 1
    64   12   59 1
    65   15   60 1
    66   15   61 1
    67   16   62 1
    68   16   63 1
    69   17   64 1
    70   17   65 1
    71   19   66 1
    72   19   67 1
    73   20   68 1
    74   20   69 1
    75   23   70 1
    76   24   71 1
    77   25   72 1
    78   26   73 1
    79   29   74 1
    80   29   75 1
    81   30   76 1
    82   30   77 1
    83   31   78 1
    84   31   79 1
    85   33   80 1
    86   33   81 1
    87   35   82 1
    88   36   83 1
    89   38   84 1
    90   39   85 1
    91   41   86 1
    92   41   87 1
    93   41   88 1
    94   42   89 1
    95   42   90 1
    96   43   91 1
    97   43   92 1
    98   44   93 1
    99   44   94 1
@<TRIPOS>PROPERTY_DATA
  Total_Score	| 15.6030
  Crash		| -3.2400
  Polar		| 4.6583
  FragIndex	| 1
  FragRMSD	| 0.166

