@<TRIPOS>MOLECULE
BindingDB_18027
 95 99 0 0 0
SMALL
NO_CHARGES


@<TRIPOS>ATOM
1    C        72.2843   25.3865   76.1845  C     
2    C        72.3885   23.9435   76.3625  C     
3    C        74.6715   23.8875   75.4030  C     
4    C        74.4290   25.3682   74.9804  C     
5    N        73.5968   26.0359   75.9910  N     
6    O        71.4020   23.3950   76.8502  O     
7    C        75.2327   23.1126   74.1762  C     
8    O        76.5944   23.5364   73.9312  O     
9    C        77.3978   22.5812   73.3527  C     
10   C        77.9133   22.7536   72.0524  C     
11   C        77.7517   21.4285   74.0809  C     
12   C        78.4995   20.4114   73.4840  C     
13   C        78.7178   21.7642   71.4167  C     
14   C        78.9806   20.5680   72.1644  C     
15   C        79.8309   19.4721   71.6336  C     
16   C        80.6313   19.8731   70.3765  C     
17   C        79.7367   20.7236   69.4500  C     
18   N        79.2330   21.9043   70.1361  N     
19   C        79.3667   23.1730   69.4265  C     
20   C        78.4705   23.2946   68.1612  C     
21   N        73.5093   23.2571   76.0474  N     
22   C        73.6423   21.9419   76.4517  C     
23   C        72.8651   20.9303   75.8380  C     
24   C        73.0422   19.5767   76.1874  C     
25   C        74.7473   20.2144   77.8020  C     
26   C        74.5644   21.5669   77.4521  C     
27   C        73.9976   19.2100   77.1613  C     
28   O        74.0649   17.9017   77.5564  O     
29   C        75.3865   17.3168   77.6101  C     
30   C        75.1768   15.7912   77.5274  C     
31   C        76.3702   14.9665   76.9738  C     
32   O        77.4027   14.6972   77.9406  O     
33   C        78.6767   15.3453   77.8065  C     
34   C        79.3807   14.9555   76.5537  C     
35   C        80.5941   13.2566   75.2519  C     
36   C        79.9275   13.6543   76.4248  C     
37   C        79.5232   15.8619   75.4662  C     
38   C        80.1506   15.4421   74.2738  C     
39   C        80.7019   14.1555   74.1726  C     
40   O        79.0195   17.1299   75.5307  O     
41   C        80.0306   18.1128   75.8169  C     
42   C        76.4126   24.5332   68.8659  C     
43   O        77.0708   23.4093   68.4650  O     
44   O        77.0831   25.6962   69.0486  O     
45   C        74.9630   24.5019   69.1704  C     
46   C        74.2042   23.3611   68.4370  C     
47   C        74.7561   24.4199   70.7010  C     
48   H        71.6287   25.6045   75.3357  H     
49   H        71.8383   25.8336   77.0792  H     
50   H        75.4582   23.9232   76.1686  H     
51   H        75.3743   25.9160   74.9128  H     
52   H        73.9229   25.4506   74.0123  H     
53   H        73.4432   27.0110   75.7164  H     
54   H        74.1092   26.0181   76.8768  H     
55   H        75.1751   22.0412   74.3996  H     
56   H        74.6155   23.3016   73.2901  H     
57   H        77.6444   23.6023   71.5546  H     
58   H        77.4253   21.3104   75.0450  H     
59   H        78.6962   19.5605   74.0152  H     
60   H        80.5510   19.1588   72.3958  H     
61   H        79.1938   18.6106   71.4041  H     
62   H        81.5030   20.4638   70.6743  H     
63   H        80.9824   18.9789   69.8506  H     
64   H        80.3226   20.9585   68.5556  H     
65   H        78.8807   20.1181   69.1282  H     
66   H        79.1931   24.0354   70.0665  H     
67   H        80.4143   23.2727   69.1183  H     
68   H        78.7977   24.1586   67.5724  H     
69   H        78.6004   22.4043   67.5401  H     
70   H        72.1826   21.1628   75.1128  H     
71   H        72.4791   18.8484   75.7350  H     
72   H        75.4227   19.9636   78.5353  H     
73   H        75.1109   22.2866   77.9329  H     
74   H        76.0241   17.6398   76.7734  H     
75   H        75.8587   17.5940   78.5625  H     
76   H        74.8953   15.4036   78.5066  H     
77   H        74.3417   15.6087   76.8484  H     
78   H        75.9806   13.9884   76.6988  H     
79   H        76.7693   15.4180   76.0648  H     
80   H        78.5541   16.4273   77.8831  H     
81   H        79.3063   15.0422   78.6522  H     
82   H        81.0036   12.3220   75.1819  H     
83   H        79.8551   12.9887   77.1976  H     
84   H        80.2376   16.0878   73.4811  H     
85   H        81.1735   13.8654   73.3130  H     
86   H        80.5591   17.9010   76.7548  H     
87   H        79.5457   19.0835   75.9143  H     
88   H        80.7607   18.1780   75.0023  H     
89   H        74.5317   25.4485   68.8240  H     
90   H        74.2822   23.4903   67.3568  H     
91   H        73.1465   23.3782   68.7042  H     
92   H        74.6103   22.3833   68.7031  H     
93   H        75.1540   23.4809   71.0863  H     
94   H        73.6975   24.4701   70.9530  H     
95   H        75.2611   25.2431   71.2082  H     
@<TRIPOS>BOND
     1    1    2 1
     2    1    5 1
     3    2    6 2
     4    2   21 1
     5    3    4 1
     6    3    7 1
     7    3   21 1
     8    4    5 1
     9    7    8 1
    10    8    9 1
    11    9   10 2
    12    9   11 1
    13   10   13 1
    14   11   12 2
    15   12   14 1
    16   13   14 2
    17   13   18 1
    18   14   15 1
    19   15   16 1
    20   16   17 1
    21   17   18 1
    22   18   19 1
    23   19   20 1
    24   20   43 1
    25   21   22 1
    26   22   23 2
    27   22   26 1
    28   23   24 1
    29   24   27 2
    30   25   26 2
    31   25   27 1
    32   27   28 1
    33   28   29 1
    34   29   30 1
    35   30   31 1
    36   31   32 1
    37   32   33 1
    38   33   34 1
    39   34   36 1
    40   34   37 2
    41   35   36 2
    42   35   39 1
    43   37   38 1
    44   37   40 1
    45   38   39 2
    46   40   41 1
    47   42   43 1
    48   42   44 2
    49   42   45 1
    50   45   46 1
    51   45   47 1
    52    1   48 1
    53    1   49 1
    54    3   50 1
    55    4   51 1
    56    4   52 1
    57    5   53 1
    58    5   54 1
    59    7   55 1
    60    7   56 1
    61   10   57 1
    62   11   58 1
    63   12   59 1
    64   15   60 1
    65   15   61 1
    66   16   62 1
    67   16   63 1
    68   17   64 1
    69   17   65 1
    70   19   66 1
    71   19   67 1
    72   20   68 1
    73   20   69 1
    74   23   70 1
    75   24   71 1
    76   25   72 1
    77   26   73 1
    78   29   74 1
    79   29   75 1
    80   30   76 1
    81   30   77 1
    82   31   78 1
    83   31   79 1
    84   33   80 1
    85   33   81 1
    86   35   82 1
    87   36   83 1
    88   38   84 1
    89   39   85 1
    90   41   86 1
    91   41   87 1
    92   41   88 1
    93   45   89 1
    94   46   90 1
    95   46   91 1
    96   46   92 1
    97   47   93 1
    98   47   94 1
    99   47   95 1
@<TRIPOS>PROPERTY_DATA
  Total_Score	| 15.0109
  Crash		| -3.1412
  Polar		| 4.8675
  FragIndex	| 1
  FragRMSD	| 0.760

