@<TRIPOS>MOLECULE
BindingDB_24844
 30 33 0 0 0
SMALL
NO_CHARGES


@<TRIPOS>ATOM
1    C         9.0664    4.2917   17.7883  C     
2    C         8.2580    3.7869   16.5631  C     
3    C         6.9734    2.1376   17.9149  C     
4    C         8.9650    3.3255   18.9014  C     
5    C         9.3109    2.1581   20.6756  C     
6    C         7.9806    2.3501   18.9773  C     
7    N         6.9709    3.2230   16.9432  N     
8    N         9.8054    3.1685   19.9320  N     
9    N         8.2236    1.6412   20.0873  N     
10   C         5.8079    3.7459   16.4398  C     
11   C         4.6253    5.6927   15.6753  C     
12   C         4.6477    2.9807   16.1632  C     
13   C         3.5247    3.6288   15.6409  C     
14   C         4.3424    1.6255   16.1775  C     
15   C         3.0531    1.4922   15.6687  C     
16   N         5.7439    5.0786   16.1579  N     
17   N         3.5088    4.9622   15.4159  N     
18   N         2.5828    2.7141   15.3705  N     
19   H        10.1122    4.4146   17.5011  H     
20   H         8.6764    5.2524   18.1281  H     
21   H         8.1909    4.6049   15.8338  H     
22   H         8.8295    2.9921   16.0754  H     
23   H         7.2142    1.1974   17.4072  H     
24   H         5.9994    2.0245   18.4034  H     
25   H         9.7499    1.8090   21.5223  H     
26   H         7.7218    0.8645   20.3914  H     
27   H         4.6345    6.7030   15.5045  H     
28   H         4.9498    0.8508   16.4426  H     
29   H         2.5713    0.6108   15.4984  H     
30   H         1.7144    2.8988   14.9693  H     
@<TRIPOS>BOND
     1    1    2 1
     2    1    4 1
     3    2    7 1
     4    3    6 1
     5    3    7 1
     6    4    6 2
     7    4    8 1
     8    5    8 2
     9    5    9 1
    10    6    9 1
    11    7   10 1
    12   10   12 1
    13   10   16 2
    14   11   16 1
    15   11   17 2
    16   12   13 2
    17   12   14 1
    18   13   17 1
    19   13   18 1
    20   14   15 2
    21   15   18 1
    22    1   19 1
    23    1   20 1
    24    2   21 1
    25    2   22 1
    26    3   23 1
    27    3   24 1
    28    5   25 1
    29    9   26 1
    30   11   27 1
    31   14   28 1
    32   15   29 1
    33   18   30 1
@<TRIPOS>PROPERTY_DATA
  Total_Score	| 6.5407
  Crash		| -0.3171
  Polar		| 3.5756
  FragIndex	| 1
  FragRMSD	| 0.455

