@<TRIPOS>MOLECULE
BindingDB_24853
 46 50 0 0 0
SMALL
NO_CHARGES


@<TRIPOS>ATOM
1    C         5.8400    3.4837   16.6622  C     
2    C         4.7855    5.5351   15.8835  C     
3    C         4.6835    2.7583   16.1873  C     
4    C         3.6347    3.5393   15.6491  C     
5    C         4.1896    1.4319   16.0577  C     
6    C         2.9059    1.5195   15.5090  C     
7    N         5.7964    4.8310   16.4438  N     
8    N         3.6739    4.8801   15.4997  N     
9    N         2.5978    2.7907   15.2802  N     
10   C         7.1498    1.6727   17.7035  C     
11   N         6.9652    3.0374   17.3416  N     
12   C         8.4957    1.4765   18.4865  C     
13   C         9.4567    0.3299   20.6644  C     
14   C         8.2179    0.8877   19.9162  C     
15   C         9.4840    0.5391   17.6995  C     
16   C        10.6822   -0.0003   18.5231  C     
17   N        10.2412   -0.5820   19.8074  N     
18   C         8.9355    2.8843   18.5221  C     
19   C        10.3462    4.7618   19.1666  C     
20   C         9.4483    5.6395   18.5427  C     
21   C         8.3083    5.1379   17.8933  C     
22   C         8.0309    3.7455   17.8683  C     
23   C        10.0964    3.3841   19.1536  C     
24   C         4.7490    0.0788   16.2931  C     
25   H         4.8556    6.5473   15.7738  H     
26   H         2.2905    0.7392   15.2740  H     
27   H         1.7741    3.1118   14.8842  H     
28   H         6.2989    1.3895   18.3271  H     
29   H         7.1645    1.0851   16.7903  H     
30   H        10.0892    1.1349   21.0370  H     
31   H         9.1183   -0.2396   21.5324  H     
32   H         7.7219    1.6302   20.5491  H     
33   H         7.5278    0.0506   19.8010  H     
34   H         8.9319   -0.3381   17.3475  H     
35   H         9.8722    1.0565   16.8179  H     
36   H        11.1824   -0.7854   17.9517  H     
37   H        11.4179    0.7837   18.7012  H     
38   H        11.0662   -0.8903   20.3271  H     
39   H         9.6593   -1.3988   19.6135  H     
40   H        11.1781    5.1282   19.6352  H     
41   H         9.6267    6.6460   18.5616  H     
42   H         7.6956    5.8207   17.4638  H     
43   H        10.7586    2.7714   19.6208  H     
44   H         5.6277   -0.0741   15.6669  H     
45   H         4.0378   -0.7073   16.0344  H     
46   H         4.9869   -0.0723   17.3411  H     
@<TRIPOS>BOND
     1    1    3 1
     2    1    7 2
     3    1   11 1
     4    2    7 1
     5    2    8 2
     6    3    4 2
     7    3    5 1
     8    4    8 1
     9    4    9 1
    10    5    6 2
    11    5   24 1
    12    6    9 1
    13   10   11 1
    14   10   12 1
    15   11   22 1
    16   12   14 1
    17   12   15 1
    18   12   18 1
    19   13   14 1
    20   13   17 1
    21   15   16 1
    22   16   17 1
    23   18   22 2
    24   18   23 1
    25   19   20 1
    26   19   23 2
    27   20   21 2
    28   21   22 1
    29    2   25 1
    30    6   26 1
    31    9   27 1
    32   10   28 1
    33   10   29 1
    34   13   30 1
    35   13   31 1
    36   14   32 1
    37   14   33 1
    38   15   34 1
    39   15   35 1
    40   16   36 1
    41   16   37 1
    42   17   38 1
    43   17   39 1
    44   19   40 1
    45   20   41 1
    46   21   42 1
    47   23   43 1
    48   24   44 1
    49   24   45 1
    50   24   46 1
@<TRIPOS>PROPERTY_DATA
  Total_Score	| 6.1258
  Crash		| -2.8719
  Polar		| 3.8137
  FragIndex	| 1
  FragRMSD	| 1.160

