@<TRIPOS>MOLECULE
BindingDB_24852
 43 47 0 0 0
SMALL
NO_CHARGES


@<TRIPOS>ATOM
1    C         5.5494    3.5813   16.6274  C     
2    C         4.2193    5.4863   15.9916  C     
3    C         4.4965    2.7533   16.1687  C     
4    C         3.3050    3.3473   15.7469  C     
5    C         4.3453    1.3906   15.9319  C     
6    C         3.0252    1.1997   15.5262  C     
7    N         5.3530    4.9245   16.4832  N     
8    N         3.1714    4.6932   15.6562  N     
9    N         2.4235    2.3934   15.4191  N     
10   C         6.5318    2.0694   18.3031  C     
11   N         6.6394    3.1359   17.3307  N     
12   C         7.9413    1.9270   18.9834  C     
13   C         9.0851    1.1264   21.2275  C     
14   C         7.8037    1.6685   20.5307  C     
15   C         8.7601    0.7710   18.2975  C     
16   C        10.0611    0.4102   19.0539  C     
17   N         9.7519    0.0575   20.4511  N     
18   C         8.5094    3.2499   18.6244  C     
19   C        10.0868    5.1074   18.5873  C     
20   C         9.3625    5.6959   17.5376  C     
21   C         8.2150    5.0631   17.0302  C     
22   C         7.7546    3.8657   17.6162  C     
23   C         9.6801    3.8718   19.1128  C     
24   Cl        5.5771    0.2371   15.8126  Cl    
25   H         4.1468    6.5035   15.9140  H     
26   H         2.5934    0.3087   15.2801  H     
27   H         1.5187    2.5440   15.1024  H     
28   H         5.7813    2.3692   19.0496  H     
29   H         6.1812    1.1219   17.9021  H     
30   H         9.7944    1.9309   21.4215  H     
31   H         8.8142    0.7153   22.2024  H     
32   H         7.4905    2.5821   21.0465  H     
33   H         7.0148    0.9307   20.6829  H     
34   H         8.1486   -0.1373   18.2669  H     
35   H         9.0107    1.0273   17.2619  H     
36   H        10.5180   -0.4632   18.5826  H     
37   H        10.7866    1.2262   19.0226  H     
38   H        10.6216   -0.1955   20.9238  H     
39   H         9.1443   -0.7615   20.4326  H     
40   H        10.9224    5.5707   18.9528  H     
41   H         9.6719    6.5813   17.1375  H     
42   H         7.7347    5.4715   16.2319  H     
43   H        10.2469    3.4504   19.8450  H     
@<TRIPOS>BOND
     1    1    3 1
     2    1    7 2
     3    1   11 1
     4    2    7 1
     5    2    8 2
     6    3    4 2
     7    3    5 1
     8    4    8 1
     9    4    9 1
    10    5    6 2
    11    5   24 1
    12    6    9 1
    13   10   11 1
    14   10   12 1
    15   11   22 1
    16   12   14 1
    17   12   15 1
    18   12   18 1
    19   13   14 1
    20   13   17 1
    21   15   16 1
    22   16   17 1
    23   18   22 2
    24   18   23 1
    25   19   20 1
    26   19   23 2
    27   20   21 2
    28   21   22 1
    29    2   25 1
    30    6   26 1
    31    9   27 1
    32   10   28 1
    33   10   29 1
    34   13   30 1
    35   13   31 1
    36   14   32 1
    37   14   33 1
    38   15   34 1
    39   15   35 1
    40   16   36 1
    41   16   37 1
    42   17   38 1
    43   17   39 1
    44   19   40 1
    45   20   41 1
    46   21   42 1
    47   23   43 1
@<TRIPOS>PROPERTY_DATA
  Total_Score	| 5.6611
  Crash		| -3.6056
  Polar		| 3.8326
  FragIndex	| 1
  FragRMSD	| 1.097

