@<TRIPOS>MOLECULE
BindingDB_24847
 43 47 0 0 0
SMALL
NO_CHARGES


@<TRIPOS>ATOM
1    C         5.8258    3.6482   16.4708  C     
2    C         4.5982    5.6279   15.7947  C     
3    C         4.6819    2.8865   16.0914  C     
4    C         3.5398    3.5600   15.6278  C     
5    C         4.3414    1.5351   16.0371  C     
6    C         3.0235    1.4500   15.6004  C     
7    N         5.7035    4.9985   16.2817  N     
8    N         3.4974    4.9029   15.4841  N     
9    N         2.5627    2.6843   15.3643  N     
10   C         7.1174    1.8043   17.5115  C     
11   N         6.9749    3.1593   17.0530  N     
12   C         8.3540    1.7287   18.4744  C     
13   C         8.9779    1.1874   20.9577  C     
14   C         7.8675    1.6007   19.9645  C     
15   C         9.3004    0.5361   18.0701  C     
16   C        10.3336    0.1280   19.1524  C     
17   N         9.6905   -0.0158   20.4732  N     
18   C         8.9311    3.0664   18.2250  C     
19   C        10.5293    4.8994   18.4482  C     
20   C         9.7135    5.6882   17.6203  C     
21   C         8.5237    5.1609   17.0883  C     
22   C         8.1017    3.8509   17.4126  C     
23   C        10.1338    3.5856   18.7514  C     
24   Cl       11.9846    5.5113   19.0579  Cl    
25   H         4.5888    6.6463   15.6855  H     
26   H         4.9341    0.7373   16.2563  H     
27   H         2.4891    0.5888   15.4902  H     
28   H         1.6692    2.9012   15.0580  H     
29   H         6.2080    1.4711   18.0272  H     
30   H         7.2518    1.1569   16.6356  H     
31   H         9.6778    2.0076   21.1252  H     
32   H         8.5117    0.9582   21.9167  H     
33   H         7.4122    2.5375   20.3060  H     
34   H         7.0885    0.8344   20.0282  H     
35   H         8.6880   -0.3520   17.8673  H     
36   H         9.8370    0.7766   17.1471  H     
37   H        10.7709   -0.8351   18.8784  H     
38   H        11.1510    0.8443   19.2134  H     
39   H        10.4045   -0.2721   21.1574  H     
40   H         9.0200   -0.7808   20.3978  H     
41   H        10.0003    6.6428   17.3839  H     
42   H         7.9909    5.7468   16.4527  H     
43   H        10.7338    3.0271   19.3517  H     
@<TRIPOS>BOND
     1    1    3 1
     2    1    7 2
     3    1   11 1
     4    2    7 1
     5    2    8 2
     6    3    4 2
     7    3    5 1
     8    4    8 1
     9    4    9 1
    10    5    6 2
    11    6    9 1
    12   10   11 1
    13   10   12 1
    14   11   22 1
    15   12   14 1
    16   12   15 1
    17   12   18 1
    18   13   14 1
    19   13   17 1
    20   15   16 1
    21   16   17 1
    22   18   22 2
    23   18   23 1
    24   19   20 1
    25   19   23 2
    26   19   24 1
    27   20   21 2
    28   21   22 1
    29    2   25 1
    30    5   26 1
    31    6   27 1
    32    9   28 1
    33   10   29 1
    34   10   30 1
    35   13   31 1
    36   13   32 1
    37   14   33 1
    38   14   34 1
    39   15   35 1
    40   15   36 1
    41   16   37 1
    42   16   38 1
    43   17   39 1
    44   17   40 1
    45   20   41 1
    46   21   42 1
    47   23   43 1
@<TRIPOS>PROPERTY_DATA
  Total_Score	| 5.9407
  Crash		| -2.6194
  Polar		| 3.9515
  FragIndex	| 1
  FragRMSD	| 0.424

